@<TRIPOS>MOLECULE
tmp/4kgvC00.pdb
 140 136 0 0 0
SMALL
GASTEIGER

@<TRIPOS>ATOM
      1  N         62.3970   45.9410   59.0170 N.3    51  ALA51      -0.1231
      2  CA        63.6170   45.4080   59.6050 C.3    51  ALA51       0.1694
      3  C         64.1310   46.2520   60.7750 C.2    51  ALA51       0.2593
      4  O         63.9710   47.4780   60.8080 O.2    51  ALA51      -0.2718
      5  CB        64.6910   45.2820   58.5520 C.3    51  ALA51       0.0304
      6  N         64.7670   45.5810   61.7250 N.am   52  SER52      -0.1938
      7  CA        65.4660   46.2530   62.8210 C.3    52  SER52       0.2055
      8  C         66.4840   45.3100   63.4240 C.2    52  SER52       0.2644
      9  O         66.2630   44.1000   63.4480 O.2    52  SER52      -0.2714
     10  CB        64.4860   46.6580   63.9170 C.3    52  SER52       0.2130
     11  OG        65.1780   47.2230   65.0230 O.3    52  SER52      -0.2179
     12  N         67.5930   45.8550   63.9150 N.am   53  THR53      -0.1936
     13  CA        68.4810   45.0740   64.7760 C.3    53  THR53       0.2028
     14  C         68.5260   45.7210   66.1610 C.2    53  THR53       0.2642
     15  O         68.1170   45.1130   67.1440 O.2    53  THR53      -0.2714
     16  CB        69.9030   44.9460   64.2030 C.3    53  THR53       0.1808
     17  OG1       69.8820   44.1000   63.0400 O.3    53  THR53      -0.2208
     18  CG2       70.8510   44.3420   65.2450 C.3    53  THR53       0.0379
     19  N         68.9980   46.9620   66.2240 N.am   54  ARG54      -0.1963
     20  CA        69.1510   47.6700   67.4900 C.3    54  ARG54       0.1729
     21  C         67.8090   47.9420   68.1560 C.2    54  ARG54       0.2616
     22  O         67.6090   47.6400   69.3370 O.2    54  ARG54      -0.2715
     23  CB        69.8580   49.0130   67.2500 C.3    54  ARG54       0.0348
     24  CG        71.3750   48.9680   67.1250 C.3    54  ARG54       0.0492
     25  CD        71.8280   49.9520   66.0500 C.3    54  ARG54       0.2205
     26  NE        71.3890   49.4050   64.7740 N.pl3  54  ARG54      -0.0865
     27  CZ        72.1490   48.6570   63.9940 C.cat  54  ARG54       0.5346
     28  NH1       71.6350   48.1410   62.8850 N.pl3  54  ARG54       0.1354
     29  NH2       73.4240   48.4350   64.3250 N.pl3  54  ARG54       0.1354
     30  N         66.8820   48.5320   67.4080 N.am   55  THR55      -0.1951
     31  CA        65.6660   49.0080   68.0530 C.3    55  THR55       0.1897
     32  C         64.8520   47.8620   68.6400 C.2    55  THR55       0.2313
     33  O         64.4650   47.9200   69.8100 O.2    55  THR55      -0.2863
     34  CB        64.8140   49.8860   67.1260 C.3    55  THR55       0.1794
     35  OG1       65.6390   50.9280   66.5790 O.3    55  THR55      -0.2208
     36  CG2       63.6640   50.5010   67.9120 C.3    55  THR55       0.0378
     37  N         57.1710   49.2810   64.9930 N.3   105  ARG105     -0.1245
     38  CA        57.8350   49.9390   63.8800 C.3   105  ARG105      0.1563
     39  C         57.0990   49.5390   62.6020 C.2   105  ARG105      0.2260
     40  O         56.6360   48.3990   62.4750 O.2   105  ARG105     -0.2867
     41  CB        59.3040   49.5080   63.7970 C.3   105  ARG105      0.0307
     42  CG        60.0000   49.9070   62.4750 C.3   105  ARG105      0.0489
     43  CD        61.4880   49.5600   62.5150 C.3   105  ARG105      0.2205
     44  NE        62.2010   50.4770   63.4040 N.pl3 105  ARG105     -0.0865
     45  CZ        63.5200   50.6260   63.4410 C.cat 105  ARG105      0.5346
     46  NH1       64.3090   49.8750   62.6690 N.pl3 105  ARG105      0.1354
     47  NH2       64.0460   51.5210   64.2610 N.pl3 105  ARG105      0.1354
     48  N         61.0640   58.9310   65.1980 N.3   134  HIS134     -0.1241
     49  CA        61.8180   57.8490   65.8180 C.3   134  HIS134      0.1621
     50  C         62.1810   58.3140   67.2200 C.2   134  HIS134      0.2264
     51  O         63.3600   58.5300   67.5340 O.2   134  HIS134     -0.2867
     52  CB        63.0760   57.5420   65.0040 C.3   134  HIS134      0.0745
     53  CG        63.6900   56.2080   65.3100 C.ar  134  HIS134      0.0817
     54  ND1       63.3680   55.4710   66.4250 N.ar  134  HIS134     -0.2268
     55  CD2       64.6260   55.4890   64.6350 C.ar  134  HIS134      0.1154
     56  CE1       64.0760   54.3480   66.4290 C.ar  134  HIS134      0.1986
     57  NE2       64.8400   54.3360   65.3520 N.ar  134  HIS134     -0.2212
     58  N         64.9010   56.6340   69.5360 N.3   137  GLN137     -0.1245
     59  CA        66.2490   56.9070   69.0640 C.3   137  GLN137      0.1566
     60  C         66.6760   58.2480   69.6530 C.2   137  GLN137      0.2260
     61  O         67.7900   58.4070   70.1620 O.2   137  GLN137     -0.2867
     62  CB        66.2970   56.9710   67.5410 C.3   137  GLN137      0.0367
     63  CG        67.7110   57.2160   67.0070 C.3   137  GLN137      0.0905
     64  CD        68.5920   55.9920   67.1240 C.2   137  GLN137      0.2608
     65  OE1       68.2350   54.9150   66.6360 O.2   137  GLN137     -0.2717
     66  NE2       69.7510   56.1440   67.7770 N.am  137  GLN137     -0.0878
     67  N         65.6060   60.7290   57.0430 N.3   166  GLY166     -0.1210
     68  CA        66.0850   60.2750   58.3400 C.3   166  GLY166      0.1956
     69  C         65.1270   60.6260   59.4620 C.2   166  GLY166      0.2612
     70  O         65.1740   61.7410   59.9800 O.2   166  GLY166     -0.2717
     71  N         64.2560   59.6860   59.8400 N.am  167  ARG167     -0.1965
     72  CA        63.3430   59.9030   60.9740 C.3   167  ARG167      0.1729
     73  C         64.1410   60.2020   62.2520 C.2   167  ARG167      0.2616
     74  O         63.6960   60.9470   63.1270 O.2   167  ARG167     -0.2715
     75  CB        62.3910   58.7100   61.1670 C.3   167  ARG167      0.0348
     76  CG        63.0630   57.3230   61.0610 C.3   167  ARG167      0.0492
     77  CD        62.0880   56.1650   61.3280 C.3   167  ARG167      0.2205
     78  NE        62.7570   54.8580   61.2860 N.pl3 167  ARG167     -0.0865
     79  CZ        62.1780   53.7250   60.8930 C.cat 167  ARG167      0.5346
     80  NH1       60.9090   53.7290   60.4860 N.pl3 167  ARG167      0.1354
     81  NH2       62.8750   52.5860   60.8920 N.pl3 167  ARG167      0.1354
     82  N         65.3420   59.6420   62.3260 N.am  168  THR168     -0.1951
     83  CA        66.2820   59.9350   63.4040 C.3   168  THR168      0.1897
     84  C         66.5610   61.4400   63.5900 C.2   168  THR168      0.2313
     85  O         66.4770   61.9460   64.7070 O.2   168  THR168     -0.2863
     86  CB        67.6190   59.2090   63.1530 C.3   168  THR168      0.1794
     87  OG1       68.1570   59.6510   61.9020 O.3   168  THR168     -0.2208
     88  CG2       67.3850   57.7160   63.0750 C.3   168  THR168      0.0378
     89  N         72.6850   57.2130   57.5010 N.3   229  ARG229     -0.1245
     90  CA        72.6870   56.3160   56.3580 C.3   229  ARG229      0.1563
     91  C         71.7100   56.8470   55.3250 C.2   229  ARG229      0.2260
     92  O         70.6420   57.3560   55.6890 O.2   229  ARG229     -0.2867
     93  CB        72.2110   54.9260   56.8140 C.3   229  ARG229      0.0307
     94  CG        72.0420   53.8980   55.6730 C.3   229  ARG229      0.0489
     95  CD        71.5740   52.5540   56.2410 C.3   229  ARG229      0.2205
     96  NE        70.2460   52.6660   56.8410 N.pl3 229  ARG229     -0.0865
     97  CZ        69.1200   52.3720   56.1970 C.cat 229  ARG229      0.5346
     98  NH1       69.1760   51.9380   54.9470 N.pl3 229  ARG229      0.1354
     99  NH2       67.9450   52.5100   56.7990 N.pl3 229  ARG229      0.1354
    100  N         68.7290   56.4420   53.2930 N.3   231  GLN231     -0.1245
    101  CA        67.5870   55.5420   53.4780 C.3   231  GLN231      0.1566
    102  C         67.0870   54.9990   52.1450 C.2   231  GLN231      0.2260
    103  O         66.0080   55.3750   51.6800 O.2   231  GLN231     -0.2867
    104  CB        66.4460   56.2740   54.1910 C.3   231  GLN231      0.0367
    105  CG        66.8740   56.9920   55.4770 C.3   231  GLN231      0.0905
    106  CD        67.1900   56.0260   56.5980 C.2   231  GLN231      0.2608
    107  OE1       66.2970   55.3530   57.1180 O.2   231  GLN231     -0.2717
    108  NE2       68.4700   55.9410   56.9720 N.am  231  GLN231     -0.0878
    109  N         75.9720   57.9980   65.3840 N.3   265  HIS265     -0.1227
    110  CA        75.3120   57.4580   64.1870 C.3   265  HIS265      0.1737
    111  C         74.2810   56.4740   64.7300 C.2   265  HIS265      0.2438
    112  O         74.6340   55.5810   65.5010 O.2   265  HIS265     -0.2733
    113  CB        76.3270   56.7230   63.2930 C.3   265  HIS265      0.0758
    114  CG        75.7990   56.3400   61.9380 C.ar  265  HIS265      0.0818
    115  ND1       74.5500   55.7840   61.7490 N.ar  265  HIS265     -0.2268
    116  CD2       76.3600   56.4250   60.7040 C.ar  265  HIS265      0.1154
    117  CE1       74.3640   55.5440   60.4590 C.ar  265  HIS265      0.1986
    118  NE2       75.4500   55.9190   59.8040 N.ar  265  HIS265     -0.2212
    119  N         73.0030   56.6400   64.3560 N.am  266  PRO266     -0.2718
    120  CA        71.9720   55.7340   64.8870 C.3   266  PRO266      0.1535
    121  C         72.1500   54.2920   64.3940 C.2   266  PRO266      0.2598
    122  O         71.6030   53.3480   64.9990 O.2   266  PRO266     -0.2715
    123  CB        70.6690   56.3320   64.3450 C.3   266  PRO266      0.0310
    124  CG        71.0860   57.0380   63.0690 C.3   266  PRO266      0.0237
    125  CD        72.4610   57.5970   63.3660 C.3   266  PRO266      0.0939
    126  N         72.9150   54.1400   63.3120 N.am  267  LEU267     -0.1964
    127  CA        73.2510   52.8370   62.7340 C.3   267  LEU267      0.1713
    128  C         72.0280   52.2050   62.0520 C.2   267  LEU267      0.2458
    129  O         70.9000   52.6270   62.2980 O.2   267  LEU267     -0.2730
    130  CB        73.8840   51.9140   63.7970 C.3   267  LEU267      0.0310
    131  CG        75.1950   52.4220   64.4020 C.3   267  LEU267      0.0022
    132  CD1       75.7280   51.4410   65.4260 C.3   267  LEU267      0.0001
    133  CD2       76.2510   52.6790   63.3060 C.3   267  LEU267      0.0001
    134  N         72.2430   51.2360   61.1450 N.am  268  PRO268     -0.2727
    135  CA        73.5270   50.7310   60.6380 C.3   268  PRO268      0.1402
    136  C         74.2070   51.7420   59.7360 C.2   268  PRO268      0.2269
    137  O         73.5310   52.5900   59.1670 O.2   268  PRO268     -0.2865
    138  CB        73.1180   49.5090   59.8110 C.3   268  PRO268      0.0296
    139  CG        71.7140   49.8550   59.3280 C.3   268  PRO268      0.0237
    140  CD        71.0900   50.6050   60.4750 C.3   268  PRO268      0.0939
@<TRIPOS>BOND
     1   103   102    2
     2   102   101    1
     3   100   101    1
     4   101   104    1
     5   104   105    1
     6    98    97    1
     7    91    92    2
     8    91    90    1
     9   105   106    1
    10    94    95    1
    11    94    93    1
    12    97    99    1
    13    97    96    2
    14    95    96    1
    15    90    93    1
    16    90    89    1
    17   106   108   am
    18   106   107    2
    19    67    68    1
    20    68    69    1
    21     5     2    1
    22     1     2    1
    23   137   136    2
    24   139   138    1
    25   139   140    1
    26    69    71   am
    27    69    70    2
    28     2     3    1
    29   136   135    1
    30   118   117   ar
    31   118   116   ar
    32   138   135    1
    33    71    72    1
    34   117   115   ar
    35   140   134    1
    36    80    79    1
    37   135   134    1
    38   116   114   ar
    39     3     4    2
    40     3     6   am
    41    81    79    1
    42    79    78    2
    43    72    75    1
    44    72    73    1
    45    76    75    1
    46    76    77    1
    47   134   128   am
    48    78    77    1
    49     6     7    1
    50   115   114   ar
    51    87    86    1
    52   114   113    1
    53   128   129    2
    54   128   127    1
    55    73    82   am
    56    73    74    2
    57    82    83    1
    58    42    43    1
    59    42    41    1
    60    40    39    2
    61    43    44    1
    62    39    38    1
    63    46    45    1
    64   127   126    1
    65   127   130    1
    66     7     8    1
    67     7    10    1
    68    28    27    1
    69    17    16    1
    70   124   125    1
    71   124   123    1
    72    88    86    1
    73    86    83    1
    74   113   110    1
    75   133   131    1
    76   126   121   am
    77   125   119    1
    78    83    84    1
    79    44    45    2
    80     8     9    2
    81     8    12   am
    82    45    47    1
    83    84    85    2
    84    41    38    1
    85   130   131    1
    86    38    37    1
    87    12    13    1
    88    10    11    1
    89    27    29    1
    90    27    26    2
    91   110   111    1
    92   110   109    1
    93    16    13    1
    94    16    18    1
    95   123   120    1
    96   119   111   am
    97   119   120    1
    98   121   120    1
    99   121   122    2
   100   131   132    1
   101    55    53   ar
   102    55    57   ar
   103   111   112    2
   104    26    25    1
   105    13    14    1
   106    52    53    1
   107    52    49    1
   108    48    49    1
   109    53    54   ar
   110    57    56   ar
   111    49    50    1
   112    25    24    1
   113    14    19   am
   114    14    15    2
   115    19    20    1
   116    54    56   ar
   117    35    34    1
   118    65    64    2
   119    63    64    1
   120    63    62    1
   121    64    66   am
   122    24    23    1
   123    34    36    1
   124    34    31    1
   125    50    51    2
   126    23    20    1
   127    30    31    1
   128    30    21   am
   129    20    21    1
   130    62    59    1
   131    31    32    1
   132    21    22    2
   133    32    33    2
   134    59    58    1
   135    59    60    1
   136    60    61    2
