@<TRIPOS>MOLECULE
tmp/4kh0B01.pdb
 104 99 0 0 0
SMALL
GASTEIGER

@<TRIPOS>ATOM
      1  N         15.8800   87.6890   37.2590 N.3     6  VAL6       -0.1245
      2  CA        16.6200   86.9070   36.2730 C.3     6  VAL6        0.1561
      3  C         16.3730   87.4290   34.8510 C.2     6  VAL6        0.2260
      4  O         15.2900   87.2730   34.2810 O.2     6  VAL6       -0.2867
      5  CB        16.3410   85.3880   36.3910 C.3     6  VAL6        0.0252
      6  CG1       17.0900   84.8080   37.5840 C.3     6  VAL6        0.0019
      7  CG2       14.8520   85.1160   36.5170 C.3     6  VAL6        0.0019
      8  N         14.5890   72.7340   28.2850 N.3    16  ASP16      -0.1225
      9  CA        13.4130   72.7680   29.1540 C.3    16  ASP16       0.1805
     10  C         12.8610   71.3670   29.3350 C.2    16  ASP16       0.2597
     11  O         13.2430   70.4400   28.6090 O.2    16  ASP16      -0.2718
     12  CB        12.3420   73.6650   28.5350 C.3    16  ASP16       0.1424
     13  CG        11.3330   74.1850   29.5540 C.2    16  ASP16       0.3668
     14  OD1       11.2130   73.6160   30.6690 O.co2  16  ASP16      -0.2456
     15  OD2       10.6550   75.1780   29.2170 O.co2  16  ASP16      -0.2456
     16  N         11.9760   71.2160   30.3170 N.am   17  HIS17      -0.1975
     17  CA        11.3060   69.9450   30.5870 C.3    17  HIS17       0.1656
     18  C         12.2750   68.7930   30.8450 C.2    17  HIS17       0.2291
     19  O         12.0090   67.6480   30.4780 O.2    17  HIS17      -0.2864
     20  CB        10.3330   69.5970   29.4560 C.3    17  HIS17       0.0771
     21  CG         9.3220   70.6660   29.1860 C.ar   17  HIS17       0.0820
     22  ND1        9.0960   71.1750   27.9250 N.ar   17  HIS17      -0.2267
     23  CD2        8.4830   71.3310   30.0170 C.ar   17  HIS17       0.1154
     24  CE1        8.1600   72.1050   27.9890 C.ar   17  HIS17       0.1986
     25  NE2        7.7710   72.2180   29.2460 N.ar   17  HIS17      -0.2212
     26  N         22.1980   79.6510   33.5960 N.3    40  THR40      -0.1203
     27  CA        21.2090   79.6780   34.6610 C.3    40  THR40       0.1994
     28  C         20.5180   78.3300   34.7780 C.2    40  THR40       0.2618
     29  O         20.0730   77.7540   33.7750 O.2    40  THR40      -0.2717
     30  CB        20.1830   80.7940   34.4530 C.3    40  THR40       0.1784
     31  OG1       20.8430   82.0560   34.5930 O.3    40  THR40      -0.2211
     32  CG2       19.1080   80.7010   35.4990 C.3    40  THR40       0.0376
     33  N         20.4500   77.8230   36.0060 N.am   41  ILE41      -0.1965
     34  CA        19.9240   76.4900   36.2600 C.3    41  ILE41       0.1727
     35  C         18.8330   76.5710   37.3070 C.2    41  ILE41       0.2616
     36  O         18.9900   77.2340   38.3260 O.2    41  ILE41      -0.2715
     37  CB        21.0390   75.5280   36.7300 C.3    41  ILE41       0.0290
     38  CG1       22.1870   75.5270   35.7170 C.3    41  ILE41       0.0022
     39  CG2       20.5010   74.1030   36.9020 C.3    41  ILE41       0.0023
     40  CD1       23.5540   75.2910   36.3190 C.3    41  ILE41       0.0001
     41  N         17.7110   75.9190   37.0310 N.am   42  GLY42      -0.1955
     42  CA        16.6560   75.7610   38.0110 C.3    42  GLY42       0.1869
     43  C         16.4570   74.2690   38.1610 C.2    42  GLY42       0.2309
     44  O         16.3910   73.5310   37.1580 O.2    42  GLY42      -0.2863
     45  N         11.8910   72.7360   39.7820 N.3    45  LEU45      -0.1231
     46  CA        10.8910   73.7480   39.4800 C.3    45  LEU45       0.1678
     47  C          9.5230   73.1030   39.2680 C.2    45  LEU45       0.2434
     48  O          9.4340   71.9640   38.8060 O.2    45  LEU45      -0.2733
     49  CB        11.2910   74.5220   38.2290 C.3    45  LEU45       0.0284
     50  CG        12.7110   75.0790   38.2110 C.3    45  LEU45       0.0019
     51  CD1       12.9820   75.7670   36.8750 C.3    45  LEU45       0.0001
     52  CD2       12.9290   76.0450   39.3670 C.3    45  LEU45       0.0001
     53  N          8.4470   73.8280   39.6080 N.am   46  PRO46      -0.2718
     54  CA         7.1130   73.2870   39.3320 C.3    46  PRO46       0.1535
     55  C          6.8480   73.2840   37.8370 C.2    46  PRO46       0.2599
     56  O          7.3080   74.1790   37.1190 O.2    46  PRO46      -0.2715
     57  CB         6.1790   74.2770   40.0350 C.3    46  PRO46       0.0310
     58  CG         6.9480   75.5560   40.0730 C.3    46  PRO46       0.0237
     59  CD         8.3870   75.1500   40.2580 C.3    46  PRO46       0.0939
     60  N          6.1220   72.2780   37.3690 N.am   47  SER47      -0.1936
     61  CA         5.7910   72.1970   35.9560 C.3    47  SER47       0.2055
     62  C          4.3340   71.8070   35.7580 C.2    47  SER47       0.2644
     63  O          3.7850   71.0000   36.5110 O.2    47  SER47      -0.2714
     64  CB         6.7030   71.1930   35.2520 C.3    47  SER47       0.2130
     65  OG         6.4850   71.2040   33.8560 O.3    47  SER47      -0.2179
     66  N          3.7100   72.3930   34.7430 N.am   48  GLY48      -0.1939
     67  CA         2.3800   71.9830   34.3360 C.3    48  GLY48       0.2014
     68  C          2.3990   70.6410   33.6170 C.2    48  GLY48       0.2638
     69  O          1.5540   69.7880   33.8590 O.2    48  GLY48      -0.2714
     70  N          3.3740   70.4410   32.7380 N.am   49  GLU49      -0.1977
     71  CA         3.4420   69.2100   31.9560 C.3    49  GLU49       0.1602
     72  C          4.0450   68.0370   32.7400 C.2    49  GLU49       0.2287
     73  O          3.7450   66.8720   32.4580 O.2    49  GLU49      -0.2864
     74  CB         4.2300   69.4430   30.6610 C.3    49  GLU49       0.0415
     75  CG         4.2440   68.2520   29.7060 C.3    49  GLU49       0.1163
     76  CD         5.3470   68.3440   28.6670 C.2    49  GLU49       0.3649
     77  OE1        5.9460   69.4310   28.5310 O.co2  49  GLU49      -0.2457
     78  OE2        5.6190   67.3280   27.9920 O.co2  49  GLU49      -0.2457
     79  N         10.4640   69.6770   37.3020 N.3    53  LYS53      -0.1245
     80  CA        11.4080   69.6980   36.1950 C.3    53  LYS53       0.1561
     81  C         12.6790   70.4680   36.5130 C.2    53  LYS53       0.2260
     82  O         12.7160   71.2830   37.4450 O.2    53  LYS53      -0.2867
     83  CB        10.7710   70.3350   34.9700 C.3    53  LYS53       0.0271
     84  CG        10.6730   71.8460   35.0640 C.3    53  LYS53       0.0035
     85  CD         9.9130   72.3890   33.8700 C.3    53  LYS53       0.0206
     86  CE         9.8670   73.9040   33.9010 C.3    53  LYS53       0.1093
     87  NZ         9.3080   74.4540   32.6300 N.3    53  LYS53      -0.1314
     88  N         15.8670   72.8220   34.4720 N.3    55  LEU55      -0.1245
     89  CA        15.9210   73.7960   33.3930 C.3    55  LEU55       0.1561
     90  C         17.3320   74.3700   33.2910 C.2    55  LEU55       0.2260
     91  O         17.9130   74.7880   34.2980 O.2    55  LEU55      -0.2867
     92  CB        14.9310   74.9270   33.6830 C.3    55  LEU55       0.0270
     93  CG        14.7860   76.0840   32.6930 C.3    55  LEU55       0.0019
     94  CD1       14.1880   75.6120   31.3780 C.3    55  LEU55       0.0001
     95  CD2       13.9130   77.1720   33.3030 C.3    55  LEU55       0.0001
     96  N         19.7740   77.1010   31.1210 N.3    57  LYS57      -0.1245
     97  CA        19.8720   78.1660   30.1330 C.3    57  LYS57       0.1561
     98  C         21.3240   78.5150   29.9370 C.2    57  LYS57       0.2260
     99  O         22.0280   78.7840   30.9070 O.2    57  LYS57      -0.2867
    100  CB        19.1080   79.4080   30.6000 C.3    57  LYS57       0.0271
    101  CG        17.7200   79.1050   31.1050 C.3    57  LYS57       0.0035
    102  CD        16.8460   80.3440   31.1180 C.3    57  LYS57       0.0206
    103  CE        15.4390   79.9970   31.5740 C.3    57  LYS57       0.1093
    104  NZ        14.5050   81.1520   31.4250 N.3    57  LYS57      -0.1314
@<TRIPOS>BOND
     1    22    24   ar
     2    22    21   ar
     3    24    25   ar
     4    78    76   ar
     5     8     9    1
     6    77    76   ar
     7    12     9    1
     8    12    13    1
     9    11    10    2
    10    76    75    1
    11     9    10    1
    12    21    20    1
    13    21    23   ar
    14    15    13   ar
    15    25    23   ar
    16    10    16   am
    17    20    17    1
    18    13    14   ar
    19    75    74    1
    20    98    97    1
    21    98    99    2
    22    97   100    1
    23    97    96    1
    24    16    17    1
    25    19    18    2
    26    17    18    1
    27   100   101    1
    28    74    71    1
    29   101   102    1
    30   102   103    1
    31    94    93    1
    32   104   103    1
    33    71    70    1
    34    71    72    1
    35    73    72    2
    36    87    86    1
    37    93    95    1
    38    93    92    1
    39    70    68   am
    40    90    89    1
    41    90    91    2
    42    89    92    1
    43    89    88    1
    44    26    27    1
    45    68    69    2
    46    68    67    1
    47    29    28    2
    48    65    64    1
    49    85    86    1
    50    85    84    1
    51     4     3    2
    52    67    66    1
    53    30    31    1
    54    30    27    1
    55    30    32    1
    56    27    28    1
    57    66    62   am
    58    28    33   am
    59     3     2    1
    60    83    84    1
    61    83    80    1
    62    64    61    1
    63    38    40    1
    64    38    37    1
    65    62    61    1
    66    62    63    2
    67    61    60    1
    68    33    34    1
    69    80    81    1
    70    80    79    1
    71    34    37    1
    72    34    35    1
    73     2     5    1
    74     2     1    1
    75     5     7    1
    76     5     6    1
    77    81    82    2
    78    37    39    1
    79    51    50    1
    80    41    35   am
    81    41    42    1
    82    56    55    2
    83    44    43    2
    84    35    36    2
    85    60    55   am
    86    55    54    1
    87    42    43    1
    88    50    49    1
    89    50    52    1
    90    49    46    1
    91    48    47    2
    92    47    46    1
    93    47    53   am
    94    54    53    1
    95    54    57    1
    96    46    45    1
    97    53    59    1
    98    57    58    1
    99    58    59    1
