@<TRIPOS>MOLECULE
tmp/4kh2B04.pdb
 128 123 0 0 0
SMALL
GASTEIGER

@<TRIPOS>ATOM
      1  N          5.5990  -38.4160   22.5640 N.3    25  PHE25      -0.1227
      2  CA         5.3280  -39.8480   22.4230 C.3    25  PHE25       0.1736
      3  C          6.5930  -40.7020   22.3020 C.2    25  PHE25       0.2595
      4  O          7.6990  -40.1820   22.1680 O.2    25  PHE25      -0.2718
      5  CB         4.3650  -40.1270   21.2570 C.3    25  PHE25       0.0547
      6  CG         4.9780  -39.9630   19.8870 C.ar   25  PHE25      -0.0202
      7  CD1        5.5920  -41.0390   19.2470 C.ar   25  PHE25      -0.0042
      8  CD2        4.9080  -38.7450   19.2200 C.ar   25  PHE25      -0.0042
      9  CE1        6.1400  -40.8940   17.9790 C.ar   25  PHE25      -0.0003
     10  CE2        5.4490  -38.5950   17.9520 C.ar   25  PHE25      -0.0003
     11  CZ         6.0690  -39.6690   17.3310 C.ar   25  PHE25      -0.0000
     12  N          6.3990  -42.0190   22.3670 N.am   26  CYS26      -0.1970
     13  CA         7.4570  -43.0020   22.1950 C.3    26  CYS26       0.1712
     14  C          6.9920  -44.0540   21.1920 C.2    26  CYS26       0.2296
     15  O          5.9660  -44.7000   21.4110 O.2    26  CYS26      -0.2864
     16  CB         7.7980  -43.6550   23.5380 C.3    26  CYS26       0.0983
     17  SG         9.0040  -45.0070   23.4710 S.3    26  CYS26      -0.0798
     18  N          7.8510  -33.8890   21.9730 N.3    57  ARG57      -0.1245
     19  CA         8.9620  -34.6340   22.5720 C.3    57  ARG57       0.1563
     20  C          9.0000  -36.0820   22.0700 C.2    57  ARG57       0.2260
     21  O          8.1560  -36.8950   22.4340 O.2    57  ARG57      -0.2867
     22  CB         8.8240  -34.5900   24.0990 C.3    57  ARG57       0.0307
     23  CG        10.0900  -34.8680   24.8870 C.3    57  ARG57       0.0489
     24  CD         9.8550  -34.5800   26.3640 C.3    57  ARG57       0.2205
     25  NE        10.9520  -35.0690   27.1960 N.pl3  57  ARG57      -0.0865
     26  CZ        11.0030  -36.2830   27.7450 C.cat  57  ARG57       0.5346
     27  NH1       10.0150  -37.1480   27.5600 N.pl3  57  ARG57       0.1354
     28  NH2       12.0500  -36.6400   28.4770 N.pl3  57  ARG57       0.1354
     29  N         10.9140  -39.8000   21.3320 N.3    59  HIS59      -0.1241
     30  CA        11.9240  -40.8030   21.6900 C.3    59  HIS59       0.1621
     31  C         12.5800  -41.4120   20.4600 C.2    59  HIS59       0.2264
     32  O         12.0160  -41.3760   19.3560 O.2    59  HIS59      -0.2867
     33  CB        11.2780  -41.9380   22.4830 C.3    59  HIS59       0.0745
     34  CG        10.9940  -41.6090   23.9160 C.ar   59  HIS59       0.0817
     35  ND1       10.8230  -40.3190   24.3680 N.ar   59  HIS59      -0.2268
     36  CD2       10.8200  -42.4120   24.9920 C.ar   59  HIS59       0.1154
     37  CE1       10.5720  -40.3410   25.6670 C.ar   59  HIS59       0.1986
     38  NE2       10.5590  -41.5990   26.0680 N.ar   59  HIS59      -0.2212
     39  N         15.9920  -40.1180   27.4360 N.3   146  ASN146     -0.1225
     40  CA        14.8490  -40.1630   28.3460 C.3   146  ASN146      0.1785
     41  C         15.0580  -41.0770   29.5510 C.2   146  ASN146      0.2597
     42  O         15.4800  -42.2240   29.4070 O.2   146  ASN146     -0.2718
     43  CB        13.5680  -40.5700   27.6160 C.3   146  ASN146      0.1169
     44  CG        12.3700  -40.6380   28.5470 C.2   146  ASN146      0.2627
     45  OD1       11.9340  -39.6220   29.0940 O.2   146  ASN146     -0.2716
     46  ND2       11.8370  -41.8400   28.7420 N.am  146  ASN146     -0.0877
     47  N         14.7510  -40.5460   30.7320 N.am  147  GLU147     -0.1979
     48  CA        14.7330  -41.3160   31.9850 C.3   147  GLU147      0.1602
     49  C         15.9710  -42.1830   32.1870 C.2   147  GLU147      0.2287
     50  O         15.8980  -43.4110   32.1010 O.2   147  GLU147     -0.2864
     51  CB        13.4560  -42.1530   32.0850 C.3   147  GLU147      0.0415
     52  CG        12.1910  -41.3120   32.1540 C.3   147  GLU147      0.1163
     53  CD        10.9420  -42.1160   32.4640 C.2   147  GLU147      0.3649
     54  OE1       10.9660  -43.3570   32.3230 O.co2 147  GLU147     -0.2457
     55  OE2        9.9260  -41.4990   32.8440 O.co2 147  GLU147     -0.2457
     56  N          4.5290  -37.5000   37.8930 N.3   229  LYS229     -0.1245
     57  CA         3.1280  -37.7960   37.6240 C.3   229  LYS229      0.1561
     58  C          2.2740  -37.6530   38.8840 C.2   229  LYS229      0.2260
     59  O          2.8060  -37.5160   39.9900 O.2   229  LYS229     -0.2867
     60  CB         2.9830  -39.1740   36.9850 C.3   229  LYS229      0.0271
     61  CG         4.0890  -39.4710   35.9940 C.3   229  LYS229      0.0035
     62  CD         3.5280  -39.7380   34.6160 C.3   229  LYS229      0.0206
     63  CE         4.5960  -40.3120   33.7030 C.3   229  LYS229      0.1093
     64  NZ         4.1780  -40.2700   32.2760 N.3   229  LYS229     -0.1314
     65  N          7.0090  -34.6950   31.2940 N.3   264  GLU264     -0.1245
     66  CA         5.8530  -35.6100   31.3570 C.3   264  GLU264      0.1567
     67  C          5.0990  -35.4400   32.6900 C.2   264  GLU264      0.2260
     68  O          5.3660  -36.1190   33.6930 O.2   264  GLU264     -0.2867
     69  CB         6.1650  -37.0820   30.9860 C.3   264  GLU264      0.0388
     70  CG         7.2880  -37.7580   31.7390 C.3   264  GLU264      0.1160
     71  CD         7.2280  -39.2840   31.7210 C.2   264  GLU264      0.3649
     72  OE1        7.3690  -39.8810   32.7810 O.co2 264  GLU264     -0.2457
     73  OE2        7.0200  -40.0280   30.4770 O.co2 264  GLU264     -0.2457
     74  N          0.7680  -42.4100   35.4070 N.3   269  VAL269     -0.1231
     75  CA         1.8110  -43.1080   34.6520 C.3   269  VAL269      0.1692
     76  C          1.2060  -44.2900   33.8610 C.2   269  VAL269      0.2593
     77  O          0.2410  -44.9170   34.3060 O.2   269  VAL269     -0.2718
     78  CB         2.9880  -43.5320   35.5870 C.3   269  VAL269      0.0266
     79  CG1        2.5730  -44.6360   36.5520 C.3   269  VAL269      0.0020
     80  CG2        4.2250  -43.9470   34.8000 C.3   269  VAL269      0.0020
     81  N          1.7460  -44.5560   32.6720 N.am  270  GLY270     -0.1942
     82  CA         1.3100  -45.6970   31.8630 C.3   270  GLY270      0.2014
     83  C          0.2250  -45.3370   30.8690 C.2   270  GLY270      0.2638
     84  O         -0.9670  -45.5080   31.1400 O.2   270  GLY270     -0.2714
     85  N          0.6410  -44.8590   29.7000 N.am  271  TRP271     -0.1973
     86  CA        -0.2930  -44.2870   28.7310 C.3   271  TRP271      0.1640
     87  C         -1.2790  -45.3010   28.1710 C.2   271  TRP271      0.2290
     88  O         -2.4470  -44.9720   27.9270 O.2   271  TRP271     -0.2864
     89  CB         0.4680  -43.6230   27.5900 C.3   271  TRP271      0.0576
     90  CG         1.1110  -44.5870   26.6560 C.ar  271  TRP271      0.0006
     91  CD1        2.3540  -45.1280   26.7710 C.ar  271  TRP271      0.0946
     92  CD2        0.5400  -45.1340   25.4590 C.ar  271  TRP271      0.0152
     93  NE1        2.6010  -45.9740   25.7130 N.ar  271  TRP271     -0.2442
     94  CE2        1.5040  -45.9980   24.8950 C.ar  271  TRP271      0.0810
     95  CE3       -0.6930  -44.9780   24.8100 C.ar  271  TRP271      0.0012
     96  CZ2        1.2820  -46.7000   23.7050 C.ar  271  TRP271      0.0191
     97  CZ3       -0.9160  -45.6810   23.6160 C.ar  271  TRP271      0.0001
     98  CH2        0.0670  -46.5320   23.0850 C.ar  271  TRP271      0.0015
     99  N          2.2830  -35.9250   28.1210 N.3   314  ASP314     -0.1239
    100  CA         2.8590  -36.8990   27.2150 C.3   314  ASP314      0.1674
    101  C          1.7570  -37.7420   26.5920 C.2   314  ASP314      0.2266
    102  O          1.5630  -38.9020   26.9680 O.2   314  ASP314     -0.2867
    103  CB         3.8760  -37.7640   27.9640 C.3   314  ASP314      0.1410
    104  CG         4.9870  -38.2850   27.0620 C.2   314  ASP314      0.3668
    105  OD1        5.4730  -37.5250   26.1980 O.co2 314  ASP314     -0.2456
    106  OD2        5.3830  -39.4570   27.2330 O.co2 314  ASP314     -0.2456
    107  N          0.7230  -40.2270   21.7170 N.3   317  PHE317     -0.1241
    108  CA         0.6450  -41.6340   21.3410 C.3   317  PHE317      0.1605
    109  C         -0.5900  -41.9130   20.4880 C.2   317  PHE317      0.2264
    110  O         -1.5980  -41.2060   20.5850 O.2   317  PHE317     -0.2867
    111  CB         0.5730  -42.5150   22.5930 C.3   317  PHE317      0.0534
    112  CG         1.7770  -42.4240   23.4890 C.ar  317  PHE317     -0.0203
    113  CD1        2.8880  -43.2300   23.2690 C.ar  317  PHE317     -0.0042
    114  CD2        1.7870  -41.5560   24.5780 C.ar  317  PHE317     -0.0042
    115  CE1        3.9940  -43.1560   24.1050 C.ar  317  PHE317     -0.0003
    116  CE2        2.8920  -41.4800   25.4180 C.ar  317  PHE317     -0.0003
    117  CZ         3.9970  -42.2800   25.1800 C.ar  317  PHE317     -0.0000
    118  N         -4.0770  -42.7850   26.9990 N.3   328  ARG328     -0.1245
    119  CA        -3.6820  -41.3850   27.1950 C.3   328  ARG328      0.1563
    120  C         -3.1690  -40.8120   25.8820 C.2   328  ARG328      0.2260
    121  O         -1.9640  -40.7370   25.6540 O.2   328  ARG328     -0.2867
    122  CB        -2.6220  -41.2450   28.2930 C.3   328  ARG328      0.0307
    123  CG        -2.4390  -39.8200   28.7910 C.3   328  ARG328      0.0489
    124  CD        -0.9800  -39.4940   29.0770 C.3   328  ARG328      0.2205
    125  NE        -0.4220  -40.3070   30.1520 N.pl3 328  ARG328     -0.0865
    126  CZ         0.8380  -40.7380   30.2020 C.cat 328  ARG328      0.5346
    127  NH1        1.7050  -40.4420   29.2340 N.pl3 328  ARG328      0.1354
    128  NH2        1.2350  -41.4750   31.2270 N.pl3 328  ARG328      0.1354
@<TRIPOS>BOND
     1    11    10   ar
     2    11     9   ar
     3    10     8   ar
     4     9     7   ar
     5     8     6   ar
     6     7     6   ar
     7    32    31    2
     8     6     5    1
     9    31    30    1
    10   109   110    2
    11   109   108    1
    12    14    15    2
    13    14    13    1
    14     5     2    1
    15    29    30    1
    16   108   107    1
    17   108   111    1
    18    30    33    1
    19    18    19    1
    20    20    21    2
    21    20    19    1
    22     4     3    2
    23    13    12    1
    24    13    16    1
    25     3    12   am
    26     3     2    1
    27     2     1    1
    28    33    34    1
    29    19    22    1
    30   111   112    1
    31    98    97   ar
    32    98    96   ar
    33   113   112   ar
    34   113   115   ar
    35    17    16    1
    36   112   114   ar
    37    97    95   ar
    38    96    94   ar
    39    34    35   ar
    40    34    36   ar
    41    22    23    1
    42   115   117   ar
    43    35    37   ar
    44   114   116   ar
    45    95    92   ar
    46    23    24    1
    47    94    92   ar
    48    94    93   ar
    49    36    38   ar
    50   117   116   ar
    51    92    90   ar
    52   121   120    2
    53    37    38   ar
    54    93    91   ar
    55   120   119    1
    56   105   104   ar
    57    24    25    1
    58   101   102    2
    59   101   100    1
    60    90    91   ar
    61    90    89    1
    62   118   119    1
    63   104   106   ar
    64   104   103    1
    65   119   122    1
    66    25    26    2
    67   100   103    1
    68   100    99    1
    69    39    40    1
    70    27    26    1
    71    89    86    1
    72    43    40    1
    73    43    44    1
    74    26    28    1
    75    88    87    2
    76    87    86    1
    77   122   123    1
    78    40    41    1
    79    44    46   am
    80    44    45    2
    81    86    85    1
    82   123   124    1
    83   124   125    1
    84   127   126    1
    85    42    41    2
    86    41    47   am
    87    85    83   am
    88   125   126    2
    89   126   128    1
    90    73    71   ar
    91    47    48    1
    92    83    84    2
    93    83    82    1
    94    69    66    1
    95    69    70    1
    96    65    66    1
    97    66    67    1
    98    71    70    1
    99    71    72   ar
   100    82    81    1
   101    48    51    1
   102    48    49    1
   103    51    52    1
   104    50    49    2
   105    52    53    1
   106    64    63    1
   107    54    53   ar
   108    53    55   ar
   109    81    76   am
   110    67    68    2
   111    63    62    1
   112    76    77    2
   113    76    75    1
   114    62    61    1
   115    75    74    1
   116    75    78    1
   117    80    78    1
   118    78    79    1
   119    61    60    1
   120    60    57    1
   121    57    56    1
   122    57    58    1
   123    58    59    2
