@<TRIPOS>MOLECULE
tmp/4kh4A00.pdb
 135 127 0 0 0
SMALL
GASTEIGER

@<TRIPOS>ATOM
      1  N        -17.3680  -28.4080  -42.3570 N.3    36  ASP36      -0.1239
      2  CA       -18.1640  -27.7010  -41.3600 C.3    36  ASP36       0.1674
      3  C        -17.9180  -28.3490  -40.0080 C.2    36  ASP36       0.2266
      4  O        -18.4860  -29.4050  -39.7100 O.2    36  ASP36      -0.2867
      5  CB       -19.6670  -27.7270  -41.7350 C.3    36  ASP36       0.1410
      6  CG       -20.5980  -26.8160  -40.9390 C.2    36  ASP36       0.3668
      7  OD1      -20.2450  -26.4450  -39.7930 O.co2  36  ASP36      -0.2456
      8  OD2      -21.6900  -26.4980  -41.4510 O.co2  36  ASP36      -0.2456
      9  N        -18.8640  -27.6730  -36.9470 N.3    38  GLY38      -0.1210
     10  CA       -19.8730  -27.0270  -36.1140 C.3    38  GLY38       0.1956
     11  C        -19.9550  -27.5310  -34.6880 C.2    38  GLY38       0.2613
     12  O        -19.0890  -28.2850  -34.2380 O.2    38  GLY38      -0.2717
     13  N        -21.0110  -27.1060  -33.9690 N.am   39  SER39      -0.1938
     14  CA       -21.2620  -27.4710  -32.5730 C.3    39  SER39       0.2055
     15  C        -21.7060  -28.9230  -32.4210 C.2    39  SER39       0.2643
     16  O        -21.0990  -29.6680  -31.6500 O.2    39  SER39      -0.2714
     17  CB       -22.2880  -26.5300  -31.9460 C.3    39  SER39       0.2130
     18  OG       -23.5890  -26.6940  -32.4910 O.3    39  SER39      -0.2179
     19  N        -22.7670  -29.3100  -33.1610 N.am   40  SER40      -0.1949
     20  CA       -23.3780  -30.6390  -33.1560 C.3    40  SER40       0.1924
     21  C        -22.4700  -31.7300  -33.7070 C.2    40  SER40       0.2314
     22  O        -22.4320  -32.8270  -33.1440 O.2    40  SER40      -0.2863
     23  CB       -24.6890  -30.6220  -33.9360 C.3    40  SER40       0.2116
     24  OG       -24.4870  -30.2220  -35.2820 O.3    40  SER40      -0.2180
     25  N        -18.6520  -32.3510  -40.2500 N.3    43  ARG43      -0.1245
     26  CA       -19.0360  -32.9870  -41.5110 C.3    43  ARG43       0.1563
     27  C        -18.3950  -32.3540  -42.7360 C.2    43  ARG43       0.2260
     28  O        -18.2340  -31.1310  -42.7970 O.2    43  ARG43      -0.2867
     29  CB       -20.5760  -33.0930  -41.6650 C.3    43  ARG43       0.0307
     30  CG       -21.3460  -31.7740  -41.8040 C.3    43  ARG43       0.0489
     31  CD       -21.8220  -31.2300  -40.4700 C.3    43  ARG43       0.2205
     32  NE       -22.5300  -29.9570  -40.6230 N.pl3  43  ARG43      -0.0865
     33  CZ       -22.8080  -29.1250  -39.6230 C.cat  43  ARG43       0.5346
     34  NH1      -22.4270  -29.4130  -38.3830 N.pl3  43  ARG43       0.1354
     35  NH2      -23.4610  -27.9940  -39.8560 N.pl3  43  ARG43       0.1354
     36  N        -22.1250  -37.1140  -40.3830 N.3    74  ARG74      -0.1245
     37  CA       -21.9260  -36.2470  -39.2240 C.3    74  ARG74       0.1563
     38  C        -21.0840  -36.9100  -38.1280 C.2    74  ARG74       0.2260
     39  O        -21.6060  -37.6430  -37.2850 O.2    74  ARG74      -0.2867
     40  CB       -23.2690  -35.6960  -38.7110 C.3    74  ARG74       0.0307
     41  CG       -23.8740  -34.6580  -39.6530 C.3    74  ARG74       0.0489
     42  CD       -25.1460  -34.0330  -39.1140 C.3    74  ARG74       0.2205
     43  NE       -25.6080  -32.9420  -39.9770 N.pl3  74  ARG74      -0.0865
     44  CZ       -25.5740  -31.6530  -39.6490 C.cat  74  ARG74       0.5346
     45  NH1      -25.1210  -31.2740  -38.4590 N.pl3  74  ARG74       0.1354
     46  NH2      -26.0080  -30.7350  -40.5020 N.pl3  74  ARG74       0.1354
     47  N        -17.0650  -23.2470  -36.0170 N.3   154  THR154     -0.1203
     48  CA       -18.0360  -22.2140  -35.6710 C.3   154  THR154      0.1994
     49  C        -18.2230  -22.0650  -34.1480 C.2   154  THR154      0.2617
     50  O        -17.2200  -21.9540  -33.4380 O.2   154  THR154     -0.2717
     51  CB       -19.2910  -22.3120  -36.5570 C.3   154  THR154      0.1784
     52  OG1      -19.8540  -23.6160  -36.4360 O.3   154  THR154     -0.2211
     53  CG2      -18.9910  -22.0230  -38.0230 C.3   154  THR154      0.0376
     54  N        -19.4800  -22.0650  -33.6510 N.am  155  ALA155     -0.1979
     55  CA       -19.8180  -21.8860  -32.2360 C.3   155  ALA155      0.1597
     56  C        -19.3830  -23.0050  -31.2810 C.2   155  ALA155      0.2287
     57  O        -19.3120  -22.7680  -30.0740 O.2   155  ALA155     -0.2864
     58  CB       -21.3000  -21.6060  -32.0830 C.3   155  ALA155      0.0319
     59  N        -19.0310  -15.9440  -40.1570 N.3   202  GLU202     -0.1245
     60  CA       -20.0010  -17.0230  -40.3510 C.3   202  GLU202      0.1567
     61  C        -21.2860  -16.4580  -40.9740 C.2   202  GLU202      0.2260
     62  O        -21.8320  -17.0480  -41.9070 O.2   202  GLU202     -0.2867
     63  CB       -20.2970  -17.7290  -39.0140 C.3   202  GLU202      0.0388
     64  CG       -21.0270  -19.0560  -39.1670 C.3   202  GLU202      0.1160
     65  CD       -21.6240  -19.6640  -37.9100 C.2   202  GLU202      0.3649
     66  OE1      -22.6240  -20.4080  -38.0380 O.co2 202  GLU202     -0.2457
     67  OE2      -21.0840  -19.4260  -36.8050 O.co2 202  GLU202     -0.2457
     68  N        -29.8130  -17.0230  -39.8080 N.3   243  GLU243     -0.1231
     69  CA       -29.4590  -18.4390  -39.7090 C.3   243  GLU243      0.1699
     70  C        -29.4410  -18.8700  -38.2480 C.2   243  GLU243      0.2592
     71  O        -28.7180  -18.2730  -37.4520 O.2   243  GLU243     -0.2718
     72  CB       -28.0990  -18.6910  -40.3870 C.3   243  GLU243      0.0402
     73  CG       -27.8040  -20.1480  -40.6920 C.3   243  GLU243      0.1161
     74  CD       -26.4590  -20.3930  -41.3480 C.2   243  GLU243      0.3649
     75  OE1      -25.6670  -21.1980  -40.8060 O.co2 243  GLU243     -0.2457
     76  OE2      -26.2010  -19.7870  -42.4120 O.co2 243  GLU243     -0.2457
     77  N        -30.2840  -19.8580  -37.8830 N.am  244  VAL244     -0.1966
     78  CA       -30.3750  -20.3740  -36.5100 C.3   244  VAL244      0.1727
     79  C        -29.7850  -21.7840  -36.4750 C.2   244  VAL244      0.2617
     80  O        -30.4530  -22.7520  -36.8440 O.2   244  VAL244     -0.2715
     81  CB       -31.8110  -20.2890  -35.9250 C.3   244  VAL244      0.0290
     82  CG1      -31.8590  -20.8290  -34.5000 C.3   244  VAL244      0.0023
     83  CG2      -32.3330  -18.8550  -35.9660 C.3   244  VAL244      0.0023
     84  N        -28.5210  -21.8710  -36.0730 N.am  245  GLY245     -0.1940
     85  CA       -27.7780  -23.1250  -36.0030 C.3   245  GLY245      0.2014
     86  C        -28.0820  -23.9460  -34.7700 C.2   245  GLY245      0.2639
     87  O        -29.1920  -23.8790  -34.2350 O.2   245  GLY245     -0.2714
     88  N        -27.0970  -24.7290  -34.3410 N.am  246  GLY246     -0.1939
     89  CA       -27.2000  -25.5670  -33.1540 C.3   246  GLY246      0.2014
     90  C        -26.8930  -24.8150  -31.8740 C.2   246  GLY246      0.2639
     91  O        -27.6020  -24.9710  -30.8780 O.2   246  GLY246     -0.2714
     92  N        -25.8310  -23.9810  -31.9010 N.am  247  ALA247     -0.1963
     93  CA       -25.3660  -23.2000  -30.7550 C.3   247  ALA247      0.1728
     94  C        -25.5080  -21.6800  -30.8930 C.2   247  ALA247      0.2616
     95  O        -25.7050  -21.0010  -29.8780 O.2   247  ALA247     -0.2715
     96  CB       -23.9300  -23.5640  -30.4270 C.3   247  ALA247      0.0334
     97  N        -25.4110  -21.1460  -32.1310 N.am  248  SER248     -0.1950
     98  CA       -25.5110  -19.7070  -32.3970 C.3   248  SER248      0.1924
     99  C        -26.4730  -19.3350  -33.5260 C.2   248  SER248      0.2314
    100  O        -26.7390  -20.1460  -34.4160 O.2   248  SER248     -0.2863
    101  CB       -24.1310  -19.1040  -32.6520 C.3   248  SER248      0.2116
    102  OG       -23.5250  -19.6490  -33.8120 O.3   248  SER248     -0.2180
    103  N        -30.4520  -23.7100  -31.8410 N.3   295  MET295     -0.1245
    104  CA       -31.4340  -24.7340  -31.4660 C.3   295  MET295      0.1570
    105  C        -31.2440  -25.5100  -30.1600 C.2   295  MET295      0.2261
    106  O        -32.1930  -25.5990  -29.3750 O.2   295  MET295     -0.2867
    107  CB       -31.7790  -25.6580  -32.6450 C.3   295  MET295      0.0387
    108  CG       -32.5640  -24.9690  -33.7620 C.3   295  MET295      0.0595
    109  SD       -33.8370  -23.7610  -33.2560 S.3   295  MET295     -0.1393
    110  CE       -34.9070  -24.7920  -32.2170 C.3   295  MET295      0.0692
    111  N        -33.4030  -25.5420  -39.7640 N.3   458  ARG458     -0.1245
    112  CA       -34.2640  -26.7300  -39.7850 C.3   458  ARG458      0.1563
    113  C        -35.6000  -26.4890  -39.0580 C.2   458  ARG458      0.2260
    114  O        -36.6610  -26.6340  -39.6710 O.2   458  ARG458     -0.2867
    115  CB       -33.5200  -27.9300  -39.1780 C.3   458  ARG458      0.0307
    116  CG       -34.0990  -29.3040  -39.5400 C.3   458  ARG458      0.0489
    117  CD       -34.2600  -30.2760  -38.3660 C.3   458  ARG458      0.2205
    118  NE       -32.9970  -30.6420  -37.7130 N.pl3 458  ARG458     -0.0865
    119  CZ       -32.8980  -31.2540  -36.5330 C.cat 458  ARG458      0.5346
    120  NH1      -33.9890  -31.5380  -35.8320 N.pl3 458  ARG458      0.1354
    121  NH2      -31.7080  -31.5450  -36.0260 N.pl3 458  ARG458      0.1354
    122  N        -22.7420  -20.9130  -44.6520 N.3   563  TRP563     -0.1241
    123  CA       -21.4570  -20.2410  -44.8830 C.3   563  TRP563      0.1605
    124  C        -20.5080  -20.9660  -45.8620 C.2   563  TRP563      0.2264
    125  O        -19.4910  -20.3900  -46.2540 O.2   563  TRP563     -0.2867
    126  CB       -20.7600  -19.9340  -43.5460 C.3   563  TRP563      0.0550
    127  CG       -20.5310  -21.1430  -42.6900 C.ar  563  TRP563      0.0003
    128  CD1      -21.3480  -21.6180  -41.7070 C.ar  563  TRP563      0.0946
    129  CD2      -19.4250  -22.0480  -42.7660 C.ar  563  TRP563      0.0152
    130  NE1      -20.8070  -22.7500  -41.1480 N.ar  563  TRP563     -0.2442
    131  CE2      -19.6250  -23.0380  -41.7800 C.ar  563  TRP563      0.0810
    132  CE3      -18.2680  -22.1090  -43.5610 C.ar  563  TRP563      0.0012
    133  CZ2      -18.7100  -24.0730  -41.5620 C.ar  563  TRP563      0.0191
    134  CZ3      -17.3700  -23.1420  -43.3520 C.ar  563  TRP563      0.0001
    135  CH2      -17.6010  -24.1180  -42.3730 C.ar  563  TRP563      0.0015
@<TRIPOS>BOND
     1   125   124    2
     2   124   123    1
     3   123   122    1
     4   123   126    1
     5   132   134   ar
     6   132   129   ar
     7   126   127    1
     8   134   135   ar
     9    28    27    2
    10   129   127   ar
    11   129   131   ar
    12    27    26    1
    13   127   128   ar
    14    76    74   ar
    15   135   133   ar
    16     1     2    1
    17    62    61    2
    18    30    29    1
    19    30    31    1
    20   131   133   ar
    21   131   130   ar
    22     5     2    1
    23     5     6    1
    24   128   130   ar
    25    29    26    1
    26    26    25    1
    27     8     6   ar
    28     2     3    1
    29    74    75   ar
    30    74    73    1
    31    61    60    1
    32     6     7   ar
    33    73    72    1
    34    32    31    1
    35    32    33    2
    36    46    44    1
    37    72    69    1
    38    36    37    1
    39    60    59    1
    40    60    63    1
    41     3     4    2
    42    43    44    2
    43    43    42    1
    44    35    33    1
    45    68    69    1
    46   112   111    1
    47   112   115    1
    48   112   113    1
    49    69    70    1
    50   114   113    2
    51    41    42    1
    52    41    40    1
    53    44    45    1
    54    33    34    1
    55   116   115    1
    56   116   117    1
    57    37    40    1
    58    37    38    1
    59    64    63    1
    60    64    65    1
    61   117   118    1
    62    70    77   am
    63    70    71    2
    64    38    39    2
    65    66    65   ar
    66    53    51    1
    67    65    67   ar
    68    77    78    1
    69   118   119    2
    70     9    10    1
    71    80    79    2
    72    51    52    1
    73    51    48    1
    74   119   121    1
    75   119   120    1
    76    78    79    1
    77    78    81    1
    78    79    84   am
    79    10    11    1
    80    84    85    1
    81    47    48    1
    82    85    86    1
    83    83    81    1
    84    81    82    1
    85    48    49    1
    86    24    23    1
    87    86    88   am
    88    86    87    2
    89    11    12    2
    90    11    13   am
    91   100    99    2
    92    88    89    1
    93    49    54   am
    94    49    50    2
    95    13    14    1
    96    23    20    1
    97   102   101    1
    98   108   109    1
    99   108   107    1
   100    21    20    1
   101    21    22    2
   102    54    55    1
   103    99    98    1
   104   109   110    1
   105    19    20    1
   106    19    15   am
   107    89    90    1
   108   101    98    1
   109   107   104    1
   110    14    15    1
   111    14    17    1
   112    18    17    1
   113    15    16    2
   114    98    97    1
   115    55    58    1
   116    55    56    1
   117    97    94   am
   118    92    90   am
   119    92    93    1
   120    90    91    2
   121   103   104    1
   122   104   105    1
   123    56    57    2
   124    94    93    1
   125    94    95    2
   126    93    96    1
   127   105   106    2
