@<TRIPOS>MOLECULE
tmp/4kh6B00.pdb
 98 92 0 0 0
SMALL
GASTEIGER

@<TRIPOS>ATOM
      1  N         -4.2480   15.6560  -35.7190 N.3    37  ASP37      -0.1239
      2  CA        -4.5110   14.9310  -34.4970 C.3    37  ASP37       0.1674
      3  C         -5.7890   15.4980  -33.8920 C.2    37  ASP37       0.2266
      4  O         -5.7740   16.5930  -33.3250 O.2    37  ASP37      -0.2867
      5  CB        -3.3260   15.0980  -33.5360 C.3    37  ASP37       0.1410
      6  CG        -3.2720   14.1810  -32.3300 C.2    37  ASP37       0.3668
      7  OD1       -2.1540   13.8650  -31.8830 O.co2  37  ASP37      -0.2456
      8  OD2       -4.3510   13.7970  -31.8170 O.co2  37  ASP37      -0.2456
      9  N         -7.5300   14.9190  -31.1510 N.3    39  GLY39      -0.1210
     10  CA        -7.5010   14.3340  -29.8110 C.3    39  GLY39       0.1956
     11  C         -8.5800   14.8390  -28.8730 C.2    39  GLY39       0.2613
     12  O         -9.4280   15.6460  -29.2700 O.2    39  GLY39      -0.2717
     13  N         -8.5360   14.3860  -27.6100 N.am   40  SER40      -0.1938
     14  CA        -9.5330   14.6980  -26.5740 C.3    40  SER40       0.2055
     15  C         -9.5240   16.1280  -26.0690 C.2    40  SER40       0.2643
     16  O        -10.5920   16.7060  -25.8580 O.2    40  SER40      -0.2714
     17  CB        -9.4020   13.7420  -25.3930 C.3    40  SER40       0.2130
     18  OG        -8.1930   13.9710  -24.6860 O.3    40  SER40      -0.2179
     19  N         -8.3190   16.6860  -25.8610 N.am   41  SER41      -0.1949
     20  CA        -8.1060   18.0550  -25.3750 C.3    41  SER41       0.1924
     21  C         -8.1060   19.0990  -26.5030 C.2    41  SER41       0.2314
     22  O         -8.4210   20.2590  -26.2490 O.2    41  SER41      -0.2863
     23  CB        -6.7820   18.1310  -24.6190 C.3    41  SER41       0.2116
     24  OG        -5.7170   17.6390  -25.4210 O.3    41  SER41      -0.2180
     25  N         -5.0200   19.5100  -33.4780 N.3    44  ARG44      -0.1245
     26  CA        -3.7860   20.1790  -33.8460 C.3    44  ARG44       0.1563
     27  C         -3.2070   19.5750  -35.1220 C.2    44  ARG44       0.2260
     28  O         -3.3340   18.3650  -35.3400 O.2    44  ARG44      -0.2867
     29  CB        -2.7780   20.1620  -32.6510 C.3    44  ARG44       0.0307
     30  CG        -2.0090   18.8540  -32.5010 C.3    44  ARG44       0.0489
     31  CD        -2.1210   18.1710  -31.1570 C.3    44  ARG44       0.2205
     32  NE        -3.4670   17.6950  -30.8280 N.pl3  44  ARG44      -0.0865
     33  CZ        -3.7350   16.6970  -29.9850 C.cat  44  ARG44       0.5346
     34  NH1       -2.7500   16.0070  -29.4250 N.pl3  44  ARG44       0.1354
     35  NH2       -4.9870   16.3710  -29.7130 N.pl3  44  ARG44       0.1354
     36  N         -9.2880   10.2150  -31.9840 N.3   155  THR155     -0.1203
     37  CA        -8.9360    9.2600  -30.9460 C.3   155  THR155      0.1994
     38  C        -10.0060    9.2330  -29.8260 C.2   155  THR155      0.2617
     39  O        -11.2000    9.3100  -30.1330 O.2   155  THR155     -0.2717
     40  CB        -7.4440    9.4160  -30.5550 C.3   155  THR155      0.1784
     41  OG1       -7.2160   10.7250  -30.0650 O.3   155  THR155     -0.2211
     42  CG2       -6.4900    9.1740  -31.7320 C.3   155  THR155      0.0376
     43  N         -9.5940    9.0910  -28.5500 N.am  156  ALA156     -0.1979
     44  CA       -10.4710    8.9590  -27.3770 C.3   156  ALA156      0.1597
     45  C        -11.5470   10.0110  -27.0990 C.2   156  ALA156      0.2287
     46  O        -12.5500    9.6810  -26.4710 O.2   156  ALA156     -0.2864
     47  CB        -9.6480    8.6880  -26.1370 C.3   156  ALA156      0.0319
     48  N         -4.6370    2.9690  -32.8290 N.3   203  GLU203     -0.1245
     49  CA        -3.8810    4.0470  -32.1970 C.3   203  GLU203      0.1567
     50  C         -2.5810    3.5030  -31.5380 C.2   203  GLU203      0.2260
     51  O         -1.5100    4.0700  -31.7380 O.2   203  GLU203     -0.2867
     52  CB        -4.7810    4.7470  -31.1820 C.3   203  GLU203      0.0388
     53  CG        -4.1680    6.0000  -30.5910 C.3   203  GLU203      0.1160
     54  CD        -5.0900    6.7270  -29.6520 C.2   203  GLU203      0.3649
     55  OE1       -4.6630    7.7760  -29.1290 O.co2 203  GLU203     -0.2457
     56  OE2       -6.2450    6.2800  -29.4620 O.co2 203  GLU203     -0.2457
     57  N         -1.9880    9.1390  -22.7800 N.3   246  GLY246     -0.1210
     58  CA        -2.3790   10.4450  -23.3010 C.3   246  GLY246      0.1956
     59  C         -3.2760   11.2130  -22.3530 C.2   246  GLY246      0.2612
     60  O         -3.2510   10.9850  -21.1370 O.2   246  GLY246     -0.2717
     61  N         -4.0900   12.0910  -22.9140 N.am  247  GLY247     -0.1942
     62  CA        -5.0260   12.8990  -22.1410 C.3   247  GLY247      0.2014
     63  C         -6.2790   12.1630  -21.7190 C.2   247  GLY247      0.2639
     64  O         -6.7570   12.3650  -20.6020 O.2   247  GLY247     -0.2714
     65  N         -6.8220   11.2980  -22.6030 N.am  248  ALA248     -0.1963
     66  CA        -8.0510   10.5260  -22.3470 C.3   248  ALA248      0.1728
     67  C         -7.8720    9.0290  -22.2390 C.2   248  ALA248      0.2616
     68  O         -8.5940    8.4150  -21.4630 O.2   248  ALA248     -0.2715
     69  CB        -9.1190   10.8360  -23.3740 C.3   248  ALA248      0.0334
     70  N         -6.9430    8.4250  -23.0050 N.am  249  SER249     -0.1950
     71  CA        -6.7440    6.9720  -22.9260 C.3   249  SER249      0.1924
     72  C         -5.2740    6.5910  -22.8000 C.2   249  SER249      0.2314
     73  O         -4.3820    7.4440  -22.9340 O.2   249  SER249     -0.2863
     74  CB        -7.4110    6.2580  -24.1020 C.3   249  SER249      0.2116
     75  OG        -6.8530    6.6250  -25.3500 O.3   249  SER249     -0.2180
     76  N         -2.5900    3.4020  -24.0430 N.3   251  GLN251     -0.1245
     77  CA        -2.3900    2.2620  -24.9410 C.3   251  GLN251      0.1566
     78  C         -1.2470    1.3990  -24.4280 C.2   251  GLN251      0.2260
     79  O         -0.2400    1.9280  -23.9700 O.2   251  GLN251     -0.2867
     80  CB        -2.1250    2.7230  -26.3900 C.3   251  GLN251      0.0367
     81  CG        -3.3690    3.2310  -27.1520 C.3   251  GLN251      0.0905
     82  CD        -3.8890    4.5660  -26.6930 C.2   251  GLN251      0.2608
     83  OE1       -5.0540    4.6910  -26.2650 O.2   251  GLN251     -0.2717
     84  NE2       -3.0280    5.5860  -26.7320 N.am  251  GLN251     -0.0878
     85  N          1.1540    8.1110  -32.5440 N.3   567  TRP567     -0.1241
     86  CA         0.5400    7.4330  -33.6770 C.3   567  TRP567      0.1605
     87  C          0.7070    8.0700  -35.0610 C.2   567  TRP567      0.2264
     88  O          0.3740    7.4230  -36.0520 O.2   567  TRP567     -0.2867
     89  CB        -0.9460    7.1540  -33.3890 C.3   567  TRP567      0.0550
     90  CG        -1.7840    8.3850  -33.1830 C.ar  567  TRP567      0.0003
     91  CD1       -2.1770    8.9140  -31.9900 C.ar  567  TRP567      0.0946
     92  CD2       -2.3700    9.2150  -34.2050 C.ar  567  TRP567      0.0152
     93  NE1       -2.9990    9.9880  -32.1990 N.ar  567  TRP567     -0.2442
     94  CE2       -3.1040   10.2240  -33.5510 C.ar  567  TRP567      0.0810
     95  CE3       -2.3770    9.1810  -35.6110 C.ar  567  TRP567      0.0012
     96  CZ2       -3.8270   11.2060  -34.2540 C.ar  567  TRP567      0.0191
     97  CZ3       -3.0680   10.1610  -36.3010 C.ar  567  TRP567      0.0001
     98  CH2       -3.7880   11.1560  -35.6300 C.ar  567  TRP567      0.0015
@<TRIPOS>BOND
     1    97    98   ar
     2    97    95   ar
     3    88    87    2
     4     1     2    1
     5    98    96   ar
     6    95    92   ar
     7    28    27    2
     8    27    26    1
     9    87    86    1
    10     2     3    1
    11     2     5    1
    12    96    94   ar
    13    92    94   ar
    14    92    90   ar
    15     3     4    2
    16    26    25    1
    17    26    29    1
    18    86    89    1
    19    86    85    1
    20    94    93   ar
    21     5     6    1
    22    89    90    1
    23    90    91   ar
    24    48    49    1
    25    29    30    1
    26    30    31    1
    27     6     7   ar
    28     6     8   ar
    29    93    91   ar
    30    49    50    1
    31    49    52    1
    32    36    37    1
    33    51    50    2
    34    42    40    1
    35    52    53    1
    36    31    32    1
    37     9    10    1
    38    37    40    1
    39    37    38    1
    40    32    33    2
    41    53    54    1
    42    40    41    1
    43    39    38    2
    44    33    35    1
    45    33    34    1
    46    38    43   am
    47    10    11    1
    48    54    56   ar
    49    54    55   ar
    50    12    11    2
    51    11    13   am
    52    43    44    1
    53    13    14    1
    54    44    45    1
    55    44    47    1
    56    81    82    1
    57    81    80    1
    58    45    46    2
    59    84    82   am
    60    82    83    2
    61    14    15    1
    62    14    17    1
    63    21    22    2
    64    21    20    1
    65    80    77    1
    66    15    19   am
    67    15    16    2
    68    19    20    1
    69    24    23    1
    70    17    18    1
    71    20    23    1
    72    75    74    1
    73    77    78    1
    74    77    76    1
    75    78    79    2
    76    74    71    1
    77    69    66    1
    78    58    57    1
    79    58    59    1
    80    70    71    1
    81    70    67   am
    82    73    72    2
    83    71    72    1
    84    61    59   am
    85    61    62    1
    86    65    66    1
    87    65    63   am
    88    59    60    2
    89    66    67    1
    90    67    68    2
    91    62    63    1
    92    63    64    2
