@<TRIPOS>MOLECULE
tmp/4kh6A00.pdb
 155 145 0 0 0
SMALL
GASTEIGER

@<TRIPOS>ATOM
      1  N        -17.4180  -29.2790  -42.3760 N.3    37  ASP37      -0.1239
      2  CA       -18.2470  -28.5510  -41.4340 C.3    37  ASP37       0.1674
      3  C        -17.9830  -29.1340  -40.0460 C.2    37  ASP37       0.2266
      4  O        -18.4530  -30.2290  -39.7370 O.2    37  ASP37      -0.2867
      5  CB       -19.7290  -28.7070  -41.8160 C.3    37  ASP37       0.1410
      6  CG       -20.7210  -27.7730  -41.1280 C.2    37  ASP37       0.3668
      7  OD1      -21.7550  -27.4580  -41.7480 O.co2  37  ASP37      -0.2456
      8  OD2      -20.4740  -27.3770  -39.9540 O.co2  37  ASP37      -0.2456
      9  N        -19.1160  -28.7400  -36.8950 N.3    39  GLY39      -0.1210
     10  CA       -20.2840  -28.2380  -36.1800 C.3    39  GLY39       0.1956
     11  C        -20.4000  -28.6330  -34.7320 C.2    39  GLY39       0.2613
     12  O        -19.5710  -29.3920  -34.2220 O.2    39  GLY39      -0.2717
     13  N        -21.4250  -28.0650  -34.0560 N.am   40  SER40      -0.1938
     14  CA       -21.7110  -28.3050  -32.6370 C.3    40  SER40       0.2055
     15  C        -22.0590  -29.7710  -32.3430 C.2    40  SER40       0.2643
     16  O        -21.5400  -30.3490  -31.3860 O.2    40  SER40      -0.2714
     17  CB       -22.7790  -27.3410  -32.1050 C.3    40  SER40       0.2130
     18  OG       -24.0660  -27.6150  -32.6400 O.3    40  SER40      -0.2179
     19  N        -22.8800  -30.3750  -33.1970 N.am   41  SER41      -0.1949
     20  CA       -23.3220  -31.7570  -33.0210 C.3    41  SER41       0.1924
     21  C        -22.4110  -32.8000  -33.7060 C.2    41  SER41       0.2314
     22  O        -22.4320  -33.9790  -33.3130 O.2    41  SER41      -0.2863
     23  CB       -24.7610  -31.9200  -33.5160 C.3    41  SER41       0.2116
     24  OG       -24.8860  -31.4490  -34.8480 O.3    41  SER41      -0.2180
     25  N        -18.7500  -33.1290  -40.4590 N.3    44  ARG44      -0.1245
     26  CA       -19.1770  -33.7530  -41.7160 C.3    44  ARG44       0.1563
     27  C        -18.4350  -33.1850  -42.9190 C.2    44  ARG44       0.2260
     28  O        -18.1940  -31.9670  -43.0000 O.2    44  ARG44      -0.2867
     29  CB       -20.7080  -33.6150  -41.9650 C.3    44  ARG44       0.0307
     30  CG       -21.5730  -33.1880  -40.7770 C.3    44  ARG44       0.0489
     31  CD       -21.8690  -31.6880  -40.7860 C.3    44  ARG44       0.2205
     32  NE       -22.0640  -31.1600  -39.4290 N.pl3  44  ARG44      -0.0865
     33  CZ       -22.7610  -30.0680  -39.1180 C.cat  44  ARG44       0.5346
     34  NH1      -23.3630  -29.3590  -40.0680 N.pl3  44  ARG44       0.1354
     35  NH2      -22.8840  -29.6920  -37.8530 N.pl3  44  ARG44       0.1354
     36  N        -22.1780  -38.0220  -40.3500 N.3    75  ARG75      -0.1245
     37  CA       -22.0580  -37.2320  -39.1210 C.3    75  ARG75       0.1563
     38  C        -21.0690  -37.9150  -38.1710 C.2    75  ARG75       0.2260
     39  O        -21.4250  -38.8560  -37.4610 O.2    75  ARG75      -0.2867
     40  CB       -23.4570  -37.1470  -38.4510 C.3    75  ARG75       0.0307
     41  CG       -24.2960  -35.9060  -38.7140 C.3    75  ARG75       0.0489
     42  CD       -24.4910  -35.4770  -40.1300 C.3    75  ARG75       0.2205
     43  NE       -25.0380  -34.1270  -40.1690 N.pl3  75  ARG75      -0.0865
     44  CZ       -25.3600  -33.4930  -41.2820 C.cat  75  ARG75       0.5346
     45  NH1      -25.1380  -34.0600  -42.4620 N.pl3  75  ARG75       0.1354
     46  NH2      -25.8640  -32.2650  -41.2310 N.pl3  75  ARG75       0.1354
     47  N        -17.4560  -23.8680  -36.0520 N.3   155  THR155     -0.1203
     48  CA       -18.4830  -22.8800  -35.7200 C.3   155  THR155      0.1994
     49  C        -18.7680  -22.8300  -34.1800 C.2   155  THR155      0.2617
     50  O        -17.8310  -22.9460  -33.4090 O.2   155  THR155     -0.2717
     51  CB       -19.6830  -23.0190  -36.6770 C.3   155  THR155      0.1784
     52  OG1      -20.2070  -24.3380  -36.5690 O.3   155  THR155     -0.2211
     53  CG2      -19.3140  -22.7440  -38.1180 C.3   155  THR155      0.0376
     54  N        -20.0290  -22.6490  -33.7460 N.am  156  ALA156     -0.1979
     55  CA       -20.4610  -22.5400  -32.3420 C.3   156  ALA156      0.1597
     56  C        -20.0720  -23.6270  -31.3240 C.2   156  ALA156      0.2287
     57  O        -19.9620  -23.2940  -30.1380 O.2   156  ALA156     -0.2864
     58  CB       -21.9300  -22.2270  -32.2560 C.3   156  ALA156      0.0319
     59  N        -30.8920  -20.2290  -38.0070 N.3   245  VAL245     -0.1231
     60  CA       -30.9520  -20.7960  -36.6570 C.3   245  VAL245      0.1692
     61  C        -30.4660  -22.2390  -36.7180 C.2   245  VAL245      0.2593
     62  O        -31.1660  -23.1230  -37.2390 O.2   245  VAL245     -0.2718
     63  CB       -32.3410  -20.6550  -35.9690 C.3   245  VAL245      0.0266
     64  CG1      -32.3300  -21.2750  -34.5630 C.3   245  VAL245      0.0020
     65  CG2      -32.8100  -19.1970  -35.9310 C.3   245  VAL245      0.0020
     66  N        -29.2540  -22.4590  -36.2340 N.am  246  GLY246     -0.1942
     67  CA       -28.6730  -23.8010  -36.2230 C.3   246  GLY246      0.2014
     68  C        -28.9210  -24.5400  -34.9190 C.2   246  GLY246      0.2639
     69  O        -29.8800  -24.2470  -34.1990 O.2   246  GLY246     -0.2714
     70  N        -28.0200  -25.4630  -34.6010 N.am  247  GLY247     -0.1939
     71  CA       -28.0520  -26.2580  -33.3860 C.3   247  GLY247      0.2014
     72  C        -27.6110  -25.5000  -32.1530 C.2   247  GLY247      0.2639
     73  O        -28.2370  -25.6360  -31.0970 O.2   247  GLY247     -0.2714
     74  N        -26.5570  -24.6660  -32.2860 N.am  248  ALA248     -0.1963
     75  CA       -25.9700  -23.9270  -31.1750 C.3   248  ALA248      0.1728
     76  C        -26.1110  -22.4160  -31.2370 C.2   248  ALA248      0.2616
     77  O        -26.2500  -21.7820  -30.1940 O.2   248  ALA248     -0.2715
     78  CB       -24.5050  -24.3320  -30.9960 C.3   248  ALA248      0.0334
     79  N        -26.0710  -21.8190  -32.4390 N.am  249  SER249     -0.1950
     80  CA       -26.1970  -20.3550  -32.5590 C.3   249  SER249      0.1924
     81  C        -27.1710  -19.9480  -33.6360 C.2   249  SER249      0.2314
     82  O        -27.6250  -20.7890  -34.4210 O.2   249  SER249     -0.2863
     83  CB       -24.8260  -19.6820  -32.7480 C.3   249  SER249      0.2116
     84  OG       -24.1970  -20.0630  -33.9640 O.3   249  SER249     -0.2180
     85  N        -31.0950  -24.2690  -31.7150 N.3   294  MET294     -0.1230
     86  CA       -32.1360  -25.2220  -31.3500 C.3   294  MET294      0.1702
     87  C        -31.8270  -25.9920  -30.0660 C.2   294  MET294      0.2592
     88  O        -32.5900  -25.8790  -29.1060 O.2   294  MET294     -0.2718
     89  CB       -32.3800  -26.1710  -32.5310 C.3   294  MET294      0.0401
     90  CG       -32.7850  -25.4550  -33.8200 C.3   294  MET294      0.0596
     91  SD       -34.3980  -24.6340  -33.7050 S.3   294  MET294     -0.1393
     92  CE       -35.4760  -26.1090  -33.3500 C.3   294  MET294      0.0692
     93  N        -30.6680  -26.6870  -30.0140 N.am  295  ALA295     -0.1980
     94  CA       -30.2080  -27.4580  -28.8470 C.3   295  ALA295      0.1597
     95  C        -29.8510  -26.5470  -27.6580 C.2   295  ALA295      0.2287
     96  O        -30.3570  -26.7470  -26.5500 O.2   295  ALA295     -0.2864
     97  CB       -29.0100  -28.3420  -29.2200 C.3   295  ALA295      0.0319
     98  N        -33.5280  -25.8040  -40.0480 N.3   457  ARG457     -0.1231
     99  CA       -34.4830  -26.9160  -40.0610 C.3   457  ARG457      0.1694
    100  C        -35.6830  -26.6760  -39.1700 C.2   457  ARG457      0.2592
    101  O        -36.8010  -26.8130  -39.6310 O.2   457  ARG457     -0.2718
    102  CB       -33.7900  -28.2520  -39.7260 C.3   457  ARG457      0.0321
    103  CG       -33.3900  -29.0770  -40.9500 C.3   457  ARG457      0.0489
    104  CD       -31.9140  -29.4810  -40.9420 C.3   457  ARG457      0.2205
    105  NE       -31.6380  -30.6060  -40.0410 N.pl3 457  ARG457     -0.0865
    106  CZ       -30.4310  -31.1230  -39.8160 C.cat 457  ARG457      0.5346
    107  NH1      -29.3610  -30.6260  -40.4280 N.pl3 457  ARG457      0.1354
    108  NH2      -30.2850  -32.1410  -38.9770 N.pl3 457  ARG457      0.1354
    109  N        -35.4460  -26.2920  -37.9270 N.am  458  GLY458     -0.1957
    110  CA       -36.5010  -26.0120  -36.9620 C.3   458  GLY458      0.1869
    111  C        -37.4040  -24.8460  -37.3290 C.2   458  GLY458      0.2309
    112  O        -38.6120  -24.9130  -37.0960 O.2   458  GLY458     -0.2863
    113  N        -39.5990  -26.1510  -40.1520 N.3   461  ALA461     -0.1245
    114  CA       -40.5560  -27.1280  -39.6210 C.3   461  ALA461      0.1562
    115  C        -41.7170  -26.4280  -38.9190 C.2   461  ALA461      0.2260
    116  O        -42.8580  -26.8580  -39.0810 O.2   461  ALA461     -0.2867
    117  CB       -39.8650  -28.1160  -38.6950 C.3   461  ALA461      0.0290
    118  N        -38.4550  -34.6470  -32.6930 N.3   518  LEU518     -0.1231
    119  CA       -38.1200  -33.3960  -33.3990 C.3   518  LEU518      0.1693
    120  C        -39.1750  -32.2890  -33.2550 C.2   518  LEU518      0.2592
    121  O        -38.8300  -31.1200  -33.3270 O.2   518  LEU518     -0.2718
    122  CB       -37.8590  -33.6440  -34.9010 C.3   518  LEU518      0.0284
    123  CG       -36.6560  -34.5010  -35.2670 C.3   518  LEU518      0.0019
    124  CD1      -36.8160  -35.0570  -36.6750 C.3   518  LEU518      0.0001
    125  CD2      -35.3390  -33.7100  -35.1380 C.3   518  LEU518      0.0001
    126  N        -40.4290  -32.6600  -33.0370 N.am  519  ASN519     -0.1974
    127  CA       -41.5340  -31.7430  -32.9530 C.3   519  ASN519      0.1688
    128  C        -42.1860  -31.5330  -31.5960 C.2   519  ASN519      0.2292
    129  O        -43.0790  -30.6960  -31.5210 O.2   519  ASN519     -0.2864
    130  CB       -42.5800  -32.1530  -33.9890 C.3   519  ASN519      0.1181
    131  CG       -43.3660  -33.4180  -33.7050 C.2   519  ASN519      0.2629
    132  OD1      -43.5500  -33.8670  -32.5650 O.2   519  ASN519     -0.2716
    133  ND2      -44.0070  -33.9120  -34.7300 N.am  519  ASN519     -0.0877
    134  N        -41.6370  -27.9530  -30.6810 N.3   522  LEU522     -0.1245
    135  CA       -41.6510  -27.0520  -31.8300 C.3   522  LEU522      0.1561
    136  C        -42.2780  -25.6860  -31.5250 C.2   522  LEU522      0.2260
    137  O        -41.8530  -24.6840  -32.1000 O.2   522  LEU522     -0.2867
    138  CB       -42.3050  -27.7100  -33.0580 C.3   522  LEU522      0.0270
    139  CG       -41.8190  -27.2090  -34.4500 C.3   522  LEU522      0.0019
    140  CD1      -40.3110  -27.3770  -34.6170 C.3   522  LEU522      0.0001
    141  CD2      -42.5480  -27.9300  -35.5770 C.3   522  LEU522      0.0001
    142  N        -23.1390  -21.6300  -44.7070 N.3   565  TRP565     -0.1241
    143  CA       -21.8620  -20.9540  -44.8930 C.3   565  TRP565      0.1605
    144  C        -20.8640  -21.5900  -45.8620 C.2   565  TRP565      0.2264
    145  O        -19.8730  -20.9390  -46.1830 O.2   565  TRP565     -0.2867
    146  CB       -21.2000  -20.6790  -43.5150 C.3   565  TRP565      0.0550
    147  CG       -20.8620  -21.9170  -42.7300 C.ar  565  TRP565      0.0003
    148  CD1      -21.5940  -22.4580  -41.7150 C.ar  565  TRP565      0.0946
    149  CD2      -19.7130  -22.7740  -42.8980 C.ar  565  TRP565      0.0152
    150  NE1      -20.9600  -23.5620  -41.2080 N.ar  565  TRP565     -0.2442
    151  CE2      -19.8160  -23.8000  -41.9300 C.ar  565  TRP565      0.0810
    152  CE3      -18.5790  -22.7450  -43.7390 C.ar  565  TRP565      0.0012
    153  CZ2      -18.8300  -24.8040  -41.7860 C.ar  565  TRP565      0.0191
    154  CZ3      -17.6130  -23.7360  -43.6030 C.ar  565  TRP565      0.0001
    155  CH2      -17.7400  -24.7530  -42.6380 C.ar  565  TRP565      0.0015
@<TRIPOS>BOND
     1   145   144    2
     2   144   143    1
     3   143   142    1
     4   143   146    1
     5   152   154   ar
     6   152   149   ar
     7   154   155   ar
     8   146   147    1
     9    28    27    2
    10    27    26    1
    11   149   147   ar
    12   149   151   ar
    13   147   148   ar
    14   155   153   ar
    15    45    44    1
    16     1     2    1
    17    29    26    1
    18    29    30    1
    19   151   153   ar
    20   151   150   ar
    21     5     2    1
    22     5     6    1
    23     7     6   ar
    24    26    25    1
    25   148   150   ar
    26     2     3    1
    27    44    46    1
    28    44    43    2
    29     6     8   ar
    30   103   104    1
    31   103   102    1
    32   104   105    1
    33    31    30    1
    34    31    32    1
    35   107   106    1
    36    36    37    1
    37    43    42    1
    38   113   114    1
    39    42    41    1
    40    34    33    1
    41    99    98    1
    42    99   102    1
    43    99   100    1
    44     3     4    2
    45   105   106    2
    46   106   108    1
    47   101   100    2
    48   114   115    1
    49   114   117    1
    50    32    33    2
    51   100   109   am
    52    37    40    1
    53    37    38    1
    54    33    35    1
    55   116   115    2
    56    41    40    1
    57    38    39    2
    58    53    51    1
    59    59    60    1
    60   109   110    1
    61   111   112    2
    62   111   110    1
    63    62    61    2
    64     9    10    1
    65    61    60    1
    66    61    66   am
    67    51    52    1
    68    51    48    1
    69   124   123    1
    70    60    63    1
    71    66    67    1
    72    67    68    1
    73    10    11    1
    74    47    48    1
    75    63    65    1
    76    63    64    1
    77    48    49    1
    78   141   139    1
    79   123   125    1
    80   123   122    1
    81    68    70   am
    82    68    69    2
    83   122   119    1
    84    24    23    1
    85    11    12    2
    86    11    13   am
    87   133   131   am
    88   140   139    1
    89    70    71    1
    90   139   138    1
    91    82    81    2
    92    49    54   am
    93    49    50    2
    94    13    14    1
    95   130   131    1
    96   130   127    1
    97    84    83    1
    98    90    91    1
    99    90    89    1
   100    54    55    1
   101    21    22    2
   102    21    20    1
   103    91    92    1
   104   131   132    2
   105    81    80    1
   106    23    20    1
   107   119   120    1
   108   119   118    1
   109    71    72    1
   110   121   120    2
   111   120   126   am
   112    19    20    1
   113    19    15   am
   114   138   135    1
   115   126   127    1
   116   127   128    1
   117    83    80    1
   118    18    17    1
   119    14    15    1
   120    14    17    1
   121    80    79    1
   122    89    86    1
   123    79    76   am
   124    15    16    2
   125    55    58    1
   126    55    56    1
   127    74    72   am
   128    74    75    1
   129    72    73    2
   130   137   136    2
   131   135   136    1
   132   135   134    1
   133    85    86    1
   134   128   129    2
   135    86    87    1
   136    56    57    2
   137    76    75    1
   138    76    77    2
   139    75    78    1
   140    87    93   am
   141    87    88    2
   142    93    94    1
   143    97    94    1
   144    94    95    1
   145    95    96    2
