@<TRIPOS>MOLECULE
tmp/4kh9B00.pdb
 154 149 0 0 0
SMALL
GASTEIGER

@<TRIPOS>ATOM
      1  N          6.5470   40.6090   -2.0340 N.3    35  ARG35      -0.1231
      2  CA         7.9900   40.8950   -1.8970 C.3    35  ARG35       0.1694
      3  C          8.7010   40.5790   -3.2100 C.2    35  ARG35       0.2592
      4  O          8.3810   39.5910   -3.8700 O.2    35  ARG35      -0.2718
      5  CB         8.6240   40.1280   -0.7380 C.3    35  ARG35       0.0321
      6  CG         7.9740   40.3180    0.6290 C.3    35  ARG35       0.0489
      7  CD         8.4170   41.5650    1.3720 C.3    35  ARG35       0.2205
      8  NE         7.6810   41.6990    2.6340 N.pl3  35  ARG35      -0.0865
      9  CZ         8.0710   41.1860    3.7990 C.cat  35  ARG35       0.5346
     10  NH1        9.2130   40.5110    3.8890 N.pl3  35  ARG35       0.1354
     11  NH2        7.3280   41.3550    4.8870 N.pl3  35  ARG35       0.1354
     12  N          9.6660   41.4140   -3.5980 N.am   36  ARG36      -0.1966
     13  CA        10.3910   41.2000   -4.8400 C.3    36  ARG36       0.1729
     14  C         11.9040   41.0300   -4.5390 C.2    36  ARG36       0.2617
     15  O         12.4260   41.5700   -3.5650 O.2    36  ARG36      -0.2715
     16  CB        10.1280   42.3460   -5.8360 C.3    36  ARG36       0.0348
     17  CG         8.7020   42.3010   -6.4220 C.3    36  ARG36       0.0492
     18  CD         8.4030   43.4090   -7.3990 C.3    36  ARG36       0.2205
     19  NE         8.2000   44.6930   -6.7440 N.pl3  36  ARG36      -0.0865
     20  CZ         7.0210   45.1340   -6.3280 C.cat  36  ARG36       0.5346
     21  NH1        5.9350   44.3860   -6.4780 N.pl3  36  ARG36       0.1354
     22  NH2        6.9180   46.3200   -5.7450 N.pl3  36  ARG36       0.1354
     23  N         12.5570   40.2070   -5.3480 N.am   37  SER37      -0.1936
     24  CA        13.9940   39.9150   -5.3050 C.3    37  SER37       0.2055
     25  C         14.6080   40.1800   -6.6650 C.2    37  SER37       0.2643
     26  O         14.0840   39.7300   -7.6760 O.2    37  SER37      -0.2714
     27  CB        14.2410   38.4670   -4.9020 C.3    37  SER37       0.2130
     28  OG        15.6160   38.1440   -5.0770 O.3    37  SER37      -0.2179
     29  N         15.7330   40.8670   -6.6770 N.am   38  TYR38      -0.1959
     30  CA        16.5070   41.1900   -7.8740 C.3    38  TYR38       0.1771
     31  C         17.8360   40.4480   -7.8080 C.2    38  TYR38       0.2620
     32  O         18.8340   40.9120   -8.3180 O.2    38  TYR38      -0.2715
     33  CB        16.7320   42.7380   -7.9470 C.3    38  TYR38       0.0574
     34  CG        15.4520   43.5080   -8.2020 C.ar   38  TYR38      -0.0198
     35  CD1       14.5350   43.7390   -7.1710 C.ar   38  TYR38      -0.0009
     36  CD2       15.1520   44.0030   -9.4670 C.ar   38  TYR38      -0.0009
     37  CE1       13.3580   44.4430   -7.3950 C.ar   38  TYR38       0.0417
     38  CE2       13.9650   44.7060   -9.7060 C.ar   38  TYR38       0.0417
     39  CZ        13.0790   44.9310   -8.6610 C.ar   38  TYR38       0.1957
     40  OH        11.9140   45.6270   -8.8850 O.3    38  TYR38      -0.2866
     41  N         17.8460   39.3190   -7.1330 N.am   39  GLY39      -0.1940
     42  CA        19.0700   38.5460   -6.9910 C.3    39  GLY39       0.2014
     43  C         18.7980   37.1660   -6.4680 C.2    39  GLY39       0.2639
     44  O         17.6490   36.6900   -6.4650 O.2    39  GLY39      -0.2714
     45  N         19.8700   36.4950   -6.0390 N.am   40  TYR40      -0.1959
     46  CA        19.7140   35.1820   -5.4600 C.3    40  TYR40       0.1771
     47  C         20.7730   34.9700   -4.3780 C.2    40  TYR40       0.2619
     48  O         21.7930   35.6940   -4.3200 O.2    40  TYR40      -0.2715
     49  CB        19.7560   34.0700   -6.5200 C.3    40  TYR40       0.0574
     50  CG        21.1080   33.8880   -7.1780 C.ar   40  TYR40      -0.0198
     51  CD1       21.4400   34.5900   -8.3380 C.ar   40  TYR40      -0.0009
     52  CD2       22.0210   32.9460   -6.6960 C.ar   40  TYR40      -0.0009
     53  CE1       22.6530   34.3770   -8.9870 C.ar   40  TYR40       0.0417
     54  CE2       23.2440   32.7390   -7.3280 C.ar   40  TYR40       0.0417
     55  CZ        23.5540   33.4570   -8.4790 C.ar   40  TYR40       0.1957
     56  OH        24.7510   33.2590   -9.1320 O.3    40  TYR40      -0.2866
     57  N         20.5250   33.9800   -3.5310 N.am   41  LYS41      -0.1977
     58  CA        21.4670   33.5360   -2.4940 C.3    41  LYS41       0.1596
     59  C         21.5890   32.0520   -2.5780 C.2    41  LYS41       0.2287
     60  O         20.5810   31.4060   -2.8200 O.2    41  LYS41      -0.2864
     61  CB        20.9900   33.9460   -1.0880 C.3    41  LYS41       0.0298
     62  CG        21.1600   35.4080   -0.7560 C.3    41  LYS41       0.0038
     63  CD        20.7180   35.6960    0.6710 C.3    41  LYS41       0.0206
     64  CE        21.0150   37.1220    1.0770 C.3    41  LYS41       0.1093
     65  NZ        20.6560   37.3820    2.4970 N.3    41  LYS41      -0.1314
     66  N         28.5390   38.9220   -2.7400 N.3    65  ARG65      -0.1245
     67  CA        28.9950   38.7510   -1.3570 C.3    65  ARG65       0.1563
     68  C         29.2820   37.2910   -1.0970 C.2    65  ARG65       0.2260
     69  O         28.4520   36.4330   -1.3990 O.2    65  ARG65      -0.2867
     70  CB        27.9530   39.2610   -0.3290 C.3    65  ARG65       0.0307
     71  CG        27.6710   40.7520   -0.2790 C.3    65  ARG65       0.0489
     72  CD        26.7420   41.1110    0.8910 C.3    65  ARG65       0.2205
     73  NE        27.1130   40.4440    2.1460 N.pl3  65  ARG65      -0.0865
     74  CZ        27.8390   40.9860    3.1190 C.cat  65  ARG65       0.5346
     75  NH1       28.2490   42.2460    3.0300 N.pl3  65  ARG65       0.1354
     76  NH2       28.1290   40.2840    4.2080 N.pl3  65  ARG65       0.1354
     77  N         25.8800   35.5060   -2.1540 N.3   143  SER143     -0.1202
     78  CA        24.7510   36.3960   -2.3740 C.3   143  SER143      0.2020
     79  C         25.0150   37.2230   -3.6380 C.2   143  SER143      0.2619
     80  O         26.0610   37.8620   -3.7390 O.2   143  SER143     -0.2717
     81  CB        24.5680   37.2970   -1.1580 C.3   143  SER143      0.2103
     82  OG        23.4490   38.1440   -1.3120 O.3   143  SER143     -0.2182
     83  N         24.0990   37.1900   -4.5960 N.am  144  VAL144     -0.1965
     84  CA        24.2360   37.9680   -5.8350 C.3   144  VAL144      0.1727
     85  C         23.0570   38.9410   -5.9460 C.2   144  VAL144      0.2616
     86  O         21.9280   38.5050   -6.0640 O.2   144  VAL144     -0.2715
     87  CB        24.3340   37.0640   -7.1020 C.3   144  VAL144      0.0290
     88  CG1       24.5100   37.9090   -8.3730 C.3   144  VAL144      0.0023
     89  CG2       25.4630   36.0190   -6.9710 C.3   144  VAL144      0.0023
     90  N         23.3310   40.2370   -5.9030 N.am  145  LEU145     -0.1977
     91  CA        22.3500   41.2660   -6.1250 C.3   145  LEU145      0.1596
     92  C         22.5490   41.7630   -7.5560 C.2   145  LEU145      0.2287
     93  O         23.5500   42.4080   -7.8580 O.2   145  LEU145     -0.2864
     94  CB        22.4360   42.4030   -5.0880 C.3   145  LEU145      0.0297
     95  CG        21.5690   43.6140   -5.3540 C.3   145  LEU145      0.0022
     96  CD1       20.0700   43.2770   -5.3260 C.3   145  LEU145      0.0001
     97  CD2       21.9430   44.7550   -4.4120 C.3   145  LEU145      0.0001
     98  N         11.9390   38.4080   -9.0600 N.3   153  LEU153     -0.1245
     99  CA        11.1150   37.3270   -8.5460 C.3   153  LEU153      0.1561
    100  C         10.1450   37.9280   -7.5920 C.2   153  LEU153      0.2260
    101  O         10.5730   38.6610   -6.7100 O.2   153  LEU153     -0.2867
    102  CB        11.9740   36.2310   -7.8710 C.3   153  LEU153      0.0270
    103  CG        11.1870   35.0420   -7.2820 C.3   153  LEU153      0.0019
    104  CD1       10.5780   34.1720   -8.3860 C.3   153  LEU153      0.0001
    105  CD2       12.0330   34.2630   -6.2520 C.3   153  LEU153      0.0001
    106  N          7.1650   37.1450   -4.8350 N.3   155  VAL155     -0.1245
    107  CA         6.5940   36.1550   -3.9440 C.3   155  VAL155      0.1561
    108  C          5.5660   36.8490   -3.0580 C.2   155  VAL155      0.2260
    109  O          5.8410   37.8980   -2.4730 O.2   155  VAL155     -0.2867
    110  CB         7.6860   35.4120   -3.1090 C.3   155  VAL155      0.0252
    111  CG1        7.0550   34.2950   -2.2930 C.3   155  VAL155      0.0019
    112  CG2        8.8090   34.8580   -4.0000 C.3   155  VAL155      0.0019
    113  N          9.6880   31.8200    4.3770 N.3   229  LEU229     -0.1245
    114  CA         9.3650   31.2610    3.0670 C.3   229  LEU229      0.1561
    115  C         10.5760   31.5200    2.2080 C.2   229  LEU229      0.2260
    116  O         10.9620   32.6850    2.0130 O.2   229  LEU229     -0.2867
    117  CB         8.0700   31.8590    2.4660 C.3   229  LEU229      0.0270
    118  CG         7.8050   31.5520    0.9570 C.3   229  LEU229      0.0019
    119  CD1        7.7200   30.0520    0.6660 C.3   229  LEU229      0.0001
    120  CD2        6.4990   32.2070    0.4880 C.3   229  LEU229      0.0001
    121  N         12.3740   30.7050   -1.4770 N.3   231  THR231     -0.1218
    122  CA        12.0550   30.2780   -2.8500 C.3   231  THR231      0.1862
    123  C         13.3010   30.3710   -3.7290 C.2   231  THR231      0.2287
    124  O         14.0820   31.2840   -3.5450 O.2   231  THR231     -0.2866
    125  CB        10.9030   31.1210   -3.4370 C.3   231  THR231      0.1770
    126  OG1        9.7550   30.9550   -2.6130 O.3   231  THR231     -0.2211
    127  CG2       10.5130   30.6810   -4.8360 C.3   231  THR231      0.0375
    128  N         16.2460   34.0580   -6.1990 N.3   245  SER245     -0.1202
    129  CA        15.8870   33.4840   -4.8940 C.3   245  SER245      0.2020
    130  C         15.1060   34.4840   -4.0970 C.2   245  SER245      0.2619
    131  O         15.3410   35.6640   -4.2430 O.2   245  SER245     -0.2717
    132  CB        17.1140   33.0570   -4.0800 C.3   245  SER245      0.2103
    133  OG        17.7180   31.8500   -4.5060 O.3   245  SER245     -0.2182
    134  N         14.2240   34.0130   -3.2350 N.am  246  GLY246     -0.1942
    135  CA        13.4610   34.8760   -2.3470 C.3   246  GLY246      0.2014
    136  C         13.4860   34.3810   -0.9110 C.2   246  GLY246      0.2639
    137  O         13.6670   33.1870   -0.6670 O.2   246  GLY246     -0.2714
    138  N         13.2950   35.3020    0.0320 N.am  247  HIS247     -0.1959
    139  CA        13.2180   35.0580    1.4930 C.3   247  HIS247      0.1787
    140  C         12.1820   35.9810    2.0820 C.2   247  HIS247      0.2620
    141  O         12.3950   37.1930    2.0730 O.2   247  HIS247     -0.2715
    142  CB        14.5620   35.2700    2.2690 C.3   247  HIS247      0.0785
    143  CG        15.6740   34.2730    2.0930 C.ar  247  HIS247      0.0821
    144  ND1       16.8890   34.6510    1.5410 N.ar  247  HIS247     -0.2267
    145  CD2       15.7980   33.0080    2.5680 C.ar  247  HIS247      0.1154
    146  CE1       17.6690   33.5790    1.6060 C.ar  247  HIS247      0.1986
    147  NE2       17.0570   32.5650    2.2110 N.ar  247  HIS247     -0.2212
    148  N         11.0640   35.4440    2.6020 N.am  248  THR248     -0.1951
    149  CA        10.0390   36.2700    3.2630 C.3   248  THR248      0.1897
    150  C          9.7970   35.7110    4.6750 C.2   248  THR248      0.2313
    151  O          9.3510   34.5730    4.8040 O.2   248  THR248     -0.2863
    152  CB         8.7450   36.3450    2.4560 C.3   248  THR248      0.1794
    153  OG1        9.0290   36.8810    1.1710 O.3   248  THR248     -0.2208
    154  CG2        7.6800   37.2000    3.1390 C.3   248  THR248      0.0378
@<TRIPOS>BOND
     1    38    36   ar
     2    38    39   ar
     3    36    34   ar
     4    56    55    1
     5    98    99    1
     6    53    55   ar
     7    53    51   ar
     8    40    39    1
     9    39    37   ar
    10    99   102    1
    11    99   100    1
    12    55    54   ar
    13   104   103    1
    14    88    87    1
    15    51    50   ar
    16    32    31    2
    17    34    33    1
    18    34    35   ar
    19    33    30    1
    20    30    31    1
    21    30    29    1
    22   102   103    1
    23    93    92    2
    24    31    41   am
    25    26    25    2
    26   100   101    2
    27    92    91    1
    28    18    19    1
    29    18    17    1
    30    37    35   ar
    31    54    52   ar
    32   103   105    1
    33    50    52   ar
    34    50    49    1
    35    41    42    1
    36    87    89    1
    37    87    84    1
    38    42    43    1
    39    19    20    2
    40    29    25   am
    41    25    24    1
    42    49    46    1
    43    21    20    1
    44    43    44    2
    45    43    45   am
    46    17    16    1
    47    20    22    1
    48   128   129    1
    49    91    90    1
    50    91    94    1
    51    86    85    2
    52    45    46    1
    53    85    90   am
    54    85    84    1
    55    16    13    1
    56    84    83    1
    57    46    47    1
    58    95    96    1
    59    95    94    1
    60    95    97    1
    61    23    24    1
    62    23    14   am
    63    24    27    1
    64    28    27    1
    65   129   130    1
    66   129   132    1
    67    13    14    1
    68    13    12    1
    69   127   125    1
    70   106   107    1
    71    83    79   am
    72    14    15    2
    73   133   132    1
    74    47    48    2
    75    47    57   am
    76   131   130    2
    77   130   134   am
    78   112   110    1
    79   107   110    1
    80   107   108    1
    81     4     3    2
    82    80    79    2
    83   123   124    2
    84   123   122    1
    85    79    78    1
    86    12     3   am
    87    57    58    1
    88   125   122    1
    89   125   126    1
    90   134   135    1
    91     3     2    1
    92   110   111    1
    93   108   109    2
    94   122   121    1
    95    60    59    2
    96    66    67    1
    97    59    58    1
    98    58    61    1
    99    78    77    1
   100    78    81    1
   101   135   136    1
   102     1     2    1
   103     2     5    1
   104    69    68    2
   105    67    68    1
   106    67    70    1
   107    82    81    1
   108    61    62    1
   109   136   137    2
   110   136   138   am
   111    62    63    1
   112     5     6    1
   113    70    71    1
   114    71    72    1
   115   138   139    1
   116   120   118    1
   117     6     7    1
   118   119   118    1
   119    63    64    1
   120    72    73    1
   121   118   117    1
   122    64    65    1
   123   153   152    1
   124     7     8    1
   125   139   140    1
   126   139   142    1
   127   144   146   ar
   128   144   143   ar
   129   146   147   ar
   130   116   115    2
   131   141   140    2
   132   140   148   am
   133   143   142    1
   134   143   145   ar
   135    73    74    2
   136   115   114    1
   137   147   145   ar
   138   152   154    1
   139   152   149    1
   140   117   114    1
   141   148   149    1
   142     8     9    2
   143    75    74    1
   144   114   113    1
   145    74    76    1
   146   149   150    1
   147     9    10    1
   148     9    11    1
   149   150   151    2
