@<TRIPOS>MOLECULE
tmp/4khmB00.pdb
 194 181 0 0 0
SMALL
GASTEIGER

@<TRIPOS>ATOM
      1  N          4.1630    9.0180  -15.8790 N.3   193  PHE193     -0.1241
      2  CA         3.3890    9.5880  -16.9980 C.3   193  PHE193      0.1605
      3  C          1.8700    9.5260  -16.7950 C.2   193  PHE193      0.2264
      4  O          1.1040   10.0880  -17.5860 O.2   193  PHE193     -0.2867
      5  CB         3.7820    8.9300  -18.3210 C.3   193  PHE193      0.0534
      6  CG         5.2030    9.2060  -18.7340 C.ar  193  PHE193     -0.0203
      7  CD1        5.6110   10.4980  -19.0420 C.ar  193  PHE193     -0.0042
      8  CD2        6.1360    8.1770  -18.8090 C.ar  193  PHE193     -0.0042
      9  CE1        6.9200   10.7570  -19.4200 C.ar  193  PHE193     -0.0003
     10  CE2        7.4460    8.4290  -19.1880 C.ar  193  PHE193     -0.0003
     11  CZ         7.8400    9.7190  -19.4950 C.ar  193  PHE193     -0.0000
     12  N          0.2040   17.4950  -14.2100 N.3   197  PRO197     -0.2116
     13  CA         1.1400   18.2400  -13.3680 C.3   197  PRO197      0.1372
     14  C          0.6330   18.4350  -11.9460 C.2   197  PRO197      0.2244
     15  O          1.3830   18.2580  -10.9900 O.2   197  PRO197     -0.2868
     16  CB         1.2320   19.5940  -14.0630 C.3   197  PRO197      0.0268
     17  CG         0.8730   19.3280  -15.4470 C.3   197  PRO197      0.0207
     18  CD        -0.1180   18.2260  -15.4430 C.3   197  PRO197      0.0892
     19  N          0.8340   15.2760  -10.0980 N.3   200  ARG200     -0.1245
     20  CA         2.2460   14.9820   -9.8130 C.3   200  ARG200      0.1563
     21  C          2.7020   15.7110   -8.5540 C.2   200  ARG200      0.2260
     22  O          3.3740   15.1410   -7.7000 O.2   200  ARG200     -0.2867
     23  CB         3.1600   15.3790  -10.9760 C.3   200  ARG200      0.0307
     24  CG         4.6160   14.9320  -10.7610 C.3   200  ARG200      0.0489
     25  CD         5.5210   15.3750  -11.8890 C.3   200  ARG200      0.2205
     26  NE         4.8720   15.0920  -13.1560 N.pl3 200  ARG200     -0.0865
     27  CZ         4.7790   13.8800  -13.6890 C.cat 200  ARG200      0.5346
     28  NH1        4.1270   13.7140  -14.8270 N.pl3 200  ARG200      0.1354
     29  NH2        5.3390   12.8310  -13.0880 N.pl3 200  ARG200      0.1354
     30  N          3.9640   14.0740   -4.9820 N.3   204  LEU204     -0.1245
     31  CA         5.2840   14.4030   -4.4170 C.3   204  LEU204      0.1561
     32  C          5.1780   14.9910   -3.0130 C.2   204  LEU204      0.2260
     33  O          5.9160   14.6080   -2.1060 O.2   204  LEU204     -0.2867
     34  CB         6.0450   15.3730   -5.3230 C.3   204  LEU204      0.0270
     35  CG         6.5440   14.7740   -6.6420 C.3   204  LEU204      0.0019
     36  CD1        7.0840   15.8620   -7.5610 C.3   204  LEU204      0.0001
     37  CD2        7.6010   13.6960   -6.3960 C.3   204  LEU204      0.0001
     38  N          9.5020    7.4680   -8.1090 N.3   314  LEU314     -0.1245
     39  CA         8.8210    8.0490   -9.2560 C.3   314  LEU314      0.1561
     40  C          9.7500    7.9640  -10.4590 C.2   314  LEU314      0.2260
     41  O         10.9020    8.4080  -10.4040 O.2   314  LEU314     -0.2867
     42  CB         8.4040    9.4990   -8.9930 C.3   314  LEU314      0.0270
     43  CG         7.4140   10.0910   -9.9970 C.3   314  LEU314      0.0019
     44  CD1        6.1240    9.2810  -10.0610 C.3   314  LEU314      0.0001
     45  CD2        7.1140   11.5380   -9.6330 C.3   314  LEU314      0.0001
     46  N         10.1210    8.4020  -14.7450 N.3   316  CYS316     -0.1235
     47  CA         9.7460    8.8710  -16.0850 C.3   316  CYS316      0.1677
     48  C         10.8800    8.5960  -17.0540 C.2   316  CYS316      0.2270
     49  O         11.8300    9.3680  -17.1490 O.2   316  CYS316     -0.2867
     50  CB         9.4490   10.3690  -16.0950 C.3   316  CYS316      0.0956
     51  SG         7.9380   10.8270  -15.3000 S.3   316  CYS316     -0.0801
     52  N         14.5230    9.2350  -16.1120 N.3   319  ASP319     -0.1239
     53  CA        14.4450   10.1550  -14.9720 C.3   319  ASP319      0.1674
     54  C         13.8590    9.4480  -13.7550 C.2   319  ASP319      0.2266
     55  O         12.7670    8.8740  -13.8120 O.2   319  ASP319     -0.2867
     56  CB        13.6130   11.4000  -15.2960 C.3   319  ASP319      0.1410
     57  CG        14.3800   12.4250  -16.1060 C.2   319  ASP319      0.3668
     58  OD1       15.1690   13.1880  -15.5090 O.co2 319  ASP319     -0.2456
     59  OD2       14.1700   12.4830  -17.3350 O.co2 319  ASP319     -0.2456
     60  N         13.4260    9.5750   -9.3340 N.3   321  VAL321     -0.1245
     61  CA        13.4880   10.1820   -8.0020 C.3   321  VAL321      0.1561
     62  C         13.0470    9.1880   -6.9380 C.2   321  VAL321      0.2260
     63  O         12.0570    8.4730   -7.1030 O.2   321  VAL321     -0.2867
     64  CB        12.6300   11.4650   -7.8780 C.3   321  VAL321      0.0252
     65  CG1       12.5460   11.9210   -6.4220 C.3   321  VAL321      0.0019
     66  CG2       13.2130   12.5630   -8.7300 C.3   321  VAL321      0.0019
     67  N         12.1560    9.0910   -2.7890 N.3   323  ILE323     -0.1245
     68  CA        11.8910    9.7280   -1.4980 C.3   323  ILE323      0.1561
     69  C         11.7640    8.6370   -0.4470 C.2   323  ILE323      0.2260
     70  O         10.9850    7.6940   -0.6050 O.2   323  ILE323     -0.2867
     71  CB        10.6080   10.5770   -1.5070 C.3   323  ILE323      0.0252
     72  CG1       10.7530   11.7480   -2.4790 C.3   323  ILE323      0.0019
     73  CG2       10.3140   11.1010   -0.1020 C.3   323  ILE323      0.0019
     74  CD1        9.4560   12.5030   -2.7210 C.3   323  ILE323      0.0001
     75  N         12.4520   19.5340   -0.0360 N.3   360  LEU360     -0.1245
     76  CA        11.7590   19.0530   -1.2410 C.3   360  LEU360      0.1561
     77  C         12.0840   19.9070   -2.4610 C.2   360  LEU360      0.2260
     78  O         12.2970   19.3840   -3.5530 O.2   360  LEU360     -0.2867
     79  CB        10.2390   19.0140   -1.0370 C.3   360  LEU360      0.0270
     80  CG         9.4070   18.5590   -2.2370 C.3   360  LEU360      0.0019
     81  CD1        9.8890   17.2160   -2.7780 C.3   360  LEU360      0.0001
     82  CD2        7.9440   18.4910   -1.8370 C.3   360  LEU360      0.0001
     83  N         15.2400   19.2330   -4.8530 N.3   363  ILE363     -0.1245
     84  CA        15.3200   18.0810   -5.7530 C.3   363  ILE363      0.1561
     85  C         14.8570   18.4830   -7.1420 C.2   363  ILE363      0.2260
     86  O         13.7610   19.0060   -7.3110 O.2   363  ILE363     -0.2867
     87  CB        14.4740   16.8900   -5.2740 C.3   363  ILE363      0.0252
     88  CG1       14.9980   16.3710   -3.9360 C.3   363  ILE363      0.0019
     89  CG2       14.5180   15.7620   -6.3030 C.3   363  ILE363      0.0019
     90  CD1       14.0080   15.5120   -3.1760 C.3   363  ILE363      0.0001
     91  N         14.2340   17.0390  -11.0400 N.3   365  SER365     -0.1202
     92  CA        14.0470   15.8920  -11.9260 C.3   365  SER365      0.2020
     93  C         13.1580   16.2760  -13.1060 C.2   365  SER365      0.2619
     94  O         12.1910   17.0250  -12.9520 O.2   365  SER365     -0.2717
     95  CB        13.4470   14.7130  -11.1660 C.3   365  SER365      0.2103
     96  OG        13.2590   13.5960  -12.0160 O.3   365  SER365     -0.2182
     97  N         13.5030   15.7650  -14.2830 N.am  366  CYS366     -0.1969
     98  CA        12.8920   16.2090  -15.5430 C.3   366  CYS366      0.1712
     99  C         12.9930   17.7250  -15.6470 C.2   366  CYS366      0.2296
    100  O         12.0550   18.4040  -16.0870 O.2   366  CYS366     -0.2864
    101  CB        11.4350   15.7540  -15.6490 C.3   366  CYS366      0.0983
    102  SG        11.2410   13.9760  -15.7160 S.3   366  CYS366     -0.0798
    103  N         12.7090   19.8560  -13.5370 N.3   368  SER368     -0.1202
    104  CA        11.7130   20.5690  -12.7320 C.3   368  SER368      0.2020
    105  C         11.8740   20.3600  -11.2390 C.2   368  SER368      0.2619
    106  O         12.5130   19.4120  -10.7840 O.2   368  SER368     -0.2717
    107  CB        10.2860   20.1920  -13.1510 C.3   368  SER368      0.2103
    108  OG        10.1590   20.1480  -14.5600 O.3   368  SER368     -0.2182
    109  N         11.2760   21.2750  -10.4880 N.am  369  ASN369     -0.1960
    110  CA        11.2480   21.1910   -9.0330 C.3   369  ASN369      0.1819
    111  C          9.9380   21.6930   -8.4530 C.2   369  ASN369      0.2621
    112  O          9.1970   22.4550   -9.0830 O.2   369  ASN369     -0.2715
    113  CB        12.4110   21.9600   -8.4020 C.3   369  ASN369      0.1195
    114  CG        12.3020   23.4600   -8.6030 C.2   369  ASN369      0.2630
    115  OD1       12.6200   23.9710   -9.6710 O.2   369  ASN369     -0.2716
    116  ND2       11.8600   24.1720   -7.5700 N.am  369  ASN369     -0.0877
    117  N          9.6710   21.2590   -7.2320 N.am  370  VAL370     -0.1977
    118  CA         8.4830   21.7030   -6.5140 C.3   370  VAL370      0.1596
    119  C          8.7780   23.0320   -5.8460 C.2   370  VAL370      0.2287
    120  O          9.8220   23.2130   -5.2200 O.2   370  VAL370     -0.2864
    121  CB         8.0310   20.6930   -5.4540 C.3   370  VAL370      0.0276
    122  CG1        6.7980   21.2150   -4.7170 C.3   370  VAL370      0.0022
    123  CG2        7.7370   19.3490   -6.1020 C.3   370  VAL370      0.0022
    124  N          4.7560   22.7640   -9.8160 N.3   384  LEU384     -0.1245
    125  CA         6.0150   22.4050  -10.4580 C.3   384  LEU384      0.1561
    126  C          6.5020   23.5470  -11.3280 C.2   384  LEU384      0.2260
    127  O          5.7400   24.1660  -12.0700 O.2   384  LEU384     -0.2867
    128  CB         5.8890   21.1320  -11.2890 C.3   384  LEU384      0.0270
    129  CG         5.7680   19.8600  -10.4540 C.3   384  LEU384      0.0019
    130  CD1        5.0680   18.7750  -11.2440 C.3   384  LEU384      0.0001
    131  CD2        7.1470   19.4100   -9.9800 C.3   384  LEU384      0.0001
    132  N         10.4440   25.2280  -13.2620 N.3   386  ARG386     -0.1245
    133  CA        11.7700   24.9410  -13.7910 C.3   386  ARG386      0.1563
    134  C         12.4670   26.2410  -14.1380 C.2   386  ARG386      0.2260
    135  O         11.8480   27.3050  -14.1660 O.2   386  ARG386     -0.2867
    136  CB        11.7040   24.0280  -15.0230 C.3   386  ARG386      0.0307
    137  CG        10.9700   24.6050  -16.2390 C.3   386  ARG386      0.0489
    138  CD        11.3140   23.8310  -17.5040 C.3   386  ARG386      0.2205
    139  NE        12.7010   24.0560  -17.9160 N.pl3 386  ARG386     -0.0865
    140  CZ        13.4070   23.2570  -18.7170 C.cat 386  ARG386      0.5346
    141  NH1       12.8770   22.1450  -19.2210 N.pl3 386  ARG386      0.1354
    142  NH2       14.6630   23.5700  -19.0130 N.pl3 386  ARG386      0.1354
    143  N          1.8770   23.0200  -19.3640 N.3   414  MET414     -0.1230
    144  CA         2.5160   22.2220  -18.3130 C.3   414  MET414      0.1702
    145  C          3.0060   23.0590  -17.1360 C.2   414  MET414      0.2592
    146  O          3.0490   22.5820  -16.0000 O.2   414  MET414     -0.2718
    147  CB         3.6840   21.4170  -18.8850 C.3   414  MET414      0.0401
    148  CG         3.2650   20.3120  -19.8690 C.3   414  MET414      0.0596
    149  SD         4.6330   19.3090  -20.4860 S.3   414  MET414     -0.1393
    150  CE         5.6940   20.5730  -21.1890 C.3   414  MET414      0.0692
    151  N          3.3740   24.3020  -17.4160 N.am  415  PHE415     -0.1976
    152  CA         3.9290   25.2180  -16.3990 C.3   415  PHE415      0.1639
    153  C          3.0540   26.4540  -16.1470 C.2   415  PHE415      0.2290
    154  O          3.5330   27.5000  -15.7010 O.2   415  PHE415     -0.2864
    155  CB         5.3580   25.6140  -16.7770 C.3   415  PHE415      0.0560
    156  CG         6.3430   24.4840  -16.6490 C.ar  415  PHE415     -0.0200
    157  CD1        6.7120   24.0190  -15.3950 C.ar  415  PHE415     -0.0042
    158  CD2        6.8910   23.8790  -17.7720 C.ar  415  PHE415     -0.0042
    159  CE1        7.6160   22.9780  -15.2620 C.ar  415  PHE415     -0.0003
    160  CE2        7.7970   22.8360  -17.6460 C.ar  415  PHE415     -0.0003
    161  CZ         8.1560   22.3850  -16.3890 C.ar  415  PHE415     -0.0000
    162  N          3.6580   18.9330  -28.0690 N.3   446  GLU446     -0.1231
    163  CA         3.9280   17.6260  -27.4740 C.3   446  GLU446      0.1699
    164  C          3.6640   17.6180  -25.9750 C.2   446  GLU446      0.2592
    165  O          4.1240   18.4970  -25.2390 O.2   446  GLU446     -0.2718
    166  CB         5.3560   17.1620  -27.7700 C.3   446  GLU446      0.0402
    167  CG         5.5520   16.7040  -29.2120 C.3   446  GLU446      0.1161
    168  CD         6.9910   16.3420  -29.5410 C.2   446  GLU446      0.3649
    169  OE1        7.8470   16.3610  -28.6310 O.co2 446  GLU446     -0.2457
    170  OE2        7.2640   16.0340  -30.7210 O.co2 446  GLU446     -0.2457
    171  N          2.9050   16.6150  -25.5460 N.am  447  ILE447     -0.1966
    172  CA         2.6270   16.3910  -24.1230 C.3   447  ILE447      0.1727
    173  C          3.0360   14.9750  -23.7350 C.2   447  ILE447      0.2616
    174  O          2.4100   13.9970  -24.1430 O.2   447  ILE447     -0.2715
    175  CB         1.1490   16.6090  -23.7600 C.3   447  ILE447      0.0290
    176  CG1        0.7110   18.0270  -24.1410 C.3   447  ILE447      0.0022
    177  CG2        0.9290   16.3770  -22.2670 C.3   447  ILE447      0.0023
    178  CD1       -0.7430   18.3080  -23.8540 C.3   447  ILE447      0.0001
    179  N          4.1060   14.8980  -22.9480 N.am  448  TYR448     -0.1960
    180  CA         4.7270   13.6310  -22.5280 C.3   448  TYR448      0.1771
    181  C          5.1160   12.7850  -23.7450 C.2   448  TYR448      0.2620
    182  O          4.9400   11.5640  -23.7590 O.2   448  TYR448     -0.2715
    183  CB         3.8290   12.8150  -21.5800 C.3   448  TYR448      0.0574
    184  CG         3.4310   13.4870  -20.2700 C.ar  448  TYR448     -0.0198
    185  CD1        3.9140   14.7460  -19.9020 C.ar  448  TYR448     -0.0009
    186  CD2        2.5840   12.8340  -19.3810 C.ar  448  TYR448     -0.0009
    187  CE1        3.5390   15.3420  -18.6980 C.ar  448  TYR448      0.0417
    188  CE2        2.2160   13.4180  -18.1760 C.ar  448  TYR448      0.0417
    189  CZ         2.6910   14.6730  -17.8390 C.ar  448  TYR448      0.1957
    190  OH         2.3220   15.2580  -16.6450 O.3   448  TYR448     -0.2866
    191  N          5.6300   13.4600  -24.7710 N.am  449  GLY449     -0.1954
    192  CA         6.1400   12.7990  -25.9800 C.3   449  GLY449      0.1869
    193  C          5.1250   12.6480  -27.1010 C.2   449  GLY449      0.2309
    194  O          5.5000   12.5420  -28.2700 O.2   449  GLY449     -0.2863
@<TRIPOS>BOND
     1   170   168   ar
     2   168   167    1
     3   168   169   ar
     4   167   166    1
     5   194   193    2
     6   162   163    1
     7   166   163    1
     8   163   164    1
     9   193   192    1
    10   192   191    1
    11   164   171   am
    12   164   165    2
    13   171   172    1
    14   191   181   am
    15   174   173    2
    16   176   178    1
    17   176   175    1
    18   172   175    1
    19   172   173    1
    20   175   177    1
    21   182   181    2
    22   181   180    1
    23   173   179   am
    24   179   180    1
    25   180   183    1
    26   183   184    1
    27   150   149    1
    28   149   148    1
    29   184   185   ar
    30   184   186   ar
    31   185   187   ar
    32   148   147    1
    33    11     9   ar
    34    11    10   ar
    35     9     7   ar
    36   186   188   ar
    37   143   144    1
    38   141   140    1
    39    10     8   ar
    40     7     6   ar
    41   142   140    1
    42   147   144    1
    43     8     6   ar
    44     6     5    1
    45   140   139    2
    46   187   189   ar
    47     5     2    1
    48   144   145    1
    49   188   189   ar
    50   139   138    1
    51   189   190    1
    52   158   160   ar
    53   158   156   ar
    54   160   161   ar
    55     4     3    2
    56   138   137    1
    57   151   145   am
    58   151   152    1
    59    59    57   ar
    60    49    48    2
    61   145   146    2
    62    48    47    1
    63     2     3    1
    64     2     1    1
    65   155   156    1
    66   155   152    1
    67   156   157   ar
    68   152   153    1
    69   161   159   ar
    70   137   136    1
    71   153   154    2
    72    52    53    1
    73    57    58   ar
    74    57    56    1
    75    50    47    1
    76    50    51    1
    77   100    99    2
    78    47    46    1
    79   102   101    1
    80   101    98    1
    81    99    98    1
    82    98    97    1
    83    17    18    1
    84    17    16    1
    85    18    12    1
    86   157   159   ar
    87    56    53    1
    88   136   133    1
    89    53    54    1
    90    28    27    1
    91   108   107    1
    92    97    93   am
    93    12    13    1
    94   135   134    2
    95   134   133    1
    96    16    13    1
    97    55    54    2
    98   133   132    1
    99    27    26    2
   100    27    29    1
   101   103   104    1
   102    13    14    1
   103    26    25    1
   104   107   104    1
   105    93    94    2
   106    93    92    1
   107   104   105    1
   108   127   126    2
   109    96    95    1
   110    14    15    2
   111    92    95    1
   112    92    91    1
   113    25    24    1
   114   126   125    1
   115   128   125    1
   116   128   129    1
   117   130   129    1
   118   105   106    2
   119   105   109   am
   120    23    24    1
   121    23    20    1
   122   109   110    1
   123    40    41    2
   124    40    39    1
   125   125   124    1
   126   129   131    1
   127    19    20    1
   128    44    43    1
   129    43    45    1
   130    43    42    1
   131    20    21    1
   132   115   114    2
   133    60    61    1
   134    39    42    1
   135    39    38    1
   136   112   111    2
   137   110   111    1
   138   110   113    1
   139    66    64    1
   140   114   113    1
   141   114   116   am
   142    21    22    2
   143   111   117   am
   144    61    64    1
   145    61    62    1
   146    64    65    1
   147    36    35    1
   148    86    85    2
   149   117   118    1
   150    85    84    1
   151    63    62    2
   152    35    37    1
   153    35    34    1
   154   118   119    1
   155   118   121    1
   156    89    87    1
   157   123   121    1
   158   119   120    2
   159    84    87    1
   160    84    83    1
   161   121   122    1
   162    34    31    1
   163    87    88    1
   164    30    31    1
   165    31    32    1
   166    88    90    1
   167    78    77    2
   168    32    33    2
   169    67    68    1
   170    81    80    1
   171    74    72    1
   172    72    71    1
   173    77    76    1
   174    80    82    1
   175    80    79    1
   176    71    68    1
   177    71    73    1
   178    68    69    1
   179    76    79    1
   180    76    75    1
   181    70    69    2
