@<TRIPOS>MOLECULE
tmp/4khnA01.pdb
 161 153 0 0 0
SMALL
GASTEIGER

@<TRIPOS>ATOM
      1  N         -3.4980  -17.1390   -0.6450 N.3   282  PHE282     -0.1241
      2  CA        -3.9180  -16.8760    0.7300 C.3   282  PHE282      0.1605
      3  C         -3.1520  -17.6930    1.7720 C.2   282  PHE282      0.2264
      4  O         -3.7250  -18.2760    2.6850 O.2   282  PHE282     -0.2867
      5  CB        -5.4270  -17.0130    0.8660 C.3   282  PHE282      0.0534
      6  CG        -6.1580  -15.8790    0.2420 C.ar  282  PHE282     -0.0203
      7  CD1       -6.3690  -15.8510   -1.1280 C.ar  282  PHE282     -0.0042
      8  CD2       -6.5500  -14.7960    1.0010 C.ar  282  PHE282     -0.0042
      9  CE1       -7.0070  -14.7950   -1.7230 C.ar  282  PHE282     -0.0003
     10  CE2       -7.1980  -13.7340    0.4150 C.ar  282  PHE282     -0.0003
     11  CZ        -7.4280  -13.7390   -0.9580 C.ar  282  PHE282     -0.0000
     12  N        -22.7320  -14.6850   10.2630 N.3   411  ASP411     -0.1225
     13  CA       -21.9800  -13.7120    9.5030 C.3   411  ASP411      0.1805
     14  C        -22.7290  -13.2230    8.2750 C.2   411  ASP411      0.2597
     15  O        -23.5730  -13.9140    7.7420 O.2   411  ASP411     -0.2718
     16  CB       -20.5840  -14.2380    9.1610 C.3   411  ASP411      0.1424
     17  CG       -20.5910  -15.1870    7.9930 C.2   411  ASP411      0.3668
     18  OD1      -21.6030  -15.9100    7.8220 O.co2 411  ASP411     -0.2456
     19  OD2      -19.5850  -15.2050    7.2450 O.co2 411  ASP411     -0.2456
     20  N        -22.4060  -12.0040    7.8690 N.am  412  LEU412     -0.1979
     21  CA       -23.0080  -11.3450    6.7340 C.3   412  LEU412      0.1596
     22  C        -22.3460  -11.7710    5.4160 C.2   412  LEU412      0.2287
     23  O        -21.1420  -11.9500    5.3280 O.2   412  LEU412     -0.2864
     24  CB       -22.8780   -9.8360    6.9510 C.3   412  LEU412      0.0297
     25  CG       -23.8240   -9.2320    7.9990 C.3   412  LEU412      0.0022
     26  CD1      -23.2160   -8.0460    8.7710 C.3   412  LEU412      0.0001
     27  CD2      -25.1310   -8.7950    7.3310 C.3   412  LEU412      0.0001
     28  N        -20.7540  -11.2860    1.9210 N.3   414  SER414     -0.1202
     29  CA       -19.8920  -10.2620    1.2820 C.3   414  SER414      0.2020
     30  C        -20.1760   -8.8230    1.7060 C.2   414  SER414      0.2619
     31  O        -20.6920   -8.0120    0.9200 O.2   414  SER414     -0.2717
     32  CB       -19.9740  -10.3600   -0.2380 C.3   414  SER414      0.2103
     33  OG       -19.6410  -11.6710   -0.6530 O.3   414  SER414     -0.2182
     34  N        -19.8460   -8.5180    2.9540 N.am  415  LEU415     -0.1965
     35  CA       -20.3150   -7.2910    3.5870 C.3   415  LEU415      0.1728
     36  C        -20.1030   -6.0100    2.7790 C.2   415  LEU415      0.2616
     37  O        -21.0710   -5.4080    2.3660 O.2   415  LEU415     -0.2715
     38  CB       -19.7710   -7.1570    5.0190 C.3   415  LEU415      0.0311
     39  CG       -20.2700   -5.9530    5.8180 C.3   415  LEU415      0.0022
     40  CD1      -21.7890   -5.9670    5.9310 C.3   415  LEU415      0.0001
     41  CD2      -19.6600   -5.9830    7.1770 C.3   415  LEU415      0.0001
     42  N        -18.8620   -5.5800    2.5580 N.am  416  TYR416     -0.1960
     43  CA       -18.6400   -4.3080    1.8410 C.3   416  TYR416      0.1756
     44  C        -19.2940   -4.2160    0.4460 C.2   416  TYR416      0.2461
     45  O        -19.9330   -3.2160    0.1460 O.2   416  TYR416     -0.2730
     46  CB       -17.1560   -3.8900    1.8070 C.3   416  TYR416      0.0574
     47  CG       -16.5870   -3.4570    3.1510 C.ar  416  TYR416     -0.0198
     48  CD1      -17.3290   -3.5990    4.3170 C.ar  416  TYR416     -0.0009
     49  CD2      -15.3090   -2.9090    3.2510 C.ar  416  TYR416     -0.0009
     50  CE1      -16.8300   -3.1990    5.5410 C.ar  416  TYR416      0.0417
     51  CE2      -14.7980   -2.5100    4.4730 C.ar  416  TYR416      0.0417
     52  CZ       -15.5730   -2.6630    5.6160 C.ar  416  TYR416      0.1957
     53  OH       -15.1100   -2.2910    6.8490 O.3   416  TYR416     -0.2866
     54  N        -19.1650   -5.2630   -0.4030 N.am  417  PRO417     -0.2727
     55  CA       -19.9160   -5.2330   -1.6800 C.3   417  PRO417      0.1402
     56  C        -21.4380   -5.1640   -1.5210 C.2   417  PRO417      0.2269
     57  O        -22.1090   -4.4520   -2.2760 O.2   417  PRO417     -0.2865
     58  CB       -19.5420   -6.5650   -2.3330 C.3   417  PRO417      0.0296
     59  CG       -18.1670   -6.8550   -1.7950 C.3   417  PRO417      0.0237
     60  CD       -18.1790   -6.3670   -0.3740 C.3   417  PRO417      0.0939
     61  N        -19.4810  -15.2640   -8.8040 N.3   482  ARG482     -0.1245
     62  CA       -18.8070  -15.9880   -7.7470 C.3   482  ARG482      0.1563
     63  C        -19.6750  -17.0990   -7.1920 C.2   482  ARG482      0.2260
     64  O        -19.1640  -18.1670   -6.8840 O.2   482  ARG482     -0.2867
     65  CB       -18.3850  -15.0330   -6.6370 C.3   482  ARG482      0.0307
     66  CG       -17.6410  -15.6940   -5.5100 C.3   482  ARG482      0.0489
     67  CD       -17.2900  -14.6910   -4.4460 C.3   482  ARG482      0.2205
     68  NE       -16.9490  -15.3450   -3.1840 N.pl3 482  ARG482     -0.0865
     69  CZ       -17.7470  -15.4170   -2.1200 C.cat 482  ARG482      0.5346
     70  NH1      -18.9700  -14.8930   -2.1550 N.pl3 482  ARG482      0.1354
     71  NH2      -17.3250  -16.0250   -1.0150 N.pl3 482  ARG482      0.1354
     72  N        -18.5840  -20.8540   -5.6920 N.3   486  LYS486     -0.1245
     73  CA       -18.6260  -21.0410   -4.2510 C.3   486  LYS486      0.1561
     74  C        -19.4600  -22.2730   -3.9690 C.2   486  LYS486      0.2260
     75  O        -19.1150  -23.0820   -3.1110 O.2   486  LYS486     -0.2867
     76  CB       -19.2120  -19.8200   -3.5510 C.3   486  LYS486      0.0271
     77  CG       -19.6570  -20.0680   -2.1350 C.3   486  LYS486      0.0035
     78  CD       -18.5150  -19.9170   -1.1760 C.3   486  LYS486      0.0206
     79  CE       -19.0260  -19.8250    0.2610 C.3   486  LYS486      0.1093
     80  NZ       -20.0850  -18.7780    0.3920 N.3   486  LYS486     -0.1314
     81  N        -13.5760  -19.0030   -6.2960 N.3   556  GLN556     -0.1231
     82  CA       -14.5370  -18.1940   -5.5770 C.3   556  GLN556      0.1698
     83  C        -13.8300  -17.0990   -4.7610 C.2   556  GLN556      0.2592
     84  O        -14.2340  -15.9140   -4.7970 O.2   556  GLN556     -0.2718
     85  CB       -15.5140  -19.0480   -4.7460 C.3   556  GLN556      0.0381
     86  CG       -14.9430  -19.7210   -3.5180 C.3   556  GLN556      0.0905
     87  CD       -14.9180  -18.7990   -2.3100 C.2   556  GLN556      0.2608
     88  OE1      -15.4910  -17.7030   -2.3280 O.2   556  GLN556     -0.2717
     89  NE2      -14.2580  -19.2370   -1.2570 N.am  556  GLN556     -0.0878
     90  N        -12.7490  -17.4740   -4.0730 N.am  557  ILE557     -0.1980
     91  CA       -12.1430  -16.5370   -3.1510 C.3   557  ILE557      0.1595
     92  C        -11.4290  -15.3780   -3.8480 C.2   557  ILE557      0.2287
     93  O        -11.3910  -14.2500   -3.3310 O.2   557  ILE557     -0.2864
     94  CB       -11.2630  -17.2060   -2.0980 C.3   557  ILE557      0.0276
     95  CG1      -11.3500  -16.3730   -0.8040 C.3   557  ILE557      0.0022
     96  CG2       -9.8230  -17.4710   -2.6590 C.3   557  ILE557      0.0022
     97  CD1      -10.3450  -16.7970    0.2450 C.3   557  ILE557      0.0001
     98  N        -13.9630  -12.8510   -4.7600 N.3   560  LYS560     -0.1231
     99  CA       -14.2420  -12.0740   -3.5630 C.3   560  LYS560      0.1693
    100  C        -13.1190  -11.0480   -3.2930 C.2   560  LYS560      0.2591
    101  O        -13.3920   -9.9080   -2.8660 O.2   560  LYS560     -0.2718
    102  CB       -14.4690  -12.9900   -2.3520 C.3   560  LYS560      0.0285
    103  CG       -14.7580  -12.2240   -1.0590 C.3   560  LYS560      0.0035
    104  CD       -15.0340  -13.1420    0.1160 C.3   560  LYS560      0.0206
    105  CE       -16.4640  -12.9510    0.5930 C.3   560  LYS560      0.1093
    106  NZ       -16.8090  -13.8350    1.7370 N.3   560  LYS560     -0.1314
    107  N        -11.8690  -11.4530   -3.5500 N.am  561  LEU561     -0.1980
    108  CA       -10.7260  -10.5480   -3.4300 C.3   561  LEU561      0.1596
    109  C        -10.9210   -9.3820   -4.3650 C.2   561  LEU561      0.2287
    110  O        -10.7000   -8.2350   -3.9870 O.2   561  LEU561     -0.2864
    111  CB        -9.3860  -11.2470   -3.7450 C.3   561  LEU561      0.0297
    112  CG        -8.0650  -10.4210   -3.7870 C.3   561  LEU561      0.0022
    113  CD1       -7.8290   -9.5940   -2.5400 C.3   561  LEU561      0.0001
    114  CD2       -6.8330  -11.2940   -4.0170 C.3   561  LEU561      0.0001
    115  N        -13.8960   -7.2260   -3.0100 N.3   564  ASN564     -0.1225
    116  CA       -13.3910   -6.5030   -1.8340 C.3   564  ASN564      0.1785
    117  C        -12.3960   -5.4020   -2.2080 C.2   564  ASN564      0.2597
    118  O        -12.3890   -4.3140   -1.6110 O.2   564  ASN564     -0.2718
    119  CB       -12.7730   -7.4420   -0.7890 C.3   564  ASN564      0.1169
    120  CG       -13.8160   -8.2940   -0.0870 C.2   564  ASN564      0.2627
    121  OD1      -15.0330   -8.0460   -0.2140 O.2   564  ASN564     -0.2716
    122  ND2      -13.3590   -9.3120    0.6510 N.am  564  ASN564     -0.0877
    123  N        -11.5890   -5.6590   -3.2280 N.am  565  SER565     -0.1952
    124  CA       -10.6050   -4.6670   -3.6660 C.3   565  SER565      0.1924
    125  C        -11.2250   -3.4160   -4.3050 C.2   565  SER565      0.2314
    126  O        -10.6190   -2.3370   -4.2500 O.2   565  SER565     -0.2863
    127  CB        -9.5470   -5.2940   -4.5790 C.3   565  SER565      0.2116
    128  OG        -8.7680   -6.2050   -3.8300 O.3   565  SER565     -0.2180
    129  N        -13.9440   -1.9860   -3.0450 N.3   567  ALA567     -0.1231
    130  CA       -14.2250   -1.1810   -1.8480 C.3   567  ALA567      0.1694
    131  C        -12.9940   -0.4340   -1.3450 C.2   567  ALA567      0.2592
    132  O        -13.0760    0.7460   -0.9810 O.2   567  ALA567     -0.2718
    133  CB       -14.7880   -2.0330   -0.7450 C.3   567  ALA567      0.0304
    134  N        -11.8640   -1.1370   -1.3130 N.am  568  GLY568     -0.1957
    135  CA       -10.5850   -0.5490   -0.9440 C.3   568  GLY568      0.1869
    136  C        -10.0690    0.4540   -1.9740 C.2   568  GLY568      0.2309
    137  O         -9.5650    1.5140   -1.6100 O.2   568  GLY568     -0.2863
    138  N        -15.9540   -6.9750   12.1710 N.3   622  THR622     -0.1203
    139  CA       -16.3000   -6.6220   10.7890 C.3   622  THR622      0.1994
    140  C        -17.6720   -7.1200   10.2950 C.2   622  THR622      0.2617
    141  O        -18.6110   -6.3430   10.1980 O.2   622  THR622     -0.2717
    142  CB       -15.2190   -7.0590    9.7920 C.3   622  THR622      0.1784
    143  OG1      -13.9300   -6.6690   10.2770 O.3   622  THR622     -0.2211
    144  CG2      -15.4600   -6.4020    8.4620 C.3   622  THR622      0.0376
    145  N        -17.7620   -8.4090    9.9820 N.am  623  ASP623     -0.1973
    146  CA       -18.9490   -8.9930    9.3650 C.3   623  ASP623      0.1709
    147  C        -19.5910  -10.0720   10.2340 C.2   623  ASP623      0.2293
    148  O        -20.5600  -10.7130    9.8140 O.2   623  ASP623     -0.2864
    149  CB       -18.6030   -9.6100    7.9980 C.3   623  ASP623      0.1436
    150  CG       -17.7620  -10.8690    8.1180 C.2   623  ASP623      0.3671
    151  OD1      -17.2690  -11.1760    9.2310 O.co2 623  ASP623     -0.2456
    152  OD2      -17.5760  -11.5590    7.0930 O.co2 623  ASP623     -0.2456
    153  N        -23.0210  -19.5700   10.9680 N.3   686  GLU686     -0.1245
    154  CA       -21.7360  -19.9930   10.4490 C.3   686  GLU686      0.1567
    155  C        -21.2790  -21.1970   11.2800 C.2   686  GLU686      0.2260
    156  O        -21.5720  -22.3300   10.9130 O.2   686  GLU686     -0.2867
    157  CB       -20.7540  -18.8190   10.4970 C.3   686  GLU686      0.0388
    158  CG       -19.3740  -19.1060    9.9510 C.3   686  GLU686      0.1160
    159  CD       -19.3160  -19.0870    8.4370 C.2   686  GLU686      0.3649
    160  OE1      -20.3890  -19.1340    7.7880 O.co2 686  GLU686     -0.2457
    161  OE2      -18.1890  -19.0270    7.8910 O.co2 686  GLU686     -0.2457
@<TRIPOS>BOND
     1    61    62    1
     2    62    63    1
     3    62    65    1
     4    63    64    2
     5    65    66    1
     6    81    82    1
     7    72    73    1
     8    82    83    1
     9    82    85    1
    10    66    67    1
    11    84    83    2
    12    83    90   am
    13    98    99    1
    14    85    86    1
    15   127   128    1
    16   127   124    1
    17    67    68    1
    18   109   110    2
    19   109   108    1
    20   125   126    2
    21   125   124    1
    22    73    74    1
    23    73    76    1
    24    90    91    1
    25   114   112    1
    26    74    75    2
    27    92    93    2
    28    92    91    1
    29   112   111    1
    30   112   113    1
    31   111   108    1
    32   124   123    1
    33    99   100    1
    34    99   102    1
    35    76    77    1
    36   107   108    1
    37   107   100   am
    38    86    87    1
    39   100   101    2
    40   123   117   am
    41    68    69    2
    42    91    94    1
    43   129   130    1
    44   115   116    1
    45    96    94    1
    46   102   103    1
    47    58    59    1
    48    58    55    1
    49    88    87    2
    50    87    89   am
    51    57    56    2
    52   117   116    1
    53   117   118    2
    54    70    69    1
    55    77    78    1
    56    69    71    1
    57    94    95    1
    58   136   137    2
    59   136   135    1
    60   130   131    1
    61   130   133    1
    62   116   119    1
    63    59    60    1
    64     9     7   ar
    65     9    11   ar
    66    55    56    1
    67    55    54    1
    68   131   134   am
    69   131   132    2
    70   134   135    1
    71    78    79    1
    72     7     6   ar
    73   103   104    1
    74    11    10   ar
    75    95    97    1
    76   119   120    1
    77    33    32    1
    78     1     2    1
    79    54    60    1
    80    54    44   am
    81    32    29    1
    82   121   120    2
    83   120   122   am
    84   104   105    1
    85    45    44    2
    86     6     5    1
    87     6     8   ar
    88    79    80    1
    89    10     8   ar
    90    44    43    1
    91   105   106    1
    92     2     5    1
    93     2     3    1
    94    31    30    2
    95    29    30    1
    96    29    28    1
    97    30    34   am
    98     3     4    2
    99    46    43    1
   100    46    47    1
   101    43    42    1
   102    37    36    2
   103    42    36   am
   104    36    35    1
   105    34    35    1
   106    47    49   ar
   107    47    48   ar
   108    49    51   ar
   109    35    38    1
   110    48    50   ar
   111    51    52   ar
   112    38    39    1
   113    23    22    2
   114    22    21    1
   115    50    52   ar
   116    52    53    1
   117    39    40    1
   118    39    41    1
   119    21    24    1
   120    21    20    1
   121    24    25    1
   122   152   150   ar
   123    19    17   ar
   124    27    25    1
   125    15    14    2
   126   160   159   ar
   127    18    17   ar
   128    20    14   am
   129   161   159   ar
   130    17    16    1
   131   149   150    1
   132   149   146    1
   133    25    26    1
   134   150   151   ar
   135    14    13    1
   136   159   158    1
   137   144   142    1
   138    16    13    1
   139   146   145    1
   140   146   147    1
   141    13    12    1
   142   142   143    1
   143   142   139    1
   144   148   147    2
   145   158   157    1
   146   145   140   am
   147   141   140    2
   148   140   139    1
   149   154   157    1
   150   154   153    1
   151   154   155    1
   152   139   138    1
   153   156   155    2
