@<TRIPOS>MOLECULE
tmp/4khnA00.pdb
 155 147 0 0 0
SMALL
GASTEIGER

@<TRIPOS>ATOM
      1  N         -3.4920    3.1450  -34.8430 N.3    33  TYR33      -0.1227
      2  CA        -4.7030    3.3790  -34.0580 C.3    33  TYR33       0.1736
      3  C         -5.0150    4.8510  -33.8280 C.2    33  TYR33       0.2595
      4  O         -4.1330    5.6380  -33.4850 O.2    33  TYR33      -0.2718
      5  CB        -4.6350    2.6360  -32.7220 C.3    33  TYR33       0.0548
      6  CG        -5.8760    2.7880  -31.8650 C.ar   33  TYR33      -0.0200
      7  CD1       -7.1220    2.3500  -32.3230 C.ar   33  TYR33      -0.0009
      8  CD2       -5.8020    3.3480  -30.5820 C.ar   33  TYR33      -0.0009
      9  CE1       -8.2660    2.4820  -31.5450 C.ar   33  TYR33       0.0417
     10  CE2       -6.9450    3.4810  -29.7880 C.ar   33  TYR33       0.0417
     11  CZ        -8.1770    3.0450  -30.2730 C.ar   33  TYR33       0.1957
     12  OH        -9.3110    3.1710  -29.4840 O.3    33  TYR33      -0.2866
     13  N         -6.2850    5.1990  -34.0220 N.am   34  LYS34      -0.1980
     14  CA        -6.7660    6.5690  -33.8740 C.3    34  LYS34       0.1596
     15  C         -7.6510    6.7010  -32.6420 C.2    34  LYS34       0.2287
     16  O         -8.8260    6.3520  -32.6580 O.2    34  LYS34      -0.2864
     17  CB        -7.5110    7.0020  -35.1350 C.3    34  LYS34       0.0298
     18  CG        -6.6000    7.1000  -36.3470 C.3    34  LYS34       0.0038
     19  CD        -7.3110    7.7080  -37.5400 C.3    34  LYS34       0.0206
     20  CE        -6.3010    8.2100  -38.5620 C.3    34  LYS34       0.1093
     21  NZ        -5.1100    7.3020  -38.6340 N.3    34  LYS34      -0.1314
     22  N         -9.7030    8.3960  -29.3000 N.3    36  SER36      -0.1217
     23  CA       -10.6110    9.5070  -29.0500 C.3    36  SER36       0.1889
     24  C        -10.5420    9.9040  -27.5930 C.2    36  SER36       0.2288
     25  O        -10.4380    9.0460  -26.7250 O.2    36  SER36      -0.2866
     26  CB       -12.0390    9.1070  -29.3900 C.3    36  SER36       0.2089
     27  OG       -12.2250    9.0900  -30.7880 O.3    36  SER36      -0.2183
     28  N        -12.2680   13.2810  -24.9090 N.3    38  PHE38      -0.1241
     29  CA       -13.4600   14.0900  -24.8000 C.3    38  PHE38       0.1605
     30  C        -13.2410   15.3540  -23.9880 C.2    38  PHE38       0.2264
     31  O        -12.3770   15.4120  -23.1020 O.2    38  PHE38      -0.2867
     32  CB       -14.5530   13.2460  -24.1430 C.3    38  PHE38       0.0534
     33  CG       -14.9030   12.0150  -24.9250 C.ar   38  PHE38      -0.0203
     34  CD1      -14.1700   10.8520  -24.7760 C.ar   38  PHE38      -0.0042
     35  CD2      -15.9520   12.0310  -25.8330 C.ar   38  PHE38      -0.0042
     36  CE1      -14.4850    9.7170  -25.5080 C.ar   38  PHE38      -0.0003
     37  CE2      -16.2670   10.9020  -26.5710 C.ar   38  PHE38      -0.0003
     38  CZ       -15.5240    9.7400  -26.4110 C.ar   38  PHE38      -0.0000
     39  N        -24.0090   12.3160  -28.6470 N.3    48  LYS48      -0.1231
     40  CA       -24.5490   11.2970  -27.7760 C.3    48  LYS48       0.1693
     41  C        -23.6250   11.0010  -26.5850 C.2    48  LYS48       0.2592
     42  O        -23.8860   10.0690  -25.8230 O.2    48  LYS48      -0.2718
     43  CB       -24.7480   10.0180  -28.5890 C.3    48  LYS48       0.0285
     44  CG       -23.5150    9.6450  -29.3920 C.3    48  LYS48       0.0035
     45  CD       -23.5650    8.2160  -29.8780 C.3    48  LYS48       0.0206
     46  CE       -22.4160    7.9250  -30.8270 C.3    48  LYS48       0.1093
     47  NZ       -22.5850    6.6030  -31.4920 N.3    48  LYS48      -0.1314
     48  N        -22.5470   11.7730  -26.4270 N.am   49  TYR49      -0.1976
     49  CA       -21.5680   11.5040  -25.3600 C.3    49  TYR49       0.1639
     50  C        -21.7690   12.3670  -24.1120 C.2    49  TYR49       0.2290
     51  O        -21.8440   13.5970  -24.1860 O.2    49  TYR49      -0.2864
     52  CB       -20.1300   11.6480  -25.8670 C.3    49  TYR49       0.0560
     53  CG       -19.7960   10.7190  -27.0030 C.ar   49  TYR49      -0.0198
     54  CD1      -19.5280    9.3770  -26.7670 C.ar   49  TYR49      -0.0009
     55  CD2      -19.7600   11.1840  -28.3190 C.ar   49  TYR49      -0.0009
     56  CE1      -19.2370    8.5130  -27.8130 C.ar   49  TYR49       0.0417
     57  CE2      -19.4720   10.3410  -29.3750 C.ar   49  TYR49       0.0417
     58  CZ       -19.2110    9.0060  -29.1200 C.ar   49  TYR49       0.1957
     59  OH       -18.9200    8.1630  -30.1620 O.3    49  TYR49      -0.2866
     60  N        -16.6810   14.6570  -28.6600 N.3    59  ARG59      -0.1245
     61  CA       -15.6200   13.7070  -28.9780 C.3    59  ARG59       0.1563
     62  C        -14.5220   14.3320  -29.8410 C.2    59  ARG59       0.2260
     63  O        -14.8110   15.0370  -30.8060 O.2    59  ARG59      -0.2867
     64  CB       -16.2160   12.5080  -29.7110 C.3    59  ARG59       0.0307
     65  CG       -15.1960   11.6660  -30.4040 C.3    59  ARG59       0.0489
     66  CD       -15.5350   10.2320  -30.2520 C.3    59  ARG59       0.2205
     67  NE       -16.1190    9.7120  -31.4600 N.pl3  59  ARG59      -0.0865
     68  CZ       -15.4610    8.9690  -32.3360 C.cat  59  ARG59       0.5346
     69  NH1      -14.1860    8.6670  -32.1360 N.pl3  59  ARG59       0.1354
     70  NH2      -16.0860    8.5300  -33.4160 N.pl3  59  ARG59       0.1354
     71  N        -11.9420   10.6300  -20.8360 N.3    84  GLY84      -0.1210
     72  CA       -11.8200    9.4340  -21.6540 C.3    84  GLY84       0.1956
     73  C        -10.6390    8.5520  -21.2570 C.2    84  GLY84       0.2611
     74  O         -9.7580    8.9850  -20.5110 O.2    84  GLY84      -0.2717
     75  N        -10.6250    7.3160  -21.7590 N.am   85  MET85      -0.1979
     76  CA        -9.5520    6.3630  -21.4970 C.3    85  MET85       0.1605
     77  C         -8.2080    6.7890  -22.0940 C.2    85  MET85       0.2287
     78  O         -8.0030    6.7110  -23.2970 O.2    85  MET85      -0.2864
     79  CB        -9.9350    4.9760  -22.0300 C.3    85  MET85       0.0413
     80  CG        -8.9070    3.8760  -21.7490 C.3    85  MET85       0.0598
     81  SD        -8.2340    3.7780  -20.0440 S.3    85  MET85      -0.1393
     82  CE        -9.5790    2.9880  -19.1460 C.3    85  MET85       0.0692
     83  N         -8.4300    1.1370  -24.8280 N.3    91  ALA91      -0.1245
     84  CA        -9.4950    1.6220  -25.7040 C.3    91  ALA91       0.1562
     85  C         -9.5150    0.8190  -27.0220 C.2    91  ALA91       0.2260
     86  O        -10.5850    0.4880  -27.5630 O.2    91  ALA91      -0.2867
     87  CB        -9.3800    3.1310  -25.9590 C.3    91  ALA91       0.0290
     88  N        -12.6290   -1.3880  -28.3710 N.3    95  ASP95      -0.1239
     89  CA       -13.1870   -1.1660  -29.7150 C.3    95  ASP95       0.1674
     90  C        -13.2180   -2.4690  -30.5220 C.2    95  ASP95       0.2266
     91  O        -14.2070   -2.8000  -31.1660 O.2    95  ASP95      -0.2867
     92  CB       -12.3740   -0.1250  -30.5130 C.3    95  ASP95       0.1410
     93  CG       -12.4960    1.2950  -29.9610 C.2    95  ASP95       0.3668
     94  OD1      -13.4190    1.5470  -29.1560 O.co2  95  ASP95      -0.2456
     95  OD2      -11.6730    2.1690  -30.3470 O.co2  95  ASP95      -0.2456
     96  N        -15.8140   -5.6130  -28.9410 N.3    98  ASN98      -0.1240
     97  CA       -17.0620   -5.0870  -28.3990 C.3    98  ASN98       0.1653
     98  C        -18.0980   -6.1730  -28.1350 C.2    98  ASN98       0.2266
     99  O        -19.2230   -6.0920  -28.6140 O.2    98  ASN98      -0.2867
    100  CB       -17.6520   -4.0480  -29.3580 C.3    98  ASN98       0.1155
    101  CG       -18.3420   -2.9020  -28.6290 C.2    98  ASN98       0.2627
    102  OD1      -18.9110   -3.0850  -27.5470 O.2    98  ASN98      -0.2716
    103  ND2      -18.2830   -1.7060  -29.2160 N.am   98  ASN98      -0.0877
    104  N        -14.8480    1.2600  -17.3450 N.3   370  PHE370     -0.1241
    105  CA       -14.7280    1.9080  -18.6580 C.3   370  PHE370      0.1605
    106  C        -15.5140    1.1710  -19.7210 C.2   370  PHE370      0.2264
    107  O        -16.2550    1.7870  -20.4870 O.2   370  PHE370     -0.2867
    108  CB       -13.2490    2.0050  -19.0790 C.3   370  PHE370      0.0534
    109  CG       -13.0290    2.2110  -20.5680 C.ar  370  PHE370     -0.0203
    110  CD1      -13.5680    3.3110  -21.2240 C.ar  370  PHE370     -0.0042
    111  CD2      -12.2440    1.3200  -21.2950 C.ar  370  PHE370     -0.0042
    112  CE1      -13.3740    3.5080  -22.5860 C.ar  370  PHE370     -0.0003
    113  CE2      -12.0230    1.5160  -22.6650 C.ar  370  PHE370     -0.0003
    114  CZ       -12.5960    2.6140  -23.3120 C.ar  370  PHE370     -0.0000
    115  N        -18.9170    2.6980  -21.5770 N.3   374  LYS374     -0.1245
    116  CA       -18.7970    2.8940  -23.0180 C.3   374  LYS374      0.1561
    117  C        -20.0060    2.3120  -23.7410 C.2   374  LYS374      0.2260
    118  O        -20.4410    2.8390  -24.7700 O.2   374  LYS374     -0.2867
    119  CB       -17.4980    2.2550  -23.5100 C.3   374  LYS374      0.0271
    120  CG       -17.2450    2.3080  -24.9930 C.3   374  LYS374      0.0035
    121  CD       -15.9120    1.6590  -25.3130 C.3   374  LYS374      0.0206
    122  CE       -15.7890    1.2860  -26.7840 C.3   374  LYS374      0.1093
    123  NZ       -16.7950    0.2590  -27.1960 N.3   374  LYS374     -0.1314
    124  N        -22.4520    4.8680  -24.0730 N.3   377  ASN377     -0.1225
    125  CA       -21.9120    6.0950  -24.6530 C.3   377  ASN377      0.1785
    126  C        -21.5580    7.1390  -23.5980 C.2   377  ASN377      0.2597
    127  O        -21.6100    8.3450  -23.8520 O.2   377  ASN377     -0.2718
    128  CB       -22.8910    6.6880  -25.6700 C.3   377  ASN377      0.1169
    129  CG       -22.9440    5.8980  -26.9480 C.2   377  ASN377      0.2627
    130  OD1      -21.9400    5.3360  -27.3840 O.2   377  ASN377     -0.2716
    131  ND2      -24.1170    5.8490  -27.5640 N.am  377  ASN377     -0.0877
    132  N        -21.2260    6.6730  -22.4030 N.am  378  LYS378     -0.1966
    133  CA       -20.8220    7.5810  -21.3480 C.3   378  LYS378      0.1728
    134  C        -19.2950    7.7230  -21.2670 C.2   378  LYS378      0.2616
    135  O        -18.5380    6.8360  -21.7060 O.2   378  LYS378     -0.2715
    136  CB       -21.4170    7.1420  -20.0200 C.3   378  LYS378      0.0311
    137  CG       -22.9200    7.3130  -19.9560 C.3   378  LYS378      0.0038
    138  CD       -23.3800    7.2390  -18.5240 C.3   378  LYS378      0.0206
    139  CE       -24.8990    7.1810  -18.4080 C.3   378  LYS378      0.1093
    140  NZ       -25.3390    5.8370  -17.9260 N.3   378  LYS378     -0.1314
    141  N        -18.8480    8.8490  -20.7170 N.am  379  VAL379     -0.1963
    142  CA       -17.4320    9.2090  -20.7620 C.3   379  VAL379      0.1727
    143  C        -16.7840    9.2330  -19.3710 C.2   379  VAL379      0.2616
    144  O        -17.2590    9.9240  -18.4750 O.2   379  VAL379     -0.2715
    145  CB       -17.2620   10.5700  -21.4740 C.3   379  VAL379      0.0290
    146  CG1      -15.8810   11.1140  -21.2700 C.3   379  VAL379      0.0023
    147  CG2      -17.5510   10.4160  -22.9530 C.3   379  VAL379      0.0023
    148  N        -15.6940    8.4880  -19.1950 N.am  380  ILE380     -0.1977
    149  CA       -15.0450    8.3940  -17.8810 C.3   380  ILE380      0.1596
    150  C        -14.2520    9.6640  -17.5370 C.2   380  ILE380      0.2287
    151  O        -13.6390   10.2810  -18.4180 O.2   380  ILE380     -0.2864
    152  CB       -14.1290    7.1460  -17.7540 C.3   380  ILE380      0.0276
    153  CG1      -12.9290    7.2450  -18.6870 C.3   380  ILE380      0.0022
    154  CG2      -14.8740    5.8860  -18.0920 C.3   380  ILE380      0.0022
    155  CD1      -11.9010    6.1660  -18.4090 C.3   380  ILE380      0.0001
@<TRIPOS>BOND
     1    21    20    1
     2    20    19    1
     3    19    18    1
     4    18    17    1
     5    17    14    1
     6     1     2    1
     7     2     3    1
     8     2     5    1
     9    13    14    1
    10    13     3   am
    11    14    15    1
    12     3     4    2
    13    70    68    1
    14     5     6    1
    15    16    15    2
    16    68    69    1
    17    68    67    2
    18     7     6   ar
    19     7     9   ar
    20     6     8   ar
    21     9    11   ar
    22    47    46    1
    23    67    66    1
    24    91    90    2
    25    46    45    1
    26    63    62    2
    27    27    26    1
    28     8    10   ar
    29    90    89    1
    30    92    93    1
    31    92    89    1
    32    65    66    1
    33    65    64    1
    34    95    93   ar
    35    11    10   ar
    36    11    12    1
    37    59    58    1
    38    93    94   ar
    39    45    44    1
    40    62    61    1
    41    89    88    1
    42    64    61    1
    43    44    43    1
    44    26    23    1
    45    57    58   ar
    46    57    55   ar
    47   100   101    1
    48   100    97    1
    49    22    23    1
    50   103   101   am
    51    58    56   ar
    52    23    24    1
    53    61    60    1
    54    96    97    1
    55    39    40    1
    56   101   102    2
    57    99    98    2
    58    43    40    1
    59    97    98    1
    60    55    53   ar
    61    56    54   ar
    62    40    41    1
    63    24    25    2
    64   131   129   am
    65    86    85    2
    66   130   129    2
    67   123   122    1
    68    85    84    1
    69    53    54   ar
    70    53    52    1
    71   129   128    1
    72   122   121    1
    73    41    48   am
    74    41    42    2
    75    37    38   ar
    76    37    35   ar
    77    48    49    1
    78    38    36   ar
    79    87    84    1
    80    52    49    1
    81    35    33   ar
    82    84    83    1
    83   128   125    1
    84    36    34   ar
    85    49    50    1
    86   121   120    1
    87   120   119    1
    88    33    34   ar
    89    33    32    1
    90    28    29    1
    91    29    32    1
    92    29    30    1
    93   118   117    2
    94   125   124    1
    95   125   126    1
    96    51    50    2
    97    30    31    2
    98   127   126    2
    99   117   116    1
   100   126   132   am
   101   119   116    1
   102   114   113   ar
   103   114   112   ar
   104    78    77    2
   105   116   115    1
   106   147   145    1
   107   113   111   ar
   108   112   110   ar
   109   132   133    1
   110    77    76    1
   111    79    80    1
   112    79    76    1
   113    75    76    1
   114    75    73   am
   115    80    81    1
   116   135   134    2
   117    72    73    1
   118    72    71    1
   119   145   146    1
   120   145   142    1
   121   133   134    1
   122   133   136    1
   123   111   109   ar
   124   134   141   am
   125    73    74    2
   126   110   109   ar
   127   142   141    1
   128   142   143    1
   129   109   108    1
   130   107   106    2
   131    81    82    1
   132   136   137    1
   133   137   138    1
   134   106   105    1
   135   143   148   am
   136   143   144    2
   137   148   149    1
   138   108   105    1
   139   153   155    1
   140   153   152    1
   141   105   104    1
   142   138   139    1
   143   151   150    2
   144   139   140    1
   145   154   152    1
   146   149   152    1
   147   149   150    1
