@<TRIPOS>MOLECULE
tmp/4khqA00.pdb
 153 147 0 0 0
SMALL
GASTEIGER

@<TRIPOS>ATOM
      1  N          1.7760   41.5300   28.8200 N.3   279  PHE279     -0.1241
      2  CA         0.6500   41.8570   27.9500 C.3   279  PHE279      0.1605
      3  C         -0.5750   41.0010   28.2550 C.2   279  PHE279      0.2264
      4  O         -1.1800   40.3950   27.3690 O.2   279  PHE279     -0.2867
      5  CB         1.0510   41.7890   26.4750 C.3   279  PHE279      0.0534
      6  CG         1.9470   42.9160   26.0540 C.ar  279  PHE279     -0.0203
      7  CD1        1.4140   44.0790   25.5250 C.ar  279  PHE279     -0.0042
      8  CD2        3.3190   42.8260   26.2210 C.ar  279  PHE279     -0.0042
      9  CE1        2.2360   45.1250   25.1500 C.ar  279  PHE279     -0.0003
     10  CE2        4.1450   43.8690   25.8470 C.ar  279  PHE279     -0.0003
     11  CZ         3.6030   45.0190   25.3110 C.ar  279  PHE279     -0.0000
     12  N         -1.6870   44.3510    7.3960 N.3   408  ASP408     -0.1225
     13  CA        -1.2220   45.4570    8.2230 C.3   408  ASP408      0.1805
     14  C          0.2490   45.7460    7.9650 C.2   408  ASP408      0.2598
     15  O          0.9330   44.9800    7.2840 O.2   408  ASP408     -0.2718
     16  CB        -1.4940   45.2000    9.7110 C.3   408  ASP408      0.1424
     17  CG        -0.3090   44.5910   10.4310 C.2   408  ASP408      0.3668
     18  OD1        0.0610   45.1170   11.5020 O.co2 408  ASP408     -0.2456
     19  OD2        0.2420   43.5830    9.9440 O.co2 408  ASP408     -0.2456
     20  N          0.7310   46.8580    8.5090 N.am  409  LEU409     -0.1966
     21  CA         2.0980   47.2940    8.2610 C.3   409  LEU409      0.1728
     22  C          3.0620   46.8840    9.3720 C.2   409  LEU409      0.2617
     23  O          2.6840   46.8020   10.5400 O.2   409  LEU409     -0.2715
     24  CB         2.1370   48.8070    8.0380 C.3   409  LEU409      0.0311
     25  CG         1.4940   49.2570    6.7220 C.3   409  LEU409      0.0022
     26  CD1        0.2860   50.1470    6.9700 C.3   409  LEU409      0.0001
     27  CD2        2.5120   49.9630    5.8490 C.3   409  LEU409      0.0001
     28  N          4.3090   46.6250    8.9880 N.am  410  THR410     -0.1937
     29  CA         5.3500   46.2120    9.9220 C.3   410  THR410      0.2028
     30  C          5.8710   47.3890   10.7410 C.2   410  THR410      0.2643
     31  O          6.3960   48.3520   10.1740 O.2   410  THR410     -0.2714
     32  CB         6.5430   45.5790    9.1740 C.3   410  THR410      0.1808
     33  OG1        6.1470   44.3230    8.6120 O.3   410  THR410     -0.2208
     34  CG2        7.7100   45.3570   10.1200 C.3   410  THR410      0.0379
     35  N          5.7210   47.3010   12.0620 N.am  411  SER411     -0.1935
     36  CA         6.2030   48.3280   12.9880 C.3   411  SER411      0.2055
     37  C          5.8030   49.7270   12.5220 C.2   411  SER411      0.2643
     38  O          6.6610   50.5450   12.1990 O.2   411  SER411     -0.2714
     39  CB         7.7250   48.2340   13.1400 C.3   411  SER411      0.2130
     40  OG         8.1960   49.0890   14.1660 O.3   411  SER411     -0.2179
     41  N          4.4970   49.9810   12.4880 N.am  412  PHE412     -0.1959
     42  CA         3.9330   51.1730   11.8500 C.3   412  PHE412      0.1771
     43  C          4.5640   52.5220   12.2000 C.2   412  PHE412      0.2619
     44  O          5.1650   53.1680   11.3410 O.2   412  PHE412     -0.2715
     45  CB         2.4230   51.2280   12.0910 C.3   412  PHE412      0.0574
     46  CG         1.6980   52.1640   11.1720 C.ar  412  PHE412     -0.0200
     47  CD1        2.0130   52.2110    9.8240 C.ar  412  PHE412     -0.0042
     48  CD2        0.6860   52.9780   11.6490 C.ar  412  PHE412     -0.0042
     49  CE1        1.3420   53.0620    8.9700 C.ar  412  PHE412     -0.0003
     50  CE2        0.0070   53.8300   10.7970 C.ar  412  PHE412     -0.0003
     51  CZ         0.3370   53.8690    9.4550 C.ar  412  PHE412     -0.0000
     52  N          4.4220   52.9500   13.4490 N.am  413  TYR413     -0.1974
     53  CA         4.9300   54.2620   13.8430 C.3   413  TYR413      0.1639
     54  C          6.4580   54.3950   13.7550 C.2   413  TYR413      0.2290
     55  O          6.9540   55.4110   13.2730 O.2   413  TYR413     -0.2864
     56  CB         4.3890   54.6910   15.2130 C.3   413  TYR413      0.0560
     57  CG         2.9430   55.1430   15.1880 C.ar  413  TYR413     -0.0198
     58  CD1        2.1840   55.0570   14.0270 C.ar  413  TYR413     -0.0009
     59  CD2        2.3410   55.6700   16.3240 C.ar  413  TYR413     -0.0009
     60  CE1        0.8650   55.4710   14.0010 C.ar  413  TYR413      0.0417
     61  CE2        1.0250   56.0860   16.3070 C.ar  413  TYR413      0.0417
     62  CZ         0.2920   55.9870   15.1440 C.ar  413  TYR413      0.1957
     63  OH        -1.0200   56.4070   15.1300 O.3   413  TYR413     -0.2866
     64  N         14.3690   43.5220   17.3730 N.3   479  ARG479     -0.1245
     65  CA        12.9900   43.0540   17.4420 C.3   479  ARG479      0.1563
     66  C         12.6840   42.0720   16.3190 C.2   479  ARG479      0.2260
     67  O         12.1260   40.9990   16.5560 O.2   479  ARG479     -0.2867
     68  CB        12.0290   44.2470   17.3740 C.3   479  ARG479      0.0307
     69  CG        10.5620   43.8970   17.5920 C.3   479  ARG479      0.0489
     70  CD         9.8160   43.6820   16.2820 C.3   479  ARG479      0.2205
     71  NE         8.4920   43.1080   16.5070 N.pl3 479  ARG479     -0.0865
     72  CZ         7.3970   43.4680   15.8450 C.cat 479  ARG479      0.5346
     73  NH1        7.4610   44.4060   14.9080 N.pl3 479  ARG479      0.1354
     74  NH2        6.2370   42.8870   16.1190 N.pl3 479  ARG479      0.1354
     75  N         11.4250   38.1070   16.5360 N.3   483  LYS483     -0.1245
     76  CA        10.1130   37.7580   16.0050 C.3   483  LYS483      0.1561
     77  C         10.2340   36.5700   15.0580 C.2   483  LYS483      0.2260
     78  O          9.3540   35.7080   15.0090 O.2   483  LYS483     -0.2867
     79  CB         9.4620   38.9450   15.2890 C.3   483  LYS483      0.0271
     80  CG         8.0880   38.6150   14.7190 C.3   483  LYS483      0.0035
     81  CD         7.3850   39.8310   14.1470 C.3   483  LYS483      0.0206
     82  CE         6.0110   39.4520   13.6090 C.3   483  LYS483      0.1093
     83  NZ         5.1790   40.6380   13.2600 N.3   483  LYS483     -0.1314
     84  N          9.4020   45.8580   20.6520 N.3   557  LYS557     -0.1231
     85  CA         8.3790   46.6030   19.9260 C.3   557  LYS557      0.1693
     86  C          7.7530   47.6520   20.8370 C.2   557  LYS557      0.2591
     87  O          7.5330   48.7910   20.4290 O.2   557  LYS557     -0.2718
     88  CB         7.2920   45.6740   19.3750 C.3   557  LYS557      0.0285
     89  CG         6.0640   46.4290   18.8630 C.3   557  LYS557      0.0035
     90  CD         5.1450   45.5540   18.0160 C.3   557  LYS557      0.0206
     91  CE         4.5130   44.4380   18.8310 C.3   557  LYS557      0.1093
     92  NZ         3.4120   43.7770   18.0760 N.3   557  LYS557     -0.1314
     93  N          7.4670   47.2560   22.0730 N.am  558  LEU558     -0.1980
     94  CA         6.9260   48.1760   23.0660 C.3   558  LEU558      0.1596
     95  C          7.8680   49.3560   23.2890 C.2   558  LEU558      0.2287
     96  O          7.4310   50.5020   23.3840 O.2   558  LEU558     -0.2864
     97  CB         6.6790   47.4510   24.3900 C.3   558  LEU558      0.0297
     98  CG         6.3130   48.3410   25.5790 C.3   558  LEU558      0.0022
     99  CD1        4.9660   49.0150   25.3560 C.3   558  LEU558      0.0001
    100  CD2        6.3210   47.5460   26.8820 C.3   558  LEU558      0.0001
    101  N          7.8660   51.7050   20.1490 N.3   561  ASN561     -0.1240
    102  CA         6.5930   52.3970   20.1060 C.3   561  ASN561      0.1653
    103  C          6.4990   53.4460   21.2130 C.2   561  ASN561      0.2266
    104  O          5.8370   54.4750   21.0570 O.2   561  ASN561     -0.2867
    105  CB         5.4270   51.4080   20.1840 C.3   561  ASN561      0.1155
    106  CG         5.2090   50.6740   18.8740 C.2   561  ASN561      0.2627
    107  OD1        5.7830   51.0420   17.8600 O.2   561  ASN561     -0.2716
    108  ND2        4.3750   49.6400   18.8880 N.am  561  ASN561     -0.0877
    109  N          8.0100   56.6770   20.1450 N.3   564  TYR564     -0.1241
    110  CA         6.9470   57.4970   19.5500 C.3   564  TYR564      0.1605
    111  C          6.1480   58.1950   20.6570 C.2   564  TYR564      0.2264
    112  O          5.9190   59.4040   20.6050 O.2   564  TYR564     -0.2867
    113  CB         5.9770   56.6900   18.6660 C.3   564  TYR564      0.0534
    114  CG         4.5890   57.2810   18.7520 C.ar  564  TYR564     -0.0201
    115  CD1        4.3000   58.5050   18.1470 C.ar  564  TYR564     -0.0009
    116  CD2        3.5870   56.6620   19.4910 C.ar  564  TYR564     -0.0009
    117  CE1        3.0620   59.0850   18.2680 C.ar  564  TYR564      0.0417
    118  CE2        2.3310   57.2340   19.6060 C.ar  564  TYR564      0.0417
    119  CZ         2.0800   58.4500   18.9900 C.ar  564  TYR564      0.1957
    120  OH         0.8500   59.0430   19.0980 O.3   564  TYR564     -0.2866
    121  N         -5.9230   52.0550   12.4190 N.3   619  THR619     -0.1203
    122  CA        -4.5310   52.5000   12.5060 C.3   619  THR619      0.1994
    123  C         -3.7000   52.1510   11.2700 C.2   619  THR619      0.2617
    124  O         -3.4160   53.0190   10.4430 O.2   619  THR619     -0.2717
    125  CB        -3.8370   51.9670   13.7780 C.3   619  THR619      0.1784
    126  OG1       -4.6550   52.2470   14.9220 O.3   619  THR619     -0.2211
    127  CG2       -2.4730   52.6190   13.9590 C.3   619  THR619      0.0376
    128  N         -3.3220   50.8820   11.1390 N.am  620  ASP620     -0.1973
    129  CA        -2.4710   50.4580   10.0300 C.3   620  ASP620      0.1709
    130  C         -2.9580   49.1700    9.3680 C.2   620  ASP620      0.2293
    131  O         -2.2480   48.5750    8.5600 O.2   620  ASP620     -0.2864
    132  CB        -1.0360   50.2560   10.5160 C.3   620  ASP620      0.1436
    133  CG        -0.8820   49.0200   11.3800 C.2   620  ASP620      0.3671
    134  OD1        0.2120   48.4140   11.3650 O.co2 620  ASP620     -0.2456
    135  OD2       -1.8560   48.6500   12.0690 O.co2 620  ASP620     -0.2456
    136  N         -2.1300   39.3790    6.9280 N.3   683  GLU683     -0.1245
    137  CA        -2.1740   38.9050    8.3010 C.3   683  GLU683      0.1567
    138  C         -3.0220   37.6310    8.3970 C.2   683  GLU683      0.2260
    139  O         -2.4860   36.5200    8.4080 O.2   683  GLU683     -0.2867
    140  CB        -2.7060   40.0070    9.2250 C.3   683  GLU683      0.0388
    141  CG        -2.1650   39.9610   10.6450 C.3   683  GLU683      0.1160
    142  CD        -0.8370   40.6990   10.8100 C.2   683  GLU683      0.3649
    143  OE1       -0.6860   41.4130   11.8250 O.co2 683  GLU683     -0.2457
    144  OE2        0.0530   40.5650    9.9360 O.co2 683  GLU683     -0.2457
    145  N         -0.1900   35.1700    9.5770 N.3   713  GLU713     -0.1245
    146  CA         1.1970   35.5790    9.3560 C.3   713  GLU713      0.1567
    147  C          2.1130   34.4340    8.9310 C.2   713  GLU713      0.2260
    148  O          3.2700   34.3670    9.3480 O.2   713  GLU713     -0.2867
    149  CB         1.7720   36.2760   10.5930 C.3   713  GLU713      0.0388
    150  CG         1.3950   37.7430   10.7220 C.3   713  GLU713      0.1160
    151  CD         2.0050   38.3920   11.9540 C.2   713  GLU713      0.3649
    152  OE1        2.7010   39.4190   11.8080 O.co2 713  GLU713     -0.2457
    153  OE2        1.7860   37.8740   13.0700 O.co2 713  GLU713     -0.2457
@<TRIPOS>BOND
     1    27    25    1
     2    25    26    1
     3    25    24    1
     4   136   137    1
     5    15    14    2
     6    12    13    1
     7    14    13    1
     8    14    20   am
     9    24    21    1
    10    13    16    1
    11    21    20    1
    12    21    22    1
    13   137   138    1
    14   137   140    1
    15   138   139    2
    16   131   130    2
    17    33    32    1
    18   147   148    2
    19   147   146    1
    20    49    51   ar
    21    49    47   ar
    22    28    22   am
    23    28    29    1
    24    32    29    1
    25    32    34    1
    26   140   141    1
    27   146   145    1
    28   146   149    1
    29   130   129    1
    30    22    23    2
    31    51    50   ar
    32    16    17    1
    33    47    46   ar
    34    29    30    1
    35   144   142   ar
    36    19    17   ar
    37   129   132    1
    38   129   128    1
    39    31    30    2
    40    17    18   ar
    41   124   123    2
    42   132   133    1
    43   149   150    1
    44   141   142    1
    45   150   151    1
    46    30    35   am
    47    50    48   ar
    48   142   143   ar
    49   128   123   am
    50    46    48   ar
    51    46    45    1
    52   123   122    1
    53    44    43    2
    54   134   133   ar
    55   133   135   ar
    56   152   151   ar
    57    42    45    1
    58    42    43    1
    59    42    41    1
    60   151   153   ar
    61    35    36    1
    62    38    37    2
    63    43    52   am
    64   121   122    1
    65    41    37   am
    66   122   125    1
    67    37    36    1
    68    36    39    1
    69    39    40    1
    70    83    82    1
    71    55    54    2
    72    52    53    1
    73    82    81    1
    74    54    53    1
    75   125   127    1
    76   125   126    1
    77    53    56    1
    78    60    58   ar
    79    60    62   ar
    80    58    57   ar
    81    81    80    1
    82    80    79    1
    83    73    72    1
    84    78    77    2
    85    77    76    1
    86    63    62    1
    87    62    61   ar
    88    57    56    1
    89    57    59   ar
    90    79    76    1
    91    72    74    1
    92    72    71    2
    93    76    75    1
    94    70    71    1
    95    70    69    1
    96    61    59   ar
    97    66    67    2
    98    66    65    1
    99    64    65    1
   100    68    65    1
   101    68    69    1
   102   107   106    2
   103    90    91    1
   104    90    89    1
   105    92    91    1
   106   115   117   ar
   107   115   114   ar
   108   117   119   ar
   109   113   114    1
   110   113   110    1
   111   114   116   ar
   112    89    88    1
   113   106   108   am
   114   106   105    1
   115   119   120    1
   116   119   118   ar
   117    88    85    1
   118   116   118   ar
   119   110   109    1
   120   110   111    1
   121    85    84    1
   122    85    86    1
   123   102   101    1
   124   102   105    1
   125   102   103    1
   126    87    86    2
   127   112   111    2
   128    86    93   am
   129   104   103    2
   130    93    94    1
   131    94    95    1
   132    94    97    1
   133    95    96    2
   134    97    98    1
   135     9    11   ar
   136     9     7   ar
   137    11    10   ar
   138    99    98    1
   139     7     6   ar
   140    98   100    1
   141    10     8   ar
   142     6     8   ar
   143     6     5    1
   144     5     2    1
   145     4     3    2
   146     2     3    1
   147     2     1    1
