@<TRIPOS>MOLECULE
tmp/4ki0E06.pdb
 101 97 0 0 0
SMALL
GASTEIGER

@<TRIPOS>ATOM
      1  N        -22.8350   59.0270   36.7430 N.3    28  VAL28      -0.1245
      2  CA       -21.5510   59.5240   37.2310 C.3    28  VAL28       0.1561
      3  C        -21.6530   61.0210   37.5370 C.2    28  VAL28       0.2260
      4  O        -21.1610   61.4840   38.5650 O.2    28  VAL28      -0.2867
      5  CB       -20.4120   59.2450   36.2210 C.3    28  VAL28       0.0252
      6  CG1      -19.1290   59.9470   36.6390 C.3    28  VAL28       0.0019
      7  CG2      -20.1700   57.7450   36.1020 C.3    28  VAL28       0.0019
      8  N        -21.1540   63.3460   41.2080 N.3    32  LEU32      -0.1245
      9  CA       -20.1700   64.4170   41.3770 C.3    32  LEU32       0.1561
     10  C        -20.8050   65.8050   41.5140 C.2    32  LEU32       0.2260
     11  O        -20.0980   66.8130   41.6050 O.2    32  LEU32      -0.2867
     12  CB       -19.1900   64.4070   40.2060 C.3    32  LEU32       0.0270
     13  CG       -18.2750   63.1830   40.1280 C.3    32  LEU32       0.0019
     14  CD1      -17.5720   63.1370   38.7790 C.3    32  LEU32       0.0001
     15  CD2      -17.2600   63.1790   41.2630 C.3    32  LEU32       0.0001
     16  N        -16.9970   66.5480   45.6550 N.3    49  TRP49      -0.1241
     17  CA       -16.4030   65.2320   45.8930 C.3    49  TRP49       0.1605
     18  C        -16.9920   64.5520   47.1370 C.2    49  TRP49       0.2264
     19  O        -16.6580   63.4060   47.4300 O.2    49  TRP49      -0.2867
     20  CB       -14.8850   65.3510   46.0510 C.3    49  TRP49       0.0550
     21  CG       -14.1940   66.1140   44.9430 C.ar   49  TRP49       0.0003
     22  CD1      -13.6490   67.3580   45.0300 C.ar   49  TRP49       0.0946
     23  CD2      -13.9670   65.6690   43.5980 C.ar   49  TRP49       0.0152
     24  NE1      -13.1020   67.7200   43.8240 N.ar   49  TRP49      -0.2442
     25  CE2      -13.2840   66.7010   42.9270 C.ar   49  TRP49       0.0810
     26  CE3      -14.2800   64.4940   42.8930 C.ar   49  TRP49       0.0012
     27  CZ2      -12.9080   66.6040   41.5870 C.ar   49  TRP49       0.0191
     28  CZ3      -13.9060   64.3960   41.5590 C.ar   49  TRP49       0.0001
     29  CH2      -13.2240   65.4450   40.9220 C.ar   49  TRP49       0.0015
     30  N        -18.4990   60.9490   47.0730 N.3    52  TRP52      -0.1227
     31  CA       -17.4450   59.9370   46.9700 C.3    52  TRP52       0.1737
     32  C        -16.5930   59.8600   48.2240 C.2    52  TRP52       0.2595
     33  O        -16.2190   58.7730   48.6460 O.2    52  TRP52      -0.2718
     34  CB       -16.5580   60.2000   45.7590 C.3    52  TRP52       0.0564
     35  CG       -17.1920   59.7570   44.4930 C.ar   52  TRP52       0.0003
     36  CD1      -17.8130   60.5380   43.5700 C.ar   52  TRP52       0.0946
     37  CD2      -17.2860   58.4180   44.0170 C.ar   52  TRP52       0.0152
     38  NE1      -18.2780   59.7700   42.5360 N.ar   52  TRP52      -0.2442
     39  CE2      -17.9710   58.4600   42.7880 C.ar   52  TRP52       0.0810
     40  CE3      -16.8630   57.1780   44.5130 C.ar   52  TRP52       0.0012
     41  CZ2      -18.2400   57.3070   42.0430 C.ar   52  TRP52       0.0191
     42  CZ3      -17.1280   56.0390   43.7700 C.ar   52  TRP52       0.0001
     43  CH2      -17.8060   56.1110   42.5510 C.ar   52  TRP52       0.0015
     44  N        -16.3000   61.0130   48.8160 N.am   53  LYS53      -0.1980
     45  CA       -15.5360   61.0780   50.0640 C.3    53  LYS53       0.1596
     46  C        -16.1810   60.2360   51.1560 C.2    53  LYS53       0.2287
     47  O        -15.5160   59.4170   51.7910 O.2    53  LYS53      -0.2864
     48  CB       -15.4240   62.5250   50.5650 C.3    53  LYS53       0.0298
     49  CG       -14.4130   63.3940   49.8330 C.3    53  LYS53       0.0038
     50  CD       -14.3530   64.7770   50.4770 C.3    53  LYS53       0.0206
     51  CE       -13.3810   65.7100   49.7690 C.3    53  LYS53       0.1093
     52  NZ       -12.8700   66.7790   50.6770 N.3    53  LYS53      -0.1314
     53  N        -16.0560   56.5940   50.3890 N.3    56  LEU56      -0.1245
     54  CA       -14.7230   55.9950   50.4650 C.3    56  LEU56       0.1561
     55  C        -14.1790   55.9770   51.8870 C.2    56  LEU56       0.2260
     56  O        -13.1120   55.4240   52.1390 O.2    56  LEU56      -0.2867
     57  CB       -13.7560   56.7160   49.5280 C.3    56  LEU56       0.0270
     58  CG       -13.9950   56.5430   48.0270 C.3    56  LEU56       0.0019
     59  CD1      -13.0000   57.3850   47.2420 C.3    56  LEU56       0.0001
     60  CD2      -13.8900   55.0860   47.6180 C.3    56  LEU56       0.0001
     61  N        -14.1180   58.9140   53.9750 N.3    58  PHE58      -0.1227
     62  CA       -13.6240   60.2210   54.4020 C.3    58  PHE58       0.1736
     63  C        -14.7130   61.0420   55.0790 C.2    58  PHE58       0.2596
     64  O        -15.8710   61.0320   54.6580 O.2    58  PHE58      -0.2718
     65  CB       -13.0700   61.0070   53.2100 C.3    58  PHE58       0.0547
     66  CG       -11.8060   60.4350   52.6340 C.ar   58  PHE58      -0.0202
     67  CD1      -11.7260   60.1080   51.2890 C.ar   58  PHE58      -0.0042
     68  CD2      -10.6920   60.2280   53.4360 C.ar   58  PHE58      -0.0042
     69  CE1      -10.5570   59.5830   50.7560 C.ar   58  PHE58      -0.0003
     70  CE2       -9.5250   59.7010   52.9100 C.ar   58  PHE58      -0.0003
     71  CZ        -9.4570   59.3800   51.5690 C.ar   58  PHE58      -0.0000
     72  N        -14.3310   61.7590   56.1300 N.am   59  SER59      -0.1952
     73  CA       -15.2150   62.7370   56.7550 C.3    59  SER59       0.1924
     74  C        -15.2340   64.0030   55.9050 C.2    59  SER59       0.2314
     75  O        -14.3090   64.2480   55.1320 O.2    59  SER59      -0.2863
     76  CB       -14.7550   63.0390   58.1750 C.3    59  SER59       0.2116
     77  OG       -14.7220   61.8410   58.9340 O.3    59  SER59      -0.2180
     78  N        -15.9390   68.2570   55.6510 N.3    61  GLU61      -0.1245
     79  CA       -16.0280   69.5670   56.2940 C.3    61  GLU61       0.1567
     80  C        -17.0570   70.4150   55.5470 C.2    61  GLU61       0.2260
     81  O        -16.7900   70.8930   54.4420 O.2    61  GLU61      -0.2867
     82  CB       -14.6560   70.2400   56.2860 C.3    61  GLU61       0.0388
     83  CG       -14.5980   71.5760   57.0080 C.3    61  GLU61       0.1160
     84  CD       -13.1790   72.0940   57.1580 C.2    61  GLU61       0.3649
     85  OE1      -12.2500   71.4740   56.5950 O.co2  61  GLU61      -0.2457
     86  OE2      -12.9910   73.1220   57.8400 O.co2  61  GLU61      -0.2457
     87  N        -17.5690   68.8060   61.3610 N.3    67  ILE67      -0.1245
     88  CA       -17.1440   67.6260   60.6130 C.3    67  ILE67       0.1561
     89  C        -18.2610   66.5750   60.5700 C.2    67  ILE67       0.2260
     90  O        -18.8410   66.2240   61.5980 O.2    67  ILE67      -0.2867
     91  CB       -15.8600   67.0150   61.2250 C.3    67  ILE67       0.0252
     92  CG1      -14.7180   68.0440   61.1990 C.3    67  ILE67       0.0019
     93  CG2      -15.4530   65.7470   60.4810 C.3    67  ILE67       0.0019
     94  CD1      -13.5580   67.7170   62.1210 C.3    67  ILE67       0.0001
     95  N        -22.2710   53.2280   40.9910 N.3   261  VAL261     -0.1245
     96  CA       -21.0270   53.1880   40.2110 C.3   261  VAL261      0.1561
     97  C        -20.0170   52.2370   40.8450 C.2   261  VAL261      0.2260
     98  O        -19.3770   51.4690   40.1460 O.2   261  VAL261     -0.2867
     99  CB       -20.3770   54.5890   40.0580 C.3   261  VAL261      0.0252
    100  CG1      -19.0240   54.4870   39.3670 C.3   261  VAL261      0.0019
    101  CG2      -21.2870   55.5310   39.2770 C.3   261  VAL261      0.0019
@<TRIPOS>BOND
     1     7     5    1
     2     5     6    1
     3     5     2    1
     4     1     2    1
     5     2     3    1
     6     3     4    2
     7    14    13    1
     8   101    99    1
     9   100    99    1
    10    99    96    1
    11    13    12    1
    12    13    15    1
    13    98    97    2
    14    12     9    1
    15    96    97    1
    16    96    95    1
    17    29    28   ar
    18    29    27   ar
    19     8     9    1
    20     9    10    1
    21    10    11    2
    22    28    26   ar
    23    27    25   ar
    24    41    43   ar
    25    41    39   ar
    26    38    39   ar
    27    38    36   ar
    28    43    42   ar
    29    39    37   ar
    30    26    23   ar
    31    25    23   ar
    32    25    24   ar
    33    36    35   ar
    34    23    21   ar
    35    42    40   ar
    36    24    22   ar
    37    37    35   ar
    38    37    40   ar
    39    35    34    1
    40    21    22   ar
    41    21    20    1
    42    16    17    1
    43    34    31    1
    44    17    20    1
    45    17    18    1
    46    31    30    1
    47    31    32    1
    48    18    19    2
    49    59    58    1
    50    60    58    1
    51    58    57    1
    52    32    33    2
    53    32    44   am
    54    44    45    1
    55    57    54    1
    56    51    50    1
    57    51    52    1
    58    49    50    1
    59    49    48    1
    60    45    48    1
    61    45    46    1
    62    53    54    1
    63    54    55    1
    64    69    67   ar
    65    69    71   ar
    66    46    47    2
    67    67    66   ar
    68    71    70   ar
    69    55    56    2
    70    66    65    1
    71    66    68   ar
    72    70    68   ar
    73    65    62    1
    74    61    62    1
    75    62    63    1
    76    81    80    2
    77    64    63    2
    78    63    72   am
    79    75    74    2
    80    80    79    1
    81    78    79    1
    82    74    73    1
    83    72    73    1
    84    82    79    1
    85    82    83    1
    86    85    84   ar
    87    73    76    1
    88    83    84    1
    89    84    86   ar
    90    76    77    1
    91    93    91    1
    92    89    88    1
    93    89    90    2
    94    88    91    1
    95    88    87    1
    96    92    91    1
    97    92    94    1
