@<TRIPOS>MOLECULE
tmp/4ki0E09.pdb
 99 94 0 0 0
SMALL
GASTEIGER

@<TRIPOS>ATOM
      1  N        -18.6260   42.9430   51.3260 N.3    80  ASN80      -0.1240
      2  CA       -19.6990   41.9850   51.5780 C.3    80  ASN80       0.1653
      3  C        -20.3550   41.5130   50.2810 C.2    80  ASN80       0.2266
      4  O        -20.6360   40.3160   50.1320 O.2    80  ASN80      -0.2867
      5  CB       -20.7510   42.5810   52.5380 C.3    80  ASN80       0.1155
      6  CG       -20.2240   42.7400   53.9600 C.2    80  ASN80       0.2627
      7  OD1      -19.2480   42.0960   54.3480 O.2    80  ASN80      -0.2716
      8  ND2      -20.8700   43.5950   54.7430 N.am   80  ASN80      -0.0877
      9  N        -17.8730   39.1820   48.4490 N.3    83  LYS83      -0.1245
     10  CA       -17.8850   37.8890   49.1360 C.3    83  LYS83       0.1561
     11  C        -19.1220   37.0720   48.7840 C.2    83  LYS83       0.2260
     12  O        -19.0100   35.9340   48.3530 O.2    83  LYS83      -0.2867
     13  CB       -17.7990   38.0710   50.6610 C.3    83  LYS83       0.0271
     14  CG       -16.3780   38.1320   51.1820 C.3    83  LYS83       0.0035
     15  CD       -16.2470   38.9420   52.4590 C.3    83  LYS83       0.0206
     16  CE       -17.1490   38.4430   53.5700 C.3    83  LYS83       0.1093
     17  NZ       -16.9550   39.2170   54.8300 N.3    83  LYS83      -0.1314
     18  N        -18.6640   33.7580   46.3590 N.3    87  ILE87      -0.1245
     19  CA       -18.9280   32.4090   46.8780 C.3    87  ILE87       0.1561
     20  C        -20.1650   31.8110   46.2160 C.2    87  ILE87       0.2260
     21  O        -20.1360   30.6660   45.7960 O.2    87  ILE87      -0.2867
     22  CB       -19.1110   32.4020   48.4020 C.3    87  ILE87       0.0252
     23  CG1      -17.8000   32.7940   49.0890 C.3    87  ILE87       0.0019
     24  CG2      -19.5750   31.0260   48.8750 C.3    87  ILE87       0.0019
     25  CD1      -17.9570   33.1230   50.5550 C.3    87  ILE87       0.0001
     26  N        -25.3560   29.0070   61.1530 N.3   146  PHE146     -0.1227
     27  CA       -24.4000   29.4900   60.1580 C.3   146  PHE146      0.1736
     28  C        -25.0610   29.8430   58.8160 C.2   146  PHE146      0.2595
     29  O        -24.5000   30.5970   58.0260 O.2   146  PHE146     -0.2718
     30  CB       -23.3150   28.4160   59.9620 C.3   146  PHE146      0.0547
     31  CG       -22.1570   28.8480   59.1000 C.ar  146  PHE146     -0.0202
     32  CD1      -21.4260   29.9950   59.4060 C.ar  146  PHE146     -0.0042
     33  CD2      -21.7720   28.0840   57.9980 C.ar  146  PHE146     -0.0042
     34  CE1      -20.3530   30.3870   58.6180 C.ar  146  PHE146     -0.0003
     35  CE2      -20.6980   28.4690   57.2070 C.ar  146  PHE146     -0.0003
     36  CZ       -19.9870   29.6210   57.5210 C.ar  146  PHE146     -0.0000
     37  N        -26.2510   29.3050   58.5600 N.am  147  ILE147     -0.1980
     38  CA       -26.9890   29.6220   57.3350 C.3   147  ILE147      0.1595
     39  C        -28.4280   30.0950   57.5940 C.2   147  ILE147      0.2287
     40  O        -29.2860   29.9430   56.7340 O.2   147  ILE147     -0.2864
     41  CB       -26.9810   28.4280   56.3470 C.3   147  ILE147      0.0276
     42  CG1      -27.6110   27.1770   56.9760 C.3   147  ILE147      0.0022
     43  CG2      -25.5590   28.1310   55.8920 C.3   147  ILE147      0.0022
     44  CD1      -27.6430   25.9850   56.0460 C.3   147  ILE147      0.0001
     45  N        -24.4930   35.6810   55.9820 N.3   152  HIS152     -0.1226
     46  CA       -24.1360   35.6360   54.5720 C.3   152  HIS152      0.1752
     47  C        -24.3630   34.2480   54.0040 C.2   152  HIS152      0.2596
     48  O        -24.8040   34.1020   52.8630 O.2   152  HIS152     -0.2718
     49  CB       -22.6900   36.0750   54.3660 C.3   152  HIS152      0.0759
     50  CG       -22.4770   37.5410   54.5760 C.ar  152  HIS152      0.0818
     51  ND1      -21.2360   38.0870   54.8150 N.ar  152  HIS152     -0.2268
     52  CD2      -23.3520   38.5750   54.5980 C.ar  152  HIS152      0.1154
     53  CE1      -21.3530   39.3950   54.9630 C.ar  152  HIS152      0.1986
     54  NE2      -22.6270   39.7170   54.8400 N.ar  152  HIS152     -0.2212
     55  N        -24.0620   33.2340   54.8040 N.am  153  GLY153     -0.1957
     56  CA       -24.3620   31.8530   54.4590 C.3   153  GLY153      0.1869
     57  C        -25.7800   31.6810   53.9590 C.2   153  GLY153      0.2309
     58  O        -26.0030   31.0380   52.9410 O.2   153  GLY153     -0.2863
     59  N        -26.3280   33.3590   50.5810 N.3   156  ILE156     -0.1231
     60  CA       -25.6550   32.5420   49.5800 C.3   156  ILE156      0.1692
     61  C        -26.4650   31.2710   49.3000 C.2   156  ILE156      0.2592
     62  O        -26.7070   30.9050   48.1490 O.2   156  ILE156     -0.2718
     63  CB       -24.2220   32.1960   50.0410 C.3   156  ILE156      0.0266
     64  CG1      -23.3560   33.4570   49.9990 C.3   156  ILE156      0.0019
     65  CG2      -23.6150   31.1070   49.1660 C.3   156  ILE156      0.0020
     66  CD1      -22.0780   33.3640   50.8010 C.3   156  ILE156      0.0001
     67  N        -26.8910   30.6190   50.3680 N.am  157  PHE157     -0.1976
     68  CA       -27.6350   29.3890   50.2610 C.3   157  PHE157      0.1639
     69  C        -28.8990   29.6270   49.4410 C.2   157  PHE157      0.2290
     70  O        -29.2680   28.7960   48.6230 O.2   157  PHE157     -0.2864
     71  CB       -27.9450   28.8520   51.6670 C.3   157  PHE157      0.0560
     72  CG       -28.4130   27.4240   51.7030 C.ar  157  PHE157     -0.0200
     73  CD1      -27.8960   26.4660   50.8360 C.ar  157  PHE157     -0.0042
     74  CD2      -29.3590   27.0240   52.6460 C.ar  157  PHE157     -0.0042
     75  CE1      -28.3390   25.1550   50.8880 C.ar  157  PHE157     -0.0003
     76  CE2      -29.7990   25.7110   52.7030 C.ar  157  PHE157     -0.0003
     77  CZ       -29.2880   24.7760   51.8230 C.ar  157  PHE157     -0.0000
     78  N        -28.2390   29.6630   45.6350 N.3   160  LEU160     -0.1245
     79  CA       -27.8190   28.3930   45.0320 C.3   160  LEU160      0.1561
     80  C        -28.9470   27.6410   44.3190 C.2   160  LEU160      0.2260
     81  O        -28.6850   26.7390   43.5320 O.2   160  LEU160     -0.2867
     82  CB       -27.1880   27.4770   46.0860 C.3   160  LEU160      0.0270
     83  CG       -25.9300   28.0030   46.7810 C.3   160  LEU160      0.0019
     84  CD1      -25.3550   26.9360   47.6900 C.3   160  LEU160      0.0001
     85  CD2      -24.8750   28.4630   45.7890 C.3   160  LEU160      0.0001
     86  N        -23.4860   46.2500   59.4620 N.3   234  ASN234     -0.1225
     87  CA       -22.1420   45.8050   59.0780 C.3   234  ASN234      0.1785
     88  C        -22.0950   44.5390   58.2330 C.2   234  ASN234      0.2597
     89  O        -21.0390   44.1910   57.7120 O.2   234  ASN234     -0.2718
     90  CB       -21.2730   45.6010   60.3230 C.3   234  ASN234      0.1169
     91  CG       -20.8900   46.9060   60.9860 C.2   234  ASN234      0.2627
     92  OD1      -20.6610   46.9580   62.1920 O.2   234  ASN234     -0.2716
     93  ND2      -20.8110   47.9700   60.1980 N.am  234  ASN234     -0.0877
     94  N        -23.2200   43.8470   58.1020 N.am  235  SER235     -0.1952
     95  CA       -23.3000   42.6820   57.2280 C.3   235  SER235      0.1924
     96  C        -23.9730   42.9970   55.8960 C.2   235  SER235      0.2314
     97  O        -23.9550   42.1600   54.9940 O.2   235  SER235     -0.2863
     98  CB       -24.0760   41.5650   57.9120 C.3   235  SER235      0.2116
     99  OG       -25.4560   41.8890   57.9650 O.3   235  SER235     -0.2180
@<TRIPOS>BOND
     1    81    80    2
     2    80    79    1
     3    79    78    1
     4    79    82    1
     5    85    83    1
     6    21    20    2
     7    82    83    1
     8    20    19    1
     9    18    19    1
    10    83    84    1
    11    19    22    1
    12    62    61    2
    13    12    11    2
    14    22    24    1
    15    22    23    1
    16     9    10    1
    17    70    69    2
    18    11    10    1
    19    23    25    1
    20    10    13    1
    21    65    63    1
    22    61    60    1
    23    61    67   am
    24    69    68    1
    25    60    63    1
    26    60    59    1
    27    64    63    1
    28    64    66    1
    29     4     3    2
    30    68    67    1
    31    68    71    1
    32     3     2    1
    33    13    14    1
    34    73    75   ar
    35    73    72   ar
    36    75    77   ar
    37    14    15    1
    38     1     2    1
    39     2     5    1
    40    71    72    1
    41    72    74   ar
    42    77    76   ar
    43    15    16    1
    44     5     6    1
    45    74    76   ar
    46    48    47    2
    47    58    57    2
    48    16    17    1
    49    57    56    1
    50     6     7    2
    51     6     8   am
    52    47    46    1
    53    47    55   am
    54    49    46    1
    55    49    50    1
    56    56    55    1
    57    46    45    1
    58    50    52   ar
    59    50    51   ar
    60    52    54   ar
    61    51    53   ar
    62    54    53   ar
    63    97    96    2
    64    43    41    1
    65    96    95    1
    66    44    42    1
    67    41    42    1
    68    41    38    1
    69    40    39    2
    70    35    36   ar
    71    35    33   ar
    72    95    98    1
    73    95    94    1
    74    38    39    1
    75    38    37    1
    76    36    34   ar
    77    89    88    2
    78    98    99    1
    79    33    31   ar
    80    29    28    2
    81    94    88   am
    82    88    87    1
    83    37    28   am
    84    34    32   ar
    85    28    27    1
    86    87    86    1
    87    87    90    1
    88    31    32   ar
    89    31    30    1
    90    30    27    1
    91    27    26    1
    92    93    91   am
    93    90    91    1
    94    91    92    2
