@<TRIPOS>MOLECULE
tmp/4ki0D03.pdb
 140 139 0 0 0
SMALL
GASTEIGER

@<TRIPOS>ATOM
      1  N        -15.6910    5.2930   53.4140 N.3     5  LYS5       -0.1231
      2  CA       -16.9390    5.6850   52.7580 C.3     5  LYS5        0.1693
      3  C        -18.1540    5.4090   53.6410 C.2     5  LYS5        0.2592
      4  O        -18.9510    6.3090   53.8930 O.2     5  LYS5       -0.2718
      5  CB       -17.0970    4.9590   51.4160 C.3     5  LYS5        0.0285
      6  CG       -16.0690    5.3450   50.3560 C.3     5  LYS5        0.0035
      7  CD       -15.9130    4.2510   49.3040 C.3     5  LYS5        0.0206
      8  CE       -14.7370    4.5100   48.3740 C.3     5  LYS5        0.1093
      9  NZ       -14.9760    5.6630   47.4630 N.3     5  LYS5       -0.1314
     10  N        -18.2820    4.1710   54.1150 N.am    6  TRP6       -0.1976
     11  CA       -19.4370    3.7630   54.9300 C.3     6  TRP6        0.1640
     12  C        -19.4810    4.4300   56.3070 C.2     6  TRP6        0.2290
     13  O        -20.5590    4.5960   56.8790 O.2     6  TRP6       -0.2864
     14  CB       -19.4900    2.2380   55.0920 C.3     6  TRP6        0.0576
     15  CG       -19.9800    1.5280   53.8670 C.ar    6  TRP6        0.0006
     16  CD1      -19.2330    0.7980   52.9880 C.ar    6  TRP6        0.0946
     17  CD2      -21.3290    1.4870   53.3800 C.ar    6  TRP6        0.0152
     18  NE1      -20.0330    0.3020   51.9850 N.ar    6  TRP6       -0.2442
     19  CE2      -21.3230    0.7110   52.2000 C.ar    6  TRP6        0.0810
     20  CE3      -22.5420    2.0300   53.8260 C.ar    6  TRP6        0.0012
     21  CZ2      -22.4840    0.4630   51.4590 C.ar    6  TRP6        0.0191
     22  CZ3      -23.6960    1.7830   53.0890 C.ar    6  TRP6        0.0001
     23  CH2      -23.6570    1.0060   51.9190 C.ar    6  TRP6        0.0015
     24  N        -20.5910    7.9150   55.4240 N.3     9  LEU9       -0.1245
     25  CA       -22.0170    7.7430   55.1420 C.3     9  LEU9        0.1561
     26  C        -22.7870    7.5580   56.4560 C.2     9  LEU9        0.2260
     27  O        -23.8780    8.1020   56.6260 O.2     9  LEU9       -0.2867
     28  CB       -22.2410    6.5360   54.2140 C.3     9  LEU9        0.0270
     29  CG       -23.3580    6.6050   53.1660 C.3     9  LEU9        0.0019
     30  CD1      -24.6860    6.9870   53.7990 C.3     9  LEU9        0.0001
     31  CD2      -22.9940    7.5720   52.0510 C.3     9  LEU9        0.0001
     32  N        -25.8200    8.0620   47.2410 N.3    46  PHE46      -0.1227
     33  CA       -24.3710    7.8900   47.3790 C.3    46  PHE46       0.1736
     34  C        -23.9860    6.5400   47.9820 C.2    46  PHE46       0.2595
     35  O        -22.8060    6.1910   48.0110 O.2    46  PHE46      -0.2718
     36  CB       -23.7620    9.0440   48.1870 C.3    46  PHE46       0.0547
     37  CG       -23.6210   10.3080   47.3970 C.ar   46  PHE46      -0.0202
     38  CD1      -24.6670   11.2160   47.3210 C.ar   46  PHE46      -0.0042
     39  CD2      -22.4570   10.5710   46.6960 C.ar   46  PHE46      -0.0042
     40  CE1      -24.5520   12.3710   46.5690 C.ar   46  PHE46      -0.0003
     41  CE2      -22.3340   11.7250   45.9430 C.ar   46  PHE46      -0.0003
     42  CZ       -23.3820   12.6280   45.8780 C.ar   46  PHE46      -0.0000
     43  N        -24.9780    5.7790   48.4430 N.am   47  ALA47      -0.1980
     44  CA       -24.7360    4.4590   49.0260 C.3    47  ALA47       0.1597
     45  C        -24.6010    3.3860   47.9540 C.2    47  ALA47       0.2287
     46  O        -23.6070    2.6480   47.9350 O.2    47  ALA47      -0.2864
     47  CB       -25.8440    4.0890   50.0020 C.3    47  ALA47       0.0319
     48  N        -24.3330    2.0740   43.9590 N.3    49  ARG49      -0.1245
     49  CA       -23.6410    2.5530   42.7670 C.3    49  ARG49       0.1563
     50  C        -24.4900    2.5100   41.4950 C.2    49  ARG49       0.2260
     51  O        -24.0410    2.9600   40.4460 O.2    49  ARG49      -0.2867
     52  CB       -22.3370    1.7610   42.5840 C.3    49  ARG49       0.0307
     53  CG       -21.3250    2.0150   43.6990 C.3    49  ARG49       0.0489
     54  CD       -20.3440    0.8650   43.9000 C.3    49  ARG49       0.2205
     55  NE       -20.8600   -0.1930   44.7770 N.pl3  49  ARG49      -0.0865
     56  CZ       -20.9610   -0.1190   46.1070 C.cat  49  ARG49       0.5346
     57  NH1      -20.5980    0.9780   46.7620 N.pl3  49  ARG49       0.1354
     58  NH2      -21.4410   -1.1570   46.7870 N.pl3  49  ARG49       0.1354
     59  N        -25.6530    6.0890   40.4820 N.3    52  TYR52      -0.1241
     60  CA       -24.5160    6.9620   40.1350 C.3    52  TYR52       0.1605
     61  C        -24.9460    8.2760   39.5090 C.2    52  TYR52       0.2264
     62  O        -24.5560    9.3440   39.9820 O.2    52  TYR52      -0.2867
     63  CB       -23.5570    6.2420   39.1770 C.3    52  TYR52       0.0534
     64  CG       -22.2410    6.9540   38.9220 C.ar   52  TYR52      -0.0201
     65  CD1      -22.0560    7.7350   37.7890 C.ar   52  TYR52      -0.0009
     66  CD2      -21.1740    6.8200   39.8030 C.ar   52  TYR52      -0.0009
     67  CE1      -20.8500    8.3730   37.5450 C.ar   52  TYR52       0.0417
     68  CE2      -19.9640    7.4550   39.5690 C.ar   52  TYR52       0.0417
     69  CZ       -19.8050    8.2320   38.4400 C.ar   52  TYR52       0.1957
     70  OH       -18.6020    8.8630   38.2110 O.3    52  TYR52      -0.2866
     71  N        -26.2620   11.1870   41.6040 N.3    55  ARG55      -0.1231
     72  CA       -25.2810   11.8720   42.4480 C.3    55  ARG55       0.1694
     73  C        -24.9240   13.2420   41.8890 C.2    55  ARG55       0.2592
     74  O        -24.6690   14.1780   42.6440 O.2    55  ARG55      -0.2718
     75  CB       -24.0070   11.0430   42.5750 C.3    55  ARG55       0.0321
     76  CG       -24.2110    9.7380   43.3100 C.3    55  ARG55       0.0489
     77  CD       -22.9720    8.8680   43.2860 C.3    55  ARG55       0.2205
     78  NE       -23.2520    7.5530   43.8550 N.pl3  55  ARG55      -0.0865
     79  CZ       -22.3670    6.5650   43.9390 C.cat  55  ARG55       0.5346
     80  NH1      -21.1280    6.7320   43.4910 N.pl3  55  ARG55       0.1354
     81  NH2      -22.7230    5.4080   44.4770 N.pl3  55  ARG55       0.1354
     82  N        -24.9210   13.3480   40.5640 N.am   56  TYR56      -0.1976
     83  CA       -24.6270   14.5980   39.8690 C.3    56  TYR56       0.1639
     84  C        -25.8050   15.5580   39.8840 C.2    56  TYR56       0.2290
     85  O        -25.6270   16.7830   39.7990 O.2    56  TYR56      -0.2864
     86  CB       -24.2470   14.3020   38.4150 C.3    56  TYR56       0.0560
     87  CG       -22.8930   13.6600   38.2510 C.ar   56  TYR56      -0.0198
     88  CD1      -22.7200   12.3100   38.4830 C.ar   56  TYR56      -0.0009
     89  CD2      -21.7850   14.4070   37.8550 C.ar   56  TYR56      -0.0009
     90  CE1      -21.4850   11.7110   38.3370 C.ar   56  TYR56       0.0417
     91  CE2      -20.5420   13.8140   37.7080 C.ar   56  TYR56       0.0417
     92  CZ       -20.4010   12.4650   37.9490 C.ar   56  TYR56       0.1957
     93  OH       -19.1860   11.8450   37.8070 O.3    56  TYR56      -0.2866
     94  N        -28.6340   15.4080   42.1850 N.3    58  TYR58      -0.1228
     95  CA       -29.3030   15.5990   43.4780 C.3    58  TYR58       0.1721
     96  C        -28.9600   16.9150   44.1860 C.2    58  TYR58       0.2437
     97  O        -29.8660   17.6060   44.6450 O.2    58  TYR58      -0.2733
     98  CB       -29.0230   14.3930   44.3860 C.3    58  TYR58       0.0547
     99  CG       -29.4100   14.5640   45.8310 C.ar   58  TYR58      -0.0200
    100  CD1      -28.4630   14.9290   46.7820 C.ar   58  TYR58      -0.0009
    101  CD2      -30.7160   14.3330   46.2570 C.ar   58  TYR58      -0.0009
    102  CE1      -28.8020   15.0700   48.1140 C.ar   58  TYR58       0.0417
    103  CE2      -31.0670   14.4760   47.5870 C.ar   58  TYR58       0.0417
    104  CZ       -30.1040   14.8440   48.5110 C.ar   58  TYR58       0.1957
    105  OH       -30.4350   14.9900   49.8340 O.3    58  TYR58      -0.2866
    106  N        -27.6620   17.2740   44.2720 N.am   59  PRO59      -0.2729
    107  CA       -27.3060   18.5270   44.9520 C.3    59  PRO59       0.1401
    108  C        -27.9620   19.7460   44.3320 C.2    59  PRO59       0.2269
    109  O        -28.4810   20.5980   45.0500 O.2    59  PRO59      -0.2865
    110  CB       -25.7870   18.5890   44.7940 C.3    59  PRO59       0.0296
    111  CG       -25.3810   17.1600   44.6710 C.3    59  PRO59       0.0237
    112  CD       -26.4590   16.5450   43.8360 C.3    59  PRO59       0.0939
    113  N        -31.8720   19.4270   44.9110 N.3    62  ALA62      -0.1231
    114  CA       -32.2090   19.7550   46.2950 C.3    62  ALA62       0.1694
    115  C        -32.3300   21.2620   46.4980 C.2    62  ALA62       0.2592
    116  O        -33.3160   21.7390   47.0530 O.2    62  ALA62      -0.2718
    117  CB       -31.1690   19.1800   47.2450 C.3    62  ALA62       0.0304
    118  N        -31.3270   22.0030   46.0410 N.am   63  GLY63      -0.1957
    119  CA       -31.3370   23.4550   46.1430 C.3    63  GLY63       0.1869
    120  C        -32.5520   24.0450   45.4550 C.2    63  GLY63       0.2309
    121  O        -33.2150   24.9230   46.0060 O.2    63  GLY63      -0.2863
    122  N        -35.7990   23.4800   47.5870 N.3    66  LEU66      -0.1231
    123  CA       -35.8870   24.3940   48.7270 C.3    66  LEU66       0.1693
    124  C        -36.2870   25.8110   48.3560 C.2    66  LEU66       0.2592
    125  O        -37.1250   26.4110   49.0240 O.2    66  LEU66      -0.2718
    126  CB       -34.5470   24.4590   49.4680 C.3    66  LEU66       0.0284
    127  CG       -34.3790   23.5510   50.6850 C.3    66  LEU66       0.0019
    128  CD1      -34.8320   22.1270   50.3880 C.3    66  LEU66       0.0001
    129  CD2      -32.9280   23.5760   51.1490 C.3    66  LEU66       0.0001
    130  N        -35.6640   26.3520   47.3130 N.am   67  PHE67      -0.1976
    131  CA       -35.6820   27.7950   47.0810 C.3    67  PHE67       0.1639
    132  C        -36.3890   28.2140   45.8040 C.2    67  PHE67       0.2290
    133  O        -36.4460   29.4020   45.5040 O.2    67  PHE67      -0.2864
    134  CB       -34.2500   28.3470   47.0830 C.3    67  PHE67       0.0560
    135  CG       -33.4570   27.9760   48.3050 C.ar   67  PHE67      -0.0200
    136  CD1      -32.3240   27.1820   48.2060 C.ar   67  PHE67      -0.0042
    137  CD2      -33.8440   28.4230   49.5540 C.ar   67  PHE67      -0.0042
    138  CE1      -31.5960   26.8400   49.3330 C.ar   67  PHE67      -0.0003
    139  CE2      -33.1180   28.0900   50.6840 C.ar   67  PHE67      -0.0003
    140  CZ       -31.9960   27.2960   50.5750 C.ar   67  PHE67      -0.0000
@<TRIPOS>BOND
     1    67    65   ar
     2    67    69   ar
     3    91    89   ar
     4    91    92   ar
     5    65    64   ar
     6    93    92    1
     7    89    87   ar
     8    92    90   ar
     9    70    69    1
    10    87    86    1
    11    87    88   ar
    12    90    88   ar
    13    86    83    1
    14    69    68   ar
    15    64    63    1
    16    64    66   ar
    17    63    60    1
    18    61    62    2
    19    61    60    1
    20    68    66   ar
    21    85    84    2
    22    83    84    1
    23    83    82    1
    24    60    59    1
    25    51    50    2
    26    82    73   am
    27    50    49    1
    28    71    72    1
    29    73    72    1
    30    73    74    2
    31    94    95    1
    32    72    75    1
    33    75    76    1
    34    52    49    1
    35    52    53    1
    36    49    48    1
    37    77    76    1
    38    77    78    1
    39    95    96    1
    40    95    98    1
    41    80    79    1
    42    53    54    1
    43   112   106    1
    44   112   111    1
    45    78    79    2
    46    54    55    1
    47    79    81    1
    48    96   106   am
    49    96    97    2
    50   106   107    1
    51   108   107    1
    52   108   109    2
    53    98    99    1
    54   111   110    1
    55    55    56    2
    56   110   107    1
    57   113   114    1
    58   120   121    2
    59   120   119    1
    60   133   132    2
    61   132   131    1
    62    99   101   ar
    63    99   100   ar
    64    42    41   ar
    65    42    40   ar
    66    41    39   ar
    67   118   119    1
    68   118   115   am
    69    56    57    1
    70    56    58    1
    71   101   103   ar
    72   114   115    1
    73   114   117    1
    74   115   116    2
    75    40    38   ar
    76    39    37   ar
    77   100   102   ar
    78   131   134    1
    79   131   130    1
    80   134   135    1
    81    32    33    1
    82   130   124   am
    83    38    37   ar
    84    33    34    1
    85    33    36    1
    86    37    36    1
    87     9     8    1
    88   103   104   ar
    89   122   123    1
    90    46    45    2
    91    45    44    1
    92    34    35    2
    93    34    43   am
    94   102   104   ar
    95   136   135   ar
    96   136   138   ar
    97   135   137   ar
    98   124   123    1
    99   124   125    2
   100     8     7    1
   101    43    44    1
   102   104   105    1
   103   123   126    1
   104    44    47    1
   105     7     6    1
   106   138   140   ar
   107   126   127    1
   108   137   139   ar
   109     6     5    1
   110   128   127    1
   111   140   139   ar
   112   127   129    1
   113     5     2    1
   114    21    23   ar
   115    21    19   ar
   116    23    22   ar
   117    18    19   ar
   118    18    16   ar
   119    31    29    1
   120    19    17   ar
   121     2     1    1
   122     2     3    1
   123    16    15   ar
   124    22    20   ar
   125    29    30    1
   126    29    28    1
   127    17    20   ar
   128    17    15   ar
   129     3     4    2
   130     3    10   am
   131    15    14    1
   132    10    11    1
   133    28    25    1
   134    11    14    1
   135    11    12    1
   136    25    24    1
   137    25    26    1
   138    12    13    2
   139    26    27    2
