@<TRIPOS>MOLECULE
tmp/4ki0D06.pdb
 113 106 0 0 0
SMALL
GASTEIGER

@<TRIPOS>ATOM
      1  N        -56.5310   43.3570   25.6210 N.3   264  ALA264     -0.1245
      2  CA       -55.6550   44.3900   25.0690 C.3   264  ALA264      0.1562
      3  C        -54.3590   44.5140   25.8640 C.2   264  ALA264      0.2260
      4  O        -53.3200   44.8400   25.2980 O.2   264  ALA264     -0.2867
      5  CB       -56.3710   45.7310   25.0150 C.3   264  ALA264      0.0290
      6  N        -52.2560   41.2400   24.8690 N.3   267  VAL267     -0.1231
      7  CA       -51.6030   41.3420   23.5570 C.3   267  VAL267      0.1692
      8  C        -50.3550   42.2260   23.6300 C.2   267  VAL267      0.2592
      9  O        -49.3170   41.9020   23.0320 O.2   267  VAL267     -0.2718
     10  CB       -52.5550   41.9060   22.4680 C.3   267  VAL267      0.0266
     11  CG1      -51.8140   42.1100   21.1500 C.3   267  VAL267      0.0020
     12  CG2      -53.7600   40.9950   22.2610 C.3   267  VAL267      0.0020
     13  N        -50.4630   43.3440   24.3480 N.am  268  TRP268     -0.1976
     14  CA       -49.3300   44.2500   24.5250 C.3   268  TRP268      0.1640
     15  C        -48.1810   43.5650   25.2640 C.2   268  TRP268      0.2290
     16  O        -47.0240   43.7510   24.8980 O.2   268  TRP268     -0.2864
     17  CB       -49.7500   45.5430   25.2420 C.3   268  TRP268      0.0576
     18  CG       -48.6020   46.2910   25.8560 C.ar  268  TRP268      0.0006
     19  CD1      -48.4580   46.6240   27.1710 C.ar  268  TRP268      0.0946
     20  CD2      -47.4170   46.7590   25.1920 C.ar  268  TRP268      0.0152
     21  NE1      -47.2680   47.2820   27.3670 N.ar  268  TRP268     -0.2442
     22  CE2      -46.6070   47.3750   26.1710 C.ar  268  TRP268      0.0810
     23  CE3      -46.9620   46.7120   23.8690 C.ar  268  TRP268      0.0012
     24  CZ2      -45.3670   47.9490   25.8690 C.ar  268  TRP268      0.0191
     25  CZ3      -45.7310   47.2860   23.5680 C.ar  268  TRP268      0.0001
     26  CH2      -44.9450   47.8920   24.5680 C.ar  268  TRP268      0.0015
     27  N        -46.4690   41.1240   22.8710 N.3   271  VAL271     -0.1245
     28  CA       -45.7240   41.9070   21.8880 C.3   271  VAL271      0.1561
     29  C        -44.4990   42.5790   22.5230 C.2   271  VAL271      0.2260
     30  O        -43.4180   42.5990   21.9330 O.2   271  VAL271     -0.2867
     31  CB       -46.6470   42.9510   21.2020 C.3   271  VAL271      0.0252
     32  CG1      -45.8420   44.0290   20.4880 C.3   271  VAL271      0.0019
     33  CG2      -47.5900   42.2600   20.2220 C.3   271  VAL271      0.0019
     34  N        -40.7710   41.3270   21.2030 N.3   275  ILE275     -0.1245
     35  CA       -39.8710   42.3030   20.6050 C.3   275  ILE275      0.1561
     36  C        -38.6170   42.4660   21.4570 C.2   275  ILE275      0.2260
     37  O        -37.5170   42.5320   20.9220 O.2   275  ILE275     -0.2867
     38  CB       -40.5470   43.6630   20.3880 C.3   275  ILE275      0.0252
     39  CG1      -41.6870   43.5170   19.3770 C.3   275  ILE275      0.0019
     40  CG2      -39.5220   44.6760   19.8860 C.3   275  ILE275      0.0019
     41  CD1      -42.5630   44.7470   19.2380 C.3   275  ILE275      0.0001
     42  N        -34.9480   41.7530   19.8690 N.3   279  LEU279     -0.1245
     43  CA       -33.9490   42.8220   19.7940 C.3   279  LEU279      0.1561
     44  C        -32.7190   42.5660   20.6820 C.2   279  LEU279      0.2260
     45  O        -31.5890   42.7940   20.2460 O.2   279  LEU279     -0.2867
     46  CB       -34.5840   44.1850   20.0980 C.3   279  LEU279      0.0270
     47  CG       -35.5740   44.6730   19.0250 C.3   279  LEU279      0.0019
     48  CD1      -36.2970   45.9260   19.4830 C.3   279  LEU279      0.0001
     49  CD2      -34.8770   44.9310   17.6960 C.3   279  LEU279      0.0001
     50  N        -48.2880   54.5410   21.4220 N.3   351  THR351     -0.1218
     51  CA       -47.2990   53.8790   20.5790 C.3   351  THR351      0.1862
     52  C        -45.8820   54.3740   20.8640 C.2   351  THR351      0.2287
     53  O        -44.9320   53.5830   20.8660 O.2   351  THR351     -0.2866
     54  CB       -47.6490   54.0630   19.0900 C.3   351  THR351      0.1770
     55  OG1      -48.8910   53.4050   18.8290 O.3   351  THR351     -0.2211
     56  CG2      -46.5700   53.4730   18.1680 C.3   351  THR351      0.0375
     57  N        -44.6500   53.0160   24.1950 N.3   354  ARG354     -0.1231
     58  CA       -44.2890   51.6170   24.0100 C.3   354  ARG354      0.1694
     59  C        -42.9430   51.4730   23.3130 C.2   354  ARG354      0.2592
     60  O        -42.1570   50.5800   23.6390 O.2   354  ARG354     -0.2718
     61  CB       -45.3800   50.9190   23.2040 C.3   354  ARG354      0.0321
     62  CG       -46.6620   50.7560   23.9940 C.3   354  ARG354      0.0489
     63  CD       -47.7950   50.2320   23.1420 C.3   354  ARG354      0.2205
     64  NE       -48.8770   49.7050   23.9690 N.pl3 354  ARG354     -0.0865
     65  CZ       -50.0930   49.3940   23.5300 C.cat 354  ARG354      0.5346
     66  NH1      -50.4230   49.5570   22.2530 N.pl3 354  ARG354      0.1354
     67  NH2      -50.9900   48.9190   24.3840 N.pl3 354  ARG354      0.1354
     68  N        -42.6910   52.3520   22.3480 N.am  355  THR355     -0.1953
     69  CA       -41.3940   52.4350   21.6930 C.3   355  THR355      0.1897
     70  C        -40.2920   52.7670   22.7060 C.2   355  THR355      0.2313
     71  O        -39.2260   52.1470   22.6930 O.2   355  THR355     -0.2863
     72  CB       -41.4160   53.4960   20.5860 C.3   355  THR355      0.1794
     73  OG1      -42.4650   53.1890   19.6580 O.3   355  THR355     -0.2208
     74  CG2      -40.0870   53.5420   19.8500 C.3   355  THR355      0.0378
     75  N        -39.6160   49.7070   24.9930 N.3   358  ILE358     -0.1231
     76  CA       -38.8330   48.7030   24.2800 C.3   358  ILE358      0.1692
     77  C        -37.3910   49.1490   24.0710 C.2   358  ILE358      0.2591
     78  O        -36.4780   48.3230   24.1260 O.2   358  ILE358     -0.2718
     79  CB       -39.4780   48.3600   22.9200 C.3   358  ILE358      0.0266
     80  CG1      -40.6780   47.4410   23.1370 C.3   358  ILE358      0.0019
     81  CG2      -38.4850   47.6860   21.9800 C.3   358  ILE358      0.0020
     82  CD1      -41.6640   47.4630   21.9930 C.3   358  ILE358      0.0001
     83  N        -37.1920   50.4410   23.8090 N.am  359  ILE359     -0.1980
     84  CA       -35.8430   50.9970   23.6830 C.3   359  ILE359      0.1595
     85  C        -35.0660   50.8050   24.9800 C.2   359  ILE359      0.2287
     86  O        -33.9270   50.3520   24.9560 O.2   359  ILE359     -0.2864
     87  CB       -35.8580   52.4900   23.3020 C.3   359  ILE359      0.0276
     88  CG1      -36.2200   52.6530   21.8250 C.3   359  ILE359      0.0022
     89  CG2      -34.4980   53.1350   23.5470 C.3   359  ILE359      0.0022
     90  CD1      -36.7610   54.0250   21.4840 C.3   359  ILE359      0.0001
     91  N        -56.0470   54.2650   29.7750 N.3   439  ARG439     -0.1245
     92  CA       -57.0990   53.7230   28.9050 C.3   439  ARG439      0.1563
     93  C        -58.4220   54.2320   29.4530 C.2   439  ARG439      0.2260
     94  O        -58.8450   53.8380   30.5450 O.2   439  ARG439     -0.2867
     95  CB       -57.1290   52.1950   28.8960 C.3   439  ARG439      0.0307
     96  CG       -55.8790   51.5250   28.3660 C.3   439  ARG439      0.0489
     97  CD       -55.9300   50.0320   28.6520 C.3   439  ARG439      0.2205
     98  NE       -54.8100   49.3080   28.0640 N.pl3 439  ARG439     -0.0865
     99  CZ       -54.7010   48.9750   26.7780 C.cat 439  ARG439      0.5346
    100  NH1      -55.6460   49.3000   25.8960 N.pl3 439  ARG439      0.1354
    101  NH2      -53.6240   48.3120   26.3680 N.pl3 439  ARG439      0.1354
    102  N        -52.0630   52.0790   28.7030 N.3   448  TYR448     -0.1241
    103  CA       -51.6250   51.4390   27.4660 C.3   448  TYR448      0.1605
    104  C        -50.2920   50.6930   27.5510 C.2   448  TYR448      0.2264
    105  O        -49.9910   49.8950   26.6690 O.2   448  TYR448     -0.2867
    106  CB       -51.5810   52.4620   26.3250 C.3   448  TYR448      0.0534
    107  CG       -52.9440   52.8010   25.7720 C.ar  448  TYR448     -0.0201
    108  CD1      -53.7470   53.7560   26.3840 C.ar  448  TYR448     -0.0009
    109  CD2      -53.4360   52.1590   24.6400 C.ar  448  TYR448     -0.0009
    110  CE1      -54.9990   54.0690   25.8820 C.ar  448  TYR448      0.0417
    111  CE2      -54.6880   52.4640   24.1310 C.ar  448  TYR448      0.0417
    112  CZ       -55.4640   53.4180   24.7560 C.ar  448  TYR448      0.1957
    113  OH       -56.7070   53.7280   24.2530 O.3   448  TYR448     -0.2866
@<TRIPOS>BOND
     1    49    47    1
     2    56    54    1
     3    55    54    1
     4    47    48    1
     5    47    46    1
     6    54    51    1
     7    41    39    1
     8    39    38    1
     9    73    72    1
    10    43    42    1
    11    43    46    1
    12    43    44    1
    13    74    72    1
    14    40    38    1
    15    33    31    1
    16    45    44    2
    17    38    35    1
    18    32    31    1
    19    51    52    1
    20    51    50    1
    21    72    69    1
    22    35    34    1
    23    35    36    1
    24    52    53    2
    25    37    36    2
    26    11    10    1
    27    31    28    1
    28    90    88    1
    29    69    68    1
    30    69    70    1
    31    88    87    1
    32    28    29    1
    33    28    27    1
    34    30    29    2
    35    81    79    1
    36    82    80    1
    37    66    65    1
    38    12    10    1
    39    68    59   am
    40    10     7    1
    41    71    70    2
    42    79    80    1
    43    79    76    1
    44     9     8    2
    45    63    64    1
    46    63    62    1
    47    61    62    1
    48    61    58    1
    49    87    89    1
    50    87    84    1
    51    59    60    2
    52    59    58    1
    53    65    64    2
    54    65    67    1
    55     7     8    1
    56     7     6    1
    57    25    23   ar
    58    25    26   ar
    59     8    13   am
    60    84    83    1
    61    84    85    1
    62    83    77   am
    63    23    20   ar
    64    58    57    1
    65    77    78    2
    66    77    76    1
    67   111   109   ar
    68   111   112   ar
    69   113   112    1
    70    76    75    1
    71    13    14    1
    72    14    17    1
    73    14    15    1
    74    26    24   ar
    75   109   107   ar
    76   112   110   ar
    77    16    15    2
    78    86    85    2
    79     5     2    1
    80     2     1    1
    81     2     3    1
    82    20    18   ar
    83    20    22   ar
    84    17    18    1
    85     4     3    2
    86   107   106    1
    87   107   108   ar
    88    18    19   ar
    89    24    22   ar
    90   110   108   ar
    91   100    99    1
    92    22    21   ar
    93   106   103    1
    94   101    99    1
    95   105   104    2
    96    99    98    2
    97    19    21   ar
    98   103   104    1
    99   103   102    1
   100    98    97    1
   101    96    97    1
   102    96    95    1
   103    95    92    1
   104    92    93    1
   105    92    91    1
   106    93    94    2
