@<TRIPOS>MOLECULE
tmp/4ki0B01.pdb
 98 94 0 0 0
SMALL
GASTEIGER

@<TRIPOS>ATOM
      1  N          6.5260   29.5480   11.4030 N.3    12  TRP12      -0.1241
      2  CA         5.8090   29.6860   12.6650 C.3    12  TRP12       0.1605
      3  C          6.8170   30.2310   13.6650 C.2    12  TRP12       0.2264
      4  O          7.5400   29.4640   14.3050 O.2    12  TRP12      -0.2867
      5  CB         5.2550   28.3420   13.1500 C.3    12  TRP12       0.0550
      6  CG         4.3070   27.6870   12.2010 C.ar   12  TRP12       0.0003
      7  CD1        4.5310   26.5540   11.4790 C.ar   12  TRP12       0.0946
      8  CD2        2.9800   28.1160   11.8740 C.ar   12  TRP12       0.0152
      9  NE1        3.4260   26.2460   10.7170 N.ar   12  TRP12      -0.2442
     10  CE2        2.4580   27.1890   10.9420 C.ar   12  TRP12       0.0810
     11  CE3        2.1800   29.1920   12.2780 C.ar   12  TRP12       0.0012
     12  CZ2        1.1730   27.3050   10.4060 C.ar   12  TRP12       0.0191
     13  CZ3        0.9000   29.3090   11.7430 C.ar   12  TRP12       0.0001
     14  CH2        0.4120   28.3690   10.8150 C.ar   12  TRP12       0.0015
     15  N         10.6510   28.9370   12.9150 N.3    15  VAL15      -0.1245
     16  CA        10.6330   27.5320   12.4970 C.3    15  VAL15       0.1561
     17  C         10.1350   27.4460   11.0510 C.2    15  VAL15       0.2260
     18  O          8.9270   27.4300   10.8000 O.2    15  VAL15      -0.2867
     19  CB         9.7260   26.6750   13.4140 C.3    15  VAL15       0.0252
     20  CG1        9.6570   25.2320   12.9180 C.3    15  VAL15       0.0019
     21  CG2       10.2120   26.7300   14.8580 C.3    15  VAL15       0.0019
     22  N          8.7850   26.2290    7.9430 N.3    17  VAL17      -0.1245
     23  CA         7.9920   25.0820    7.4900 C.3    17  VAL17       0.1561
     24  C          7.9560   24.9800    5.9580 C.2    17  VAL17       0.2260
     25  O          7.6970   23.9100    5.4010 O.2    17  VAL17      -0.2867
     26  CB         6.5620   25.1530    8.0990 C.3    17  VAL17       0.0252
     27  CG1        5.5030   24.5180    7.2030 C.3    17  VAL17       0.0019
     28  CG2        6.5510   24.5000    9.4760 C.3    17  VAL17       0.0019
     29  N          4.9440   12.4230    5.4050 N.3    37  SER37      -0.1202
     30  CA         3.9860   12.9360    6.3640 C.3    37  SER37       0.2020
     31  C          4.7040   13.9260    7.2760 C.2    37  SER37       0.2619
     32  O          5.4820   13.5360    8.1320 O.2    37  SER37      -0.2717
     33  CB         3.3740   11.7840    7.1720 C.3    37  SER37       0.2103
     34  OG         2.4820   12.2530    8.1630 O.3    37  SER37      -0.2182
     35  N          4.4830   15.2110    7.0250 N.am   38  GLY38      -0.1942
     36  CA         4.9980   16.2900    7.8640 C.3    38  GLY38       0.2014
     37  C          5.9420   17.2250    7.1320 C.2    38  GLY38       0.2639
     38  O          6.5450   18.0980    7.7580 O.2    38  GLY38      -0.2714
     39  N          6.0580   17.0620    5.8120 N.am   39  CYS39      -0.1953
     40  CA         7.0320   17.8110    5.0150 C.3    39  CYS39       0.1843
     41  C          6.5760   19.2170    4.6380 C.2    39  CYS39       0.2626
     42  O          7.4170   20.0760    4.3680 O.2    39  CYS39      -0.2714
     43  CB         7.3620   17.0420    3.7390 C.3    39  CYS39       0.0997
     44  SG         5.9000   16.6470    2.7630 S.3    39  CYS39      -0.0797
     45  N          5.2600   19.4440    4.5980 N.am   40  GLY40      -0.1940
     46  CA         4.7070   20.7820    4.3250 C.3    40  GLY40       0.2014
     47  C          3.7060   20.9050    3.1830 C.2    40  GLY40       0.2639
     48  O          3.5120   21.9940    2.6510 O.2    40  GLY40      -0.2714
     49  N          3.0410   19.8070    2.8340 N.am   41  LYS41      -0.1963
     50  CA         2.1520   19.7590    1.6680 C.3    41  LYS41       0.1728
     51  C          0.8620   20.5630    1.9020 C.2    41  LYS41       0.2617
     52  O          0.4720   21.3990    1.0840 O.2    41  LYS41      -0.2715
     53  CB         1.8050   18.2910    1.3250 C.3    41  LYS41       0.0311
     54  CG         3.0220   17.3710    1.2070 C.3    41  LYS41       0.0038
     55  CD         2.6660   15.9280    0.8860 C.3    41  LYS41       0.0206
     56  CE         1.9470   15.1960    2.0240 C.3    41  LYS41       0.1093
     57  NZ         2.8020   14.9510    3.2200 N.3    41  LYS41      -0.1314
     58  N          0.2080   20.2940    3.0290 N.am   42  SER42      -0.1936
     59  CA        -1.0360   20.9680    3.3950 C.3    42  SER42       0.2055
     60  C         -0.8020   22.4420    3.6580 C.2    42  SER42       0.2643
     61  O         -1.5900   23.2830    3.2350 O.2    42  SER42      -0.2714
     62  CB        -1.6640   20.3020    4.6210 C.3    42  SER42       0.2130
     63  OG        -2.0650   18.9680    4.3180 O.3    42  SER42      -0.2179
     64  N          0.2810   22.7530    4.3600 N.am   43  THR43      -0.1950
     65  CA         0.7150   24.1410    4.5440 C.3    43  THR43       0.1897
     66  C          0.7870   24.8620    3.2000 C.2    43  THR43       0.2313
     67  O          0.2850   25.9680    3.0580 O.2    43  THR43      -0.2863
     68  CB         2.0950   24.2000    5.2210 C.3    43  THR43       0.1794
     69  OG1        2.0380   23.5190    6.4790 O.3    43  THR43      -0.2208
     70  CG2        2.5240   25.6310    5.4550 C.3    43  THR43       0.0378
     71  N         -8.1410   17.9220    4.1920 N.3    81  GLN81      -0.1245
     72  CA        -7.5850   16.6750    4.7130 C.3    81  GLN81       0.1566
     73  C         -8.4940   16.0630    5.7740 C.2    81  GLN81       0.2260
     74  O         -8.7020   14.8560    5.7940 O.2    81  GLN81      -0.2867
     75  CB        -6.1910   16.9060    5.2870 C.3    81  GLN81       0.0367
     76  CG        -5.4890   15.6300    5.6950 C.3    81  GLN81       0.0905
     77  CD        -3.9800   15.7560    5.7200 C.2    81  GLN81       0.2608
     78  OE1       -3.4120   16.7800    5.3240 O.2    81  GLN81      -0.2717
     79  NE2       -3.3120   14.6960    6.1740 N.am   81  GLN81      -0.0878
     80  N         -5.1490   14.7870    0.2170 N.3   158  GLU158     -0.1245
     81  CA        -5.3080   13.3530    0.5190 C.3   158  GLU158      0.1567
     82  C         -6.7710   12.8860    0.4320 C.2   158  GLU158      0.2260
     83  O         -7.3180   12.3240    1.3870 O.2   158  GLU158     -0.2867
     84  CB        -4.6430   13.0280    1.8720 C.3   158  GLU158      0.0388
     85  CG        -3.1850   13.5010    1.9010 C.3   158  GLU158      0.1160
     86  CD        -2.3440   13.0430    3.0960 C.2   158  GLU158      0.3649
     87  OE1       -2.7400   12.0970    3.8170 O.co2 158  GLU158     -0.2457
     88  OE2       -1.2540   13.6410    3.3020 O.co2 158  GLU158     -0.2457
     89  N         -0.4210   10.4140   -0.7110 N.3   191  HIS191     -0.1241
     90  CA         0.6140    9.4550   -0.3290 C.3   191  HIS191      0.1621
     91  C          0.5510    8.1860   -1.1890 C.2   191  HIS191      0.2264
     92  O          1.4440    7.3240   -1.1070 O.2   191  HIS191     -0.2867
     93  CB         0.4670    9.0720    1.1410 C.3   191  HIS191      0.0745
     94  CG         0.8810   10.1450    2.0940 C.ar  191  HIS191      0.0817
     95  ND1        2.0500   10.8630    1.9490 N.ar  191  HIS191     -0.2268
     96  CD2        0.2950   10.6010    3.2250 C.ar  191  HIS191      0.1154
     97  CE1        2.1610   11.7210    2.9470 C.ar  191  HIS191      0.1986
     98  NE2        1.1130   11.5760    3.7390 N.ar  191  HIS191     -0.2212
@<TRIPOS>BOND
     1    91    92    2
     2    91    90    1
     3    89    90    1
     4    90    93    1
     5    80    81    1
     6    82    81    1
     7    82    83    2
     8    81    84    1
     9    55    54    1
    10    55    56    1
    11    52    51    2
    12    93    94    1
    13    54    53    1
    14    53    50    1
    15    50    51    1
    16    50    49    1
    17    84    85    1
    18    85    86    1
    19    51    58   am
    20    95    94   ar
    21    95    97   ar
    22    56    57    1
    23    94    96   ar
    24    48    47    2
    25    44    43    1
    26    49    47   am
    27    97    98   ar
    28    58    59    1
    29    67    66    2
    30    86    88   ar
    31    86    87   ar
    32    47    46    1
    33    66    65    1
    34    96    98   ar
    35    61    60    2
    36    59    60    1
    37    59    62    1
    38    60    64   am
    39    43    40    1
    40    71    72    1
    41    63    62    1
    42    46    45    1
    43    64    65    1
    44    42    41    2
    45    65    68    1
    46    45    41   am
    47    41    40    1
    48    72    75    1
    49    72    73    1
    50    40    39    1
    51    68    70    1
    52    68    69    1
    53    75    76    1
    54    78    77    2
    55    25    24    2
    56    29    30    1
    57    76    77    1
    58    77    79   am
    59    73    74    2
    60    39    37   am
    61    24    23    1
    62    30    33    1
    63    30    31    1
    64    35    31   am
    65    35    36    1
    66    37    38    2
    67    37    36    1
    68    33    34    1
    69    27    26    1
    70    31    32    2
    71    23    22    1
    72    23    26    1
    73    26    28    1
    74    12    14   ar
    75    12    10   ar
    76     9    10   ar
    77     9     7   ar
    78    18    17    2
    79    14    13   ar
    80    10     8   ar
    81    17    16    1
    82     1     2    1
    83     7     6   ar
    84    13    11   ar
    85     8     6   ar
    86     8    11   ar
    87     6     5    1
    88    16    15    1
    89    16    19    1
    90     2     5    1
    91     2     3    1
    92    20    19    1
    93    19    21    1
    94     3     4    2
