@<TRIPOS>MOLECULE
tmp/4ki0D05.pdb
 111 107 0 0 0
SMALL
GASTEIGER

@<TRIPOS>ATOM
      1  N        -34.9480   41.7530   19.8690 N.3   279  LEU279     -0.1245
      2  CA       -33.9490   42.8220   19.7940 C.3   279  LEU279      0.1561
      3  C        -32.7190   42.5660   20.6820 C.2   279  LEU279      0.2260
      4  O        -31.5890   42.7940   20.2460 O.2   279  LEU279     -0.2867
      5  CB       -34.5840   44.1850   20.0980 C.3   279  LEU279      0.0270
      6  CG       -35.5740   44.6730   19.0250 C.3   279  LEU279      0.0019
      7  CD1      -36.2970   45.9260   19.4830 C.3   279  LEU279      0.0001
      8  CD2      -34.8770   44.9310   17.6960 C.3   279  LEU279      0.0001
      9  N        -29.2060   42.2220   18.8580 N.3   283  VAL283     -0.1245
     10  CA       -28.1730   43.1810   19.2480 C.3   283  VAL283      0.1561
     11  C        -27.0210   42.4840   19.9670 C.2   283  VAL283      0.2260
     12  O        -25.8540   42.7120   19.6540 O.2   283  VAL283     -0.2867
     13  CB       -28.7420   44.2890   20.1530 C.3   283  VAL283      0.0252
     14  CG1      -27.6200   45.1230   20.7620 C.3   283  VAL283      0.0019
     15  CG2      -29.6920   45.1800   19.3570 C.3   283  VAL283      0.0019
     16  N        -33.4930   57.2730   32.6490 N.3   321  PHE321     -0.1241
     17  CA       -34.1500   57.2590   31.3400 C.3   321  PHE321      0.1605
     18  C        -35.4260   58.0870   31.3920 C.2   321  PHE321      0.2264
     19  O        -35.7110   58.8580   30.4730 O.2   321  PHE321     -0.2867
     20  CB       -34.4750   55.8310   30.8640 C.3   321  PHE321      0.0534
     21  CG       -33.3670   55.1840   30.0770 C.ar  321  PHE321     -0.0203
     22  CD1      -32.6900   54.0790   30.5770 C.ar  321  PHE321     -0.0042
     23  CD2      -33.0020   55.6760   28.8390 C.ar  321  PHE321     -0.0042
     24  CE1      -31.6780   53.4800   29.8550 C.ar  321  PHE321     -0.0003
     25  CE2      -31.9810   55.0790   28.1130 C.ar  321  PHE321     -0.0003
     26  CZ       -31.3170   53.9800   28.6230 C.ar  321  PHE321     -0.0000
     27  N        -34.3360   61.4780   30.9120 N.3   324  LEU324     -0.1231
     28  CA       -33.8390   61.6940   29.5530 C.3   324  LEU324      0.1693
     29  C        -34.9710   61.7750   28.5290 C.2   324  LEU324      0.2592
     30  O        -34.8410   62.4580   27.5120 O.2   324  LEU324     -0.2718
     31  CB       -32.8820   60.5750   29.1320 C.3   324  LEU324      0.0284
     32  CG       -31.5540   60.3620   29.8680 C.3   324  LEU324      0.0019
     33  CD1      -30.7600   59.2910   29.1390 C.3   324  LEU324      0.0001
     34  CD2      -30.7210   61.6320   29.9870 C.3   324  LEU324      0.0001
     35  N        -36.0680   61.0690   28.7990 N.am  325  PHE325     -0.1976
     36  CA       -37.1710   60.9490   27.8500 C.3   325  PHE325      0.1639
     37  C        -38.2610   62.0080   28.0650 C.2   325  PHE325      0.2290
     38  O        -39.2350   62.0440   27.3130 O.2   325  PHE325     -0.2864
     39  CB       -37.7760   59.5370   27.9080 C.3   325  PHE325      0.0560
     40  CG       -37.1450   58.5670   26.9540 C.ar  325  PHE325     -0.0200
     41  CD1      -37.5140   58.5610   25.6180 C.ar  325  PHE325     -0.0042
     42  CD2      -36.1930   57.6510   27.3860 C.ar  325  PHE325     -0.0042
     43  CE1      -36.9420   57.6800   24.7230 C.ar  325  PHE325     -0.0003
     44  CE2      -35.6160   56.7580   26.4960 C.ar  325  PHE325     -0.0003
     45  CZ       -35.9920   56.7740   25.1630 C.ar  325  PHE325     -0.0000
     46  N        -32.9980   65.4570   27.7530 N.3   331  GLU331     -0.1231
     47  CA       -31.9950   65.7470   26.7280 C.3   331  GLU331      0.1699
     48  C        -32.2060   65.0500   25.3830 C.2   331  GLU331      0.2592
     49  O        -31.6720   65.5180   24.3770 O.2   331  GLU331     -0.2718
     50  CB       -30.5500   65.5590   27.2400 C.3   331  GLU331      0.0402
     51  CG       -30.3650   64.6890   28.4660 C.3   331  GLU331      0.1161
     52  CD       -30.6880   65.3950   29.7670 C.2   331  GLU331      0.3649
     53  OE1      -29.9420   66.3210   30.1450 O.co2 331  GLU331     -0.2457
     54  OE2      -31.6760   65.0110   30.4250 O.co2 331  GLU331     -0.2457
     55  N        -32.9840   63.9670   25.3450 N.am  332  ILE332     -0.1980
     56  CA       -33.2830   63.3050   24.0640 C.3   332  ILE332      0.1595
     57  C        -34.1340   64.2160   23.1620 C.2   332  ILE332      0.2287
     58  O        -33.7590   64.4660   22.0200 O.2   332  ILE332     -0.2864
     59  CB       -33.9490   61.9160   24.2360 C.3   332  ILE332      0.0276
     60  CG1      -32.9630   60.9190   24.8580 C.3   332  ILE332      0.0022
     61  CG2      -34.4010   61.3510   22.8920 C.3   332  ILE332      0.0022
     62  CD1      -33.5460   59.5470   25.1440 C.3   332  ILE332      0.0001
     63  N        -32.2820   67.1270   21.8370 N.3   335  MET335     -0.1245
     64  CA       -31.4570   66.7120   20.7040 C.3   335  MET335      0.1570
     65  C        -32.3130   66.5460   19.4480 C.2   335  MET335      0.2261
     66  O        -31.9230   66.9940   18.3710 O.2   335  MET335     -0.2867
     67  CB       -30.7260   65.3990   21.0210 C.3   335  MET335      0.0387
     68  CG       -29.9020   64.8190   19.8760 C.3   335  MET335      0.0595
     69  SD       -29.2610   63.1670   20.2410 S.3   335  MET335     -0.1393
     70  CE       -30.6890   62.1300   19.9300 C.3   335  MET335      0.0692
     71  N        -37.1920   50.4410   23.8090 N.3   359  ILE359     -0.1245
     72  CA       -35.8430   50.9970   23.6830 C.3   359  ILE359      0.1561
     73  C        -35.0660   50.8050   24.9800 C.2   359  ILE359      0.2260
     74  O        -33.9270   50.3520   24.9560 O.2   359  ILE359     -0.2867
     75  CB       -35.8580   52.4900   23.3020 C.3   359  ILE359      0.0252
     76  CG1      -36.2200   52.6530   21.8250 C.3   359  ILE359      0.0019
     77  CG2      -34.4980   53.1350   23.5470 C.3   359  ILE359      0.0019
     78  CD1      -36.7610   54.0250   21.4840 C.3   359  ILE359      0.0001
     79  N        -34.2980   47.0920   25.7910 N.3   362  THR362     -0.1203
     80  CA       -33.2320   46.5950   24.9340 C.3   362  THR362      0.1994
     81  C        -31.8690   47.0060   25.4930 C.2   362  THR362      0.2617
     82  O        -30.9410   46.1890   25.5250 O.2   362  THR362     -0.2717
     83  CB       -33.3840   47.1010   23.4840 C.3   362  THR362      0.1784
     84  OG1      -34.6660   46.7180   22.9660 O.3   362  THR362     -0.2211
     85  CG2      -32.2930   46.5280   22.5920 C.3   362  THR362      0.0376
     86  N        -31.7610   48.2620   25.9370 N.am  363  TRP363     -0.1975
     87  CA       -30.5660   48.7670   26.6360 C.3   363  TRP363      0.1640
     88  C        -30.2840   47.9330   27.8850 C.2   363  TRP363      0.2290
     89  O        -29.1430   47.5510   28.1490 O.2   363  TRP363     -0.2864
     90  CB       -30.7570   50.2430   27.0180 C.3   363  TRP363      0.0576
     91  CG       -29.5460   50.9330   27.6330 C.ar  363  TRP363      0.0006
     92  CD1      -28.5650   51.6250   26.9670 C.ar  363  TRP363      0.0946
     93  CD2      -29.2250   51.0390   29.0300 C.ar  363  TRP363      0.0152
     94  NE1      -27.6550   52.1390   27.8620 N.ar  363  TRP363     -0.2442
     95  CE2      -28.0340   51.7940   29.1310 C.ar  363  TRP363      0.0810
     96  CE3      -29.8250   50.5630   30.2010 C.ar  363  TRP363      0.0012
     97  CZ2      -27.4260   52.0740   30.3540 C.ar  363  TRP363      0.0191
     98  CZ3      -29.2330   50.8450   31.4120 C.ar  363  TRP363      0.0001
     99  CH2      -28.0400   51.6010   31.4820 C.ar  363  TRP363      0.0015
    100  N        -29.6900   43.6520   26.3790 N.3   366  TYR366     -0.1241
    101  CA       -28.7370   43.1490   25.3870 C.3   366  TYR366      0.1605
    102  C        -27.4660   42.5650   26.0160 C.2   366  TYR366      0.2264
    103  O        -26.9480   41.5720   25.5170 O.2   366  TYR366     -0.2867
    104  CB       -28.4160   44.1960   24.3010 C.3   366  TYR366      0.0534
    105  CG       -27.3150   45.1820   24.6360 C.ar  366  TYR366     -0.0201
    106  CD1      -25.9750   44.8130   24.5640 C.ar  366  TYR366     -0.0009
    107  CD2      -27.6130   46.4890   24.9850 C.ar  366  TYR366     -0.0009
    108  CE1      -24.9660   45.7170   24.8570 C.ar  366  TYR366      0.0417
    109  CE2      -26.6140   47.3980   25.2830 C.ar  366  TYR366      0.0417
    110  CZ       -25.2920   47.0090   25.2200 C.ar  366  TYR366      0.1957
    111  OH       -24.2990   47.9110   25.5320 O.3   366  TYR366     -0.2866
@<TRIPOS>BOND
     1     8     6    1
     2    66    65    2
     3     9    10    1
     4     6     7    1
     5     6     5    1
     6    10    11    1
     7    10    13    1
     8    15    13    1
     9    65    64    1
    10    12    11    2
    11     2     1    1
    12     2     5    1
    13     2     3    1
    14    68    69    1
    15    68    67    1
    16    70    69    1
    17    13    14    1
    18     4     3    2
    19    64    67    1
    20    64    63    1
    21    78    76    1
    22    76    75    1
    23    58    57    2
    24    85    83    1
    25    61    59    1
    26    84    83    1
    27    57    56    1
    28    75    77    1
    29    75    72    1
    30    83    80    1
    31    72    71    1
    32    72    73    1
    33    56    59    1
    34    56    55    1
    35    59    60    1
    36   104   105    1
    37   104   101    1
    38    49    48    2
    39   106   105   ar
    40   106   108   ar
    41   105   107   ar
    42    43    45   ar
    43    43    41   ar
    44   108   110   ar
    45    60    62    1
    46    80    81    1
    47    80    79    1
    48    74    73    2
    49   107   109   ar
    50    45    44   ar
    51   110   109   ar
    52   110   111    1
    53    55    48   am
    54    48    47    1
    55   101   102    1
    56   101   100    1
    57    81    82    2
    58    81    86   am
    59   103   102    2
    60    41    40   ar
    61    86    87    1
    62    44    42   ar
    63    87    90    1
    64    87    88    1
    65    47    50    1
    66    47    46    1
    67    40    42   ar
    68    40    39    1
    69    92    91   ar
    70    92    94   ar
    71    90    91    1
    72    50    51    1
    73    38    37    2
    74    30    29    2
    75    91    93   ar
    76    36    39    1
    77    36    37    1
    78    36    35    1
    79    94    95   ar
    80    88    89    2
    81    25    26   ar
    82    25    23   ar
    83    51    52    1
    84    29    35   am
    85    29    28    1
    86    26    24   ar
    87    23    21   ar
    88    93    95   ar
    89    93    96   ar
    90    95    97   ar
    91    31    28    1
    92    31    32    1
    93    33    32    1
    94    28    27    1
    95    52    53   ar
    96    52    54   ar
    97    24    22   ar
    98    32    34    1
    99    21    22   ar
   100    21    20    1
   101    96    98   ar
   102    97    99   ar
   103    19    18    2
   104    20    17    1
   105    17    18    1
   106    17    16    1
   107    98    99   ar
