@<TRIPOS>MOLECULE
tmp/4ki0D01.pdb
 118 109 0 0 0
SMALL
GASTEIGER

@<TRIPOS>ATOM
      1  N        -38.7870   42.5320   22.7740 N.3   276  THR276     -0.1218
      2  CA       -37.6500   42.6170   23.6880 C.3   276  THR276      0.1862
      3  C        -36.6790   41.4660   23.4250 C.2   276  THR276      0.2287
      4  O        -35.4680   41.6850   23.2570 O.2   276  THR276     -0.2866
      5  CB       -38.0990   42.5680   25.1680 C.3   276  THR276      0.1770
      6  OG1      -38.8590   43.7400   25.4890 O.3   276  THR276     -0.2211
      7  CG2      -36.8980   42.4730   26.0980 C.3   276  THR276      0.0375
      8  N        -32.9280   42.0780   21.9050 N.3   280  THR280     -0.1218
      9  CA       -31.8020   41.7700   22.7990 C.3   280  THR280      0.1862
     10  C        -30.9320   40.6510   22.2360 C.2   280  THR280      0.2287
     11  O        -29.7050   40.7220   22.3130 O.2   280  THR280     -0.2866
     12  CB       -32.2520   41.4170   24.2380 C.3   280  THR280      0.1770
     13  OG1      -33.2890   40.4220   24.2120 O.3   280  THR280     -0.2211
     14  CG2      -32.7710   42.6600   24.9410 C.3   280  THR280      0.0375
     15  N        -25.2590   46.6760   32.2490 N.3   310  TYR310     -0.1241
     16  CA       -25.6450   45.5590   33.0930 C.3   310  TYR310      0.1605
     17  C        -24.8610   45.5600   34.4000 C.2   310  TYR310      0.2264
     18  O        -25.2630   44.9070   35.3620 O.2   310  TYR310     -0.2867
     19  CB       -25.4020   44.2760   32.3020 C.3   310  TYR310      0.0534
     20  CG       -26.1280   43.0270   32.7430 C.ar  310  TYR310     -0.0201
     21  CD1      -27.3150   43.0740   33.4790 C.ar  310  TYR310     -0.0009
     22  CD2      -25.6370   41.7820   32.3750 C.ar  310  TYR310     -0.0009
     23  CE1      -27.9680   41.9080   33.8510 C.ar  310  TYR310      0.0417
     24  CE2      -26.2820   40.6210   32.7390 C.ar  310  TYR310      0.0417
     25  CZ       -27.4440   40.6870   33.4700 C.ar  310  TYR310      0.1957
     26  OH       -28.0560   39.5130   33.8180 O.3   310  TYR310     -0.2866
     27  N        -30.2110   48.4260   37.7110 N.3   314  SER314     -0.1217
     28  CA       -31.1330   48.9690   36.7300 C.3   314  SER314      0.1889
     29  C        -32.0410   50.0510   37.3070 C.2   314  SER314      0.2288
     30  O        -32.5520   50.8950   36.5660 O.2   314  SER314     -0.2866
     31  CB       -31.9880   47.8410   36.1420 C.3   314  SER314      0.2089
     32  OG       -32.8980   47.3230   37.1000 O.3   314  SER314     -0.2183
     33  N        -33.1650   53.2060   35.0050 N.3   318  ILE318     -0.1245
     34  CA       -34.5290   53.3970   34.5530 C.3   318  ILE318      0.1561
     35  C        -35.0160   54.8070   34.8960 C.2   318  ILE318      0.2260
     36  O        -35.5720   55.5040   34.0380 O.2   318  ILE318     -0.2867
     37  CB       -35.4720   52.3410   35.1650 C.3   318  ILE318      0.0252
     38  CG1      -35.1260   50.9510   34.6220 C.3   318  ILE318      0.0019
     39  CG2      -36.9280   52.6550   34.8540 C.3   318  ILE318      0.0019
     40  CD1      -35.7030   49.8040   35.4310 C.3   318  ILE318      0.0001
     41  N        -35.6980   48.7360   27.5340 N.3   361  ASN361     -0.1240
     42  CA       -35.5550   47.3230   27.8540 C.3   361  ASN361      0.1653
     43  C        -34.4400   46.6690   27.0410 C.2   361  ASN361      0.2266
     44  O        -33.7180   45.8050   27.5400 O.2   361  ASN361     -0.2867
     45  CB       -36.8870   46.5900   27.6220 C.3   361  ASN361      0.1155
     46  CG       -37.1040   45.4520   28.5960 C.2   361  ASN361      0.2627
     47  OD1      -37.9180   44.5640   28.3580 O.2   361  ASN361     -0.2716
     48  ND2      -36.3780   45.4720   29.6980 N.am  361  ASN361     -0.0877
     49  N        -31.3350   47.6420   28.6400 N.3   364  LEU364     -0.1231
     50  CA       -31.2250   46.7940   29.8310 C.3   364  LEU364      0.1693
     51  C        -30.8080   45.3500   29.5190 C.2   364  LEU364      0.2592
     52  O        -30.0060   44.7600   30.2500 O.2   364  LEU364     -0.2718
     53  CB       -32.5620   46.7770   30.5950 C.3   364  LEU364      0.0284
     54  CG       -32.9960   48.0640   31.3100 C.3   364  LEU364      0.0019
     55  CD1      -34.4490   47.9850   31.7650 C.3   364  LEU364      0.0001
     56  CD2      -32.0790   48.3370   32.4910 C.3   364  LEU364      0.0001
     57  N        -31.3430   44.7920   28.4310 N.am  365  GLY365     -0.1957
     58  CA       -31.3000   43.3440   28.1920 C.3   365  GLY365      0.1869
     59  C        -30.2470   42.8050   27.2400 C.2   365  GLY365      0.2309
     60  O        -29.9300   41.6120   27.2840 O.2   365  GLY365     -0.2863
     61  N        -26.9720   40.7710   28.6300 N.3   368  TYR368     -0.1241
     62  CA       -27.2500   39.3910   29.0070 C.3   368  TYR368      0.1605
     63  C        -27.0810   38.4730   27.8170 C.2   368  TYR368      0.2264
     64  O        -26.3870   37.4640   27.8890 O.2   368  TYR368     -0.2867
     65  CB       -28.6810   39.2920   29.5200 C.3   368  TYR368      0.0534
     66  CG       -29.1510   37.9060   29.8500 C.ar  368  TYR368     -0.0201
     67  CD1      -28.5600   37.1740   30.8710 C.ar  368  TYR368     -0.0009
     68  CD2      -30.2230   37.3350   29.1700 C.ar  368  TYR368     -0.0009
     69  CE1      -29.0050   35.9070   31.1940 C.ar  368  TYR368      0.0417
     70  CE2      -30.6720   36.0650   29.4920 C.ar  368  TYR368      0.0417
     71  CZ       -30.0560   35.3600   30.5100 C.ar  368  TYR368      0.1957
     72  OH       -30.4870   34.0970   30.8290 O.3   368  TYR368     -0.2866
     73  N        -33.1200   29.6850   26.5040 N.3   414  LEU414     -0.1245
     74  CA       -32.8260   30.9920   27.0880 C.3   414  LEU414      0.1561
     75  C        -33.7800   32.0790   26.6040 C.2   414  LEU414      0.2260
     76  O        -34.1330   32.9700   27.3680 O.2   414  LEU414     -0.2867
     77  CB       -31.3900   31.4040   26.7830 C.3   414  LEU414      0.0270
     78  CG       -30.3160   30.4810   27.3600 C.3   414  LEU414      0.0019
     79  CD1      -28.9990   30.7350   26.6460 C.3   414  LEU414      0.0001
     80  CD2      -30.1660   30.6490   28.8630 C.3   414  LEU414      0.0001
     81  N        -37.1860   31.4940   28.2520 N.3   417  ALA417     -0.1231
     82  CA       -37.0920   32.0000   29.6120 C.3   417  ALA417      0.1694
     83  C        -37.1960   33.5220   29.6250 C.2   417  ALA417      0.2592
     84  O        -37.9290   34.1060   30.4390 O.2   417  ALA417     -0.2718
     85  CB       -35.7840   31.5600   30.2440 C.3   417  ALA417      0.0304
     86  N        -36.4640   34.1640   28.7190 N.am  418  SER418     -0.1952
     87  CA       -36.4850   35.6190   28.6330 C.3   418  SER418      0.1924
     88  C        -37.8940   36.1310   28.3100 C.2   418  SER418      0.2314
     89  O        -38.2910   37.1840   28.7990 O.2   418  SER418     -0.2863
     90  CB       -35.4680   36.1230   27.6080 C.3   418  SER418      0.2116
     91  OG       -35.2920   37.5260   27.7050 O.3   418  SER418     -0.2180
     92  N        -39.8750   35.9090   31.6790 N.3   421  PHE421     -0.1227
     93  CA       -39.4200   37.0080   32.5420 C.3   421  PHE421      0.1736
     94  C        -40.0340   38.3160   32.0610 C.2   421  PHE421      0.2595
     95  O        -40.6850   39.0180   32.8240 O.2   421  PHE421     -0.2718
     96  CB       -37.8890   37.1120   32.5450 C.3   421  PHE421      0.0547
     97  CG       -37.3380   38.2690   33.3610 C.ar  421  PHE421     -0.0202
     98  CD1      -37.1200   39.5130   32.7780 C.ar  421  PHE421     -0.0042
     99  CD2      -37.0140   38.1040   34.7020 C.ar  421  PHE421     -0.0042
    100  CE1      -36.6080   40.5690   33.5210 C.ar  421  PHE421     -0.0003
    101  CE2      -36.4950   39.1510   35.4480 C.ar  421  PHE421     -0.0003
    102  CZ       -36.2920   40.3860   34.8590 C.ar  421  PHE421     -0.0000
    103  N        -39.8470   38.6350   30.7870 N.am  422  ASN422     -0.1974
    104  CA       -40.3280   39.9190   30.2710 C.3   422  ASN422      0.1688
    105  C        -41.8430   40.0290   30.2490 C.2   422  ASN422      0.2292
    106  O        -42.3840   41.1240   30.3570 O.2   422  ASN422     -0.2864
    107  CB       -39.7330   40.2280   28.9050 C.3   422  ASN422      0.1181
    108  CG       -38.3450   40.8310   29.0100 C.2   422  ASN422      0.2629
    109  OD1      -37.3620   40.2720   28.4940 O.2   422  ASN422     -0.2716
    110  ND2      -38.2490   41.9710   29.7050 N.am  422  ASN422     -0.0877
    111  N        -42.4670   41.6350   33.5730 N.3   425  ASN425     -0.1240
    112  CA       -41.4650   42.6380   33.9330 C.3   425  ASN425      0.1653
    113  C        -42.1100   43.8480   34.6170 C.2   425  ASN425      0.2266
    114  O        -42.0470   44.9710   34.1230 O.2   425  ASN425     -0.2867
    115  CB       -40.6670   43.0580   32.6960 C.3   425  ASN425      0.1155
    116  CG       -39.2860   43.5900   33.0370 C.2   425  ASN425      0.2627
    117  OD1      -38.3510   43.4890   32.2290 O.2   425  ASN425     -0.2716
    118  ND2      -39.1380   44.1480   34.2300 N.am  425  ASN425     -0.0877
@<TRIPOS>BOND
     1     8     9    1
     2    10    11    2
     3    10     9    1
     4     1     2    1
     5     9    12    1
     6     4     3    2
     7     3     2    1
     8     2     5    1
     9    13    12    1
    10    12    14    1
    11     5     6    1
    12     5     7    1
    13    73    74    1
    14    75    74    1
    15    75    76    2
    16    79    78    1
    17    77    74    1
    18    77    78    1
    19    43    44    2
    20    43    42    1
    21    59    60    2
    22    59    58    1
    23    78    80    1
    24    41    42    1
    25    90    91    1
    26    90    87    1
    27    45    42    1
    28    45    46    1
    29    63    64    2
    30    63    62    1
    31    58    57    1
    32    81    82    1
    33    88    87    1
    34    88    89    2
    35    47    46    2
    36    57    51   am
    37   109   108    2
    38    46    48   am
    39    61    62    1
    40    87    86    1
    41    49    50    1
    42    86    83   am
    43   107   108    1
    44   107   104    1
    45    62    65    1
    46   108   110   am
    47    68    70   ar
    48    68    66   ar
    49    70    71   ar
    50    51    50    1
    51    51    52    2
    52    65    66    1
    53    82    83    1
    54    82    85    1
    55    83    84    2
    56    50    53    1
    57    66    67   ar
    58   105   104    1
    59   105   106    2
    60   104   103    1
    61    71    72    1
    62    71    69   ar
    63    53    54    1
    64   103    94   am
    65    67    69   ar
    66    54    55    1
    67    54    56    1
    68    92    93    1
    69    94    93    1
    70    94    95    2
    71   117   116    2
    72    15    16    1
    73    19    20    1
    74    19    16    1
    75    22    24   ar
    76    22    20   ar
    77    93    96    1
    78    96    97    1
    79   115   116    1
    80   115   112    1
    81    24    25   ar
    82    20    21   ar
    83    98    97   ar
    84    98   100   ar
    85   116   118   am
    86    16    17    1
    87    97    99   ar
    88    25    26    1
    89    25    23   ar
    90    21    23   ar
    91   100   102   ar
    92   111   112    1
    93   112   113    1
    94    36    35    2
    95   114   113    2
    96    17    18    2
    97    34    35    1
    98    34    33    1
    99    34    37    1
   100    38    37    1
   101    38    40    1
   102    99   101   ar
   103    39    37    1
   104   102   101   ar
   105    31    28    1
   106    31    32    1
   107    30    29    2
   108    28    29    1
   109    28    27    1
