@<TRIPOS>MOLECULE
tmp/4ki0B00.pdb
 93 89 0 0 0
SMALL
GASTEIGER

@<TRIPOS>ATOM
      1  N        -27.8260    7.5900   -2.1410 N.3   124  HIS124     -0.1226
      2  CA       -28.7090    7.0430   -1.1030 C.3   124  HIS124      0.1752
      3  C        -28.4840    7.6900    0.2730 C.2   124  HIS124      0.2595
      4  O        -29.1600    7.3350    1.2370 O.2   124  HIS124     -0.2718
      5  CB       -28.5310    5.5140   -1.0020 C.3   124  HIS124      0.0759
      6  CG       -27.1540    5.0790   -0.5830 C.ar  124  HIS124      0.0818
      7  ND1      -26.8840    4.5590    0.6660 N.ar  124  HIS124     -0.2268
      8  CD2      -25.9730    5.0820   -1.2480 C.ar  124  HIS124      0.1154
      9  CE1      -25.5990    4.2600    0.7520 C.ar  124  HIS124      0.1986
     10  NE2      -25.0230    4.5700   -0.3950 N.ar  124  HIS124     -0.2212
     11  N        -27.5450    8.6330    0.3600 N.am  125  LEU125     -0.1980
     12  CA       -27.1630    9.2540    1.6280 C.3   125  LEU125      0.1596
     13  C        -27.4450   10.7630    1.6700 C.2   125  LEU125      0.2287
     14  O        -26.9840   11.4530    2.5800 O.2   125  LEU125     -0.2864
     15  CB       -25.6690    9.0130    1.8730 C.3   125  LEU125      0.0297
     16  CG       -25.2000    7.5560    1.8630 C.3   125  LEU125      0.0022
     17  CD1      -23.6950    7.4730    2.0530 C.3   125  LEU125      0.0001
     18  CD2      -25.9080    6.7590    2.9450 C.3   125  LEU125      0.0001
     19  N        -28.7980   12.3400    4.9760 N.3   128  ARG128     -0.1245
     20  CA       -28.0840   12.0530    6.2260 C.3   128  ARG128      0.1563
     21  C        -27.3320   13.2920    6.6780 C.2   128  ARG128      0.2260
     22  O        -26.9230   14.1080    5.8540 O.2   128  ARG128     -0.2867
     23  CB       -27.0470   10.9360    6.0460 C.3   128  ARG128      0.0307
     24  CG       -27.5890    9.5870    5.6180 C.3   128  ARG128      0.0489
     25  CD       -28.1810    8.7970    6.7720 C.3   128  ARG128      0.2205
     26  NE       -28.4970    7.4380    6.3360 N.pl3 128  ARG128     -0.0865
     27  CZ       -27.6040    6.4530    6.2170 C.cat 128  ARG128      0.5346
     28  NH1      -26.3150    6.6430    6.5190 N.pl3 128  ARG128      0.1354
     29  NH2      -28.0030    5.2610    5.7950 N.pl3 128  ARG128      0.1354
     30  N        -22.7820   13.0560   10.9300 N.3   131  LYS131     -0.1231
     31  CA       -22.6070   12.1290   12.0550 C.3   131  LYS131      0.1693
     32  C        -23.1620   10.7480   11.7500 C.2   131  LYS131      0.2592
     33  O        -22.6590    9.7690   12.2820 O.2   131  LYS131     -0.2718
     34  CB       -23.1980   12.6790   13.3600 C.3   131  LYS131      0.0285
     35  CG       -24.7010   12.8810   13.3550 C.3   131  LYS131      0.0035
     36  CD       -25.1980   13.3850   14.7050 C.3   131  LYS131      0.0206
     37  CE       -26.6270   13.9070   14.6200 C.3   131  LYS131      0.1093
     38  NZ       -26.7390   15.1220   13.7600 N.3   131  LYS131     -0.1314
     39  N        -24.1710   10.6670   10.8830 N.am  132  ALA132     -0.1966
     40  CA       -24.7870    9.3870   10.5130 C.3   132  ALA132      0.1728
     41  C        -24.1940    8.8190    9.2200 C.2   132  ALA132      0.2616
     42  O        -24.9210    8.3030    8.3510 O.2   132  ALA132     -0.2715
     43  CB       -26.2890    9.5570   10.3750 C.3   132  ALA132      0.0334
     44  N        -22.8690    8.9000    9.1190 N.am  133  LEU133     -0.1963
     45  CA       -22.1320    8.5330    7.9180 C.3   133  LEU133      0.1728
     46  C        -20.8550    7.8130    8.3150 C.2   133  LEU133      0.2617
     47  O        -20.3770    7.9700    9.4360 O.2   133  LEU133     -0.2715
     48  CB       -21.7800    9.7940    7.1240 C.3   133  LEU133      0.0311
     49  CG       -22.4690   10.0850    5.7870 C.3   133  LEU133      0.0022
     50  CD1      -23.9340    9.6800    5.7500 C.3   133  LEU133      0.0001
     51  CD2      -22.3040   11.5640    5.4630 C.3   133  LEU133      0.0001
     52  N        -20.3070    7.0230    7.3940 N.am  134  SER134     -0.1936
     53  CA       -19.0150    6.3740    7.6060 C.3   134  SER134      0.2055
     54  C        -17.8700    7.3590    7.3550 C.2   134  SER134      0.2644
     55  O        -18.0900    8.4310    6.8220 O.2   134  SER134     -0.2714
     56  CB       -18.8720    5.1730    6.6770 C.3   134  SER134      0.2130
     57  OG       -18.3070    5.5450    5.4280 O.3   134  SER134     -0.2179
     58  N        -16.6510    6.9880    7.7320 N.am  135  GLY135     -0.1939
     59  CA       -15.4760    7.8260    7.4740 C.3   135  GLY135      0.2014
     60  C        -15.2790    8.1550    5.9990 C.2   135  GLY135      0.2639
     61  O        -15.0830    9.3070    5.6400 O.2   135  GLY135     -0.2714
     62  N        -15.3360    7.1340    5.1450 N.am  136  GLY136     -0.1939
     63  CA       -15.1230    7.2970    3.7140 C.3   136  GLY136      0.2014
     64  C        -16.2850    7.9650    3.0020 C.2   136  GLY136      0.2638
     65  O        -16.1150    8.5570    1.9450 O.2   136  GLY136     -0.2714
     66  N        -17.4760    7.8470    3.5620 N.am  137  GLN137     -0.1977
     67  CA       -18.6210    8.5850    3.0520 C.3   137  GLN137      0.1601
     68  C        -18.4460   10.0830    3.3180 C.2   137  GLN137      0.2287
     69  O        -18.6820   10.9000    2.4320 O.2   137  GLN137     -0.2864
     70  CB       -19.9200    8.0530    3.6630 C.3   137  GLN137      0.0394
     71  CG       -20.2560    6.6520    3.1760 C.3   137  GLN137      0.0908
     72  CD       -21.3630    5.9760    3.9660 C.2   137  GLN137      0.2608
     73  OE1      -21.6950    6.3780    5.0820 O.2   137  GLN137     -0.2717
     74  NE2      -21.9440    4.9380    3.3810 N.am  137  GLN137     -0.0878
     75  N        -16.0510   11.5460    0.9620 N.3   140  ARG140     -0.1245
     76  CA       -16.6570   11.7250   -0.3600 C.3   140  ARG140      0.1563
     77  C        -17.6010   12.9280   -0.3880 C.2   140  ARG140      0.2260
     78  O        -17.7370   13.5930   -1.4160 O.2   140  ARG140     -0.2867
     79  CB       -17.3690   10.4330   -0.8070 C.3   140  ARG140      0.0307
     80  CG       -16.4450    9.4660   -1.5530 C.3   140  ARG140      0.0489
     81  CD       -16.5890    8.0220   -1.0960 C.3   140  ARG140      0.2205
     82  NE       -17.8540    7.4280   -1.4930 N.pl3 140  ARG140     -0.0865
     83  CZ       -18.4230    6.3710   -0.9090 C.cat 140  ARG140      0.5346
     84  NH1      -17.8570    5.7580    0.1320 N.pl3 140  ARG140      0.1354
     85  NH2      -19.5840    5.9250   -1.3790 N.pl3 140  ARG140      0.1354
     86  N         -9.2880    7.2650    2.6620 N.3   162  ASN162     -0.1240
     87  CA       -10.1270    6.3700    3.4370 C.3   162  ASN162      0.1653
     88  C        -11.1960    5.6770    2.5770 C.2   162  ASN162      0.2266
     89  O        -12.3170    5.4250    3.0340 O.2   162  ASN162     -0.2867
     90  CB       -10.7330    7.1370    4.6300 C.3   162  ASN162      0.1155
     91  CG        -9.6950    7.4690    5.7090 C.2   162  ASN162      0.2627
     92  OD1       -9.1050    8.5430    5.7020 O.2   162  ASN162     -0.2716
     93  ND2       -9.4580    6.5370    6.6240 N.am  162  ASN162     -0.0877
@<TRIPOS>BOND
     1     1     2    1
     2    80    81    1
     3    80    79    1
     4    82    81    1
     5    82    83    2
     6    78    77    2
     7    85    83    1
     8     8     6   ar
     9     8    10   ar
    10     2     5    1
    11     2     3    1
    12     5     6    1
    13    83    84    1
    14    79    76    1
    15     6     7   ar
    16    10     9   ar
    17    77    76    1
    18    76    75    1
    19     3    11   am
    20     3     4    2
    21    11    12    1
    22     7     9   ar
    23    12    13    1
    24    12    15    1
    25    13    14    2
    26    16    15    1
    27    16    17    1
    28    16    18    1
    29    65    64    2
    30    69    68    2
    31    88    89    2
    32    88    87    1
    33    86    87    1
    34    64    66   am
    35    64    63    1
    36    67    68    1
    37    67    66    1
    38    67    70    1
    39    71    70    1
    40    71    72    1
    41    74    72   am
    42    87    90    1
    43    63    62    1
    44    72    73    2
    45    90    91    1
    46    19    20    1
    47    62    60   am
    48    57    56    1
    49    51    49    1
    50    24    23    1
    51    24    25    1
    52    61    60    2
    53    92    91    2
    54    91    93   am
    55    50    49    1
    56    49    48    1
    57    29    27    1
    58    22    21    2
    59    60    59    1
    60    23    20    1
    61    27    26    2
    62    27    28    1
    63    20    21    1
    64    26    25    1
    65    56    53    1
    66    55    54    2
    67    48    45    1
    68    54    53    1
    69    54    58   am
    70    52    53    1
    71    52    46   am
    72    59    58    1
    73    45    46    1
    74    45    44    1
    75    46    47    2
    76    42    41    2
    77    44    41   am
    78    41    40    1
    79    43    40    1
    80    40    39    1
    81    39    32   am
    82    30    31    1
    83    32    31    1
    84    32    33    2
    85    31    34    1
    86    35    34    1
    87    35    36    1
    88    38    37    1
    89    37    36    1
