@<TRIPOS>MOLECULE
tmp/4ki0E00.pdb
 132 128 0 0 0
SMALL
GASTEIGER

@<TRIPOS>ATOM
      1  N        -21.8970   27.6790   39.6580 N.3    93  VAL93      -0.1231
      2  CA       -21.1230   26.9910   38.6320 C.3    93  VAL93       0.1692
      3  C        -20.9780   25.5150   38.9840 C.2    93  VAL93       0.2591
      4  O        -21.2770   24.6430   38.1650 O.2    93  VAL93      -0.2718
      5  CB       -19.7090   27.5980   38.4530 C.3    93  VAL93       0.0266
      6  CG1      -18.8650   26.7380   37.5190 C.3    93  VAL93       0.0020
      7  CG2      -19.7930   29.0110   37.8950 C.3    93  VAL93       0.0020
      8  N        -20.5120   25.2430   40.1980 N.am   94  ALA94      -0.1980
      9  CA       -20.2500   23.8700   40.6370 C.3    94  ALA94       0.1597
     10  C        -21.5110   23.0120   40.6270 C.2    94  ALA94       0.2287
     11  O        -21.4750   21.8540   40.2190 O.2    94  ALA94      -0.2864
     12  CB       -19.6370   23.8720   42.0260 C.3    94  ALA94       0.0319
     13  N        -23.0060   22.8170   36.5660 N.3    97  THR97      -0.1203
     14  CA       -22.0830   22.0170   35.7650 C.3    97  THR97       0.1994
     15  C        -22.2930   20.5090   35.9910 C.2    97  THR97       0.2618
     16  O        -22.4450   19.7430   35.0380 O.2    97  THR97      -0.2717
     17  CB       -20.6170   22.4270   36.0780 C.3    97  THR97       0.1784
     18  OG1      -20.3970   23.7800   35.6430 O.3    97  THR97      -0.2211
     19  CG2      -19.6100   21.5480   35.3730 C.3    97  THR97       0.0376
     20  N        -22.3050   20.0830   37.2450 N.am   98  THR98      -0.1952
     21  CA       -22.4450   18.6630   37.5530 C.3    98  THR98       0.1897
     22  C        -23.8040   18.1380   37.0970 C.2    98  THR98       0.2313
     23  O        -23.8990   17.0750   36.4930 O.2    98  THR98      -0.2863
     24  CB       -22.2510   18.3880   39.0570 C.3    98  THR98       0.1794
     25  OG1      -22.9650   19.3630   39.8230 O.3    98  THR98      -0.2208
     26  CG2      -20.7730   18.4640   39.4220 C.3    98  THR98       0.0378
     27  N        -16.4130   10.5630   36.3120 N.3   193  TRP193     -0.1241
     28  CA       -15.8900   11.7330   37.0150 C.3   193  TRP193      0.1605
     29  C        -14.6080   12.2160   36.3380 C.2   193  TRP193      0.2264
     30  O        -14.4270   13.4050   36.1050 O.2   193  TRP193     -0.2867
     31  CB       -15.6280   11.4370   38.5010 C.3   193  TRP193      0.0550
     32  CG       -14.9490   12.5940   39.1990 C.ar  193  TRP193      0.0003
     33  CD1      -13.6300   12.6840   39.5580 C.ar  193  TRP193      0.0946
     34  CD2      -15.5470   13.8420   39.5640 C.ar  193  TRP193      0.0152
     35  NE1      -13.3780   13.9040   40.1380 N.ar  193  TRP193     -0.2442
     36  CE2      -14.5370   14.6340   40.1530 C.ar  193  TRP193      0.0810
     37  CE3      -16.8400   14.3620   39.4600 C.ar  193  TRP193      0.0012
     38  CZ2      -14.7810   15.9190   40.6340 C.ar  193  TRP193      0.0191
     39  CZ3      -17.0810   15.6430   39.9390 C.ar  193  TRP193      0.0001
     40  CH2      -16.0560   16.4050   40.5180 C.ar  193  TRP193      0.0015
     41  N        -15.2230   13.6570   32.9370 N.3   196  PHE196     -0.1227
     42  CA       -15.8590   14.9550   33.1970 C.3   196  PHE196      0.1736
     43  C        -14.8280   16.0160   33.5800 C.2   196  PHE196      0.2595
     44  O        -14.7360   17.0450   32.9320 O.2   196  PHE196     -0.2718
     45  CB       -16.9210   14.7800   34.2860 C.3   196  PHE196      0.0547
     46  CG       -17.4650   16.0600   34.8450 C.ar  196  PHE196     -0.0202
     47  CD1      -17.2450   16.3880   36.1760 C.ar  196  PHE196     -0.0042
     48  CD2      -18.2270   16.9120   34.0660 C.ar  196  PHE196     -0.0042
     49  CE1      -17.7540   17.5550   36.7100 C.ar  196  PHE196     -0.0003
     50  CE2      -18.7430   18.0800   34.6000 C.ar  196  PHE196     -0.0003
     51  CZ       -18.5040   18.4000   35.9230 C.ar  196  PHE196     -0.0000
     52  N        -14.0310   15.7320   34.6050 N.am  197  ARG197     -0.1980
     53  CA       -13.0270   16.6730   35.1130 C.3   197  ARG197      0.1597
     54  C        -11.8210   16.8960   34.1980 C.2   197  ARG197      0.2287
     55  O        -11.3240   18.0110   34.1130 O.2   197  ARG197     -0.2864
     56  CB       -12.5200   16.1960   36.4790 C.3   197  ARG197      0.0334
     57  CG       -11.5520   17.1400   37.1860 C.3   197  ARG197      0.0492
     58  CD       -11.0660   16.5110   38.4820 C.3   197  ARG197      0.2205
     59  NE        -9.9970   17.2730   39.1260 N.pl3 197  ARG197     -0.0865
     60  CZ        -9.3990   16.9230   40.2670 C.cat 197  ARG197      0.5346
     61  NH1       -9.7530   15.8090   40.9110 N.pl3 197  ARG197      0.1354
     62  NH2       -8.4350   17.6910   40.7690 N.pl3 197  ARG197      0.1354
     63  N        -14.5950   19.4440   31.0750 N.3   201  LEU201     -0.1231
     64  CA       -14.5150   20.7980   31.6520 C.3   201  LEU201      0.1678
     65  C        -13.4430   21.6810   30.9760 C.2   201  LEU201      0.2434
     66  O        -13.7150   22.8320   30.6340 O.2   201  LEU201     -0.2733
     67  CB       -14.3090   20.7630   33.1740 C.3   201  LEU201      0.0284
     68  CG       -15.4400   20.1360   33.9910 C.3   201  LEU201      0.0019
     69  CD1      -15.1040   20.1190   35.4720 C.3   201  LEU201      0.0001
     70  CD2      -16.7560   20.8590   33.7630 C.3   201  LEU201      0.0001
     71  N        -12.2330   21.1460   30.7510 N.am  202  PRO202     -0.2729
     72  CA       -11.2370   22.0010   30.1080 C.3   202  PRO202      0.1401
     73  C        -11.6730   22.5780   28.7710 C.2   202  PRO202      0.2269
     74  O        -11.3090   23.6990   28.4500 O.2   202  PRO202     -0.2865
     75  CB       -10.0460   21.0700   29.9410 C.3   202  PRO202      0.0296
     76  CG       -10.1490   20.1760   31.1060 C.3   202  PRO202      0.0237
     77  CD       -11.6180   19.9260   31.2900 C.3   202  PRO202      0.0939
     78  N        -14.6740   25.4720   29.1680 N.3   205  VAL205     -0.1245
     79  CA       -14.3050   26.5950   30.0100 C.3   205  VAL205      0.1561
     80  C        -14.9470   27.9500   29.6060 C.2   205  VAL205      0.2260
     81  O        -15.2310   28.7800   30.4760 O.2   205  VAL205     -0.2867
     82  CB       -12.7570   26.6250   30.1200 C.3   205  VAL205      0.0252
     83  CG1      -12.1210   27.6610   29.2220 C.3   205  VAL205      0.0019
     84  CG2      -12.3260   26.7740   31.5570 C.3   205  VAL205      0.0019
     85  N        -18.3710   28.0830   31.2960 N.3   208  LEU208     -0.1245
     86  CA       -18.1700   28.1900   32.7380 C.3   208  LEU208      0.1561
     87  C        -17.9460   29.6410   33.1310 C.2   208  LEU208      0.2260
     88  O        -18.4450   30.0900   34.1530 O.2   208  LEU208     -0.2867
     89  CB       -16.9810   27.3330   33.1950 C.3   208  LEU208      0.0270
     90  CG       -17.0860   25.8250   32.9480 C.3   208  LEU208      0.0019
     91  CD1      -16.0890   25.0350   33.7900 C.3   208  LEU208      0.0001
     92  CD2      -18.4960   25.3420   33.2320 C.3   208  LEU208      0.0001
     93  N         -9.8230   35.2410   30.0330 N.3   276  ARG276     -0.1231
     94  CA        -8.7610   34.2520   29.7790 C.3   276  ARG276      0.1694
     95  C         -9.3250   32.8560   29.5090 C.2   276  ARG276      0.2592
     96  O         -8.6410   32.0220   28.9340 O.2   276  ARG276     -0.2718
     97  CB        -7.6930   34.2320   30.8890 C.3   276  ARG276      0.0321
     98  CG        -8.1310   33.7500   32.2620 C.3   276  ARG276      0.0489
     99  CD        -6.9190   33.3810   33.1220 C.3   276  ARG276      0.2205
    100  NE        -6.4290   32.0200   32.8490 N.pl3 276  ARG276     -0.0865
    101  CZ        -5.2080   31.5610   33.1440 C.cat 276  ARG276      0.5346
    102  NH1       -4.2990   32.3420   33.7200 N.pl3 276  ARG276      0.1354
    103  NH2       -4.8870   30.3050   32.8470 N.pl3 276  ARG276      0.1354
    104  N        -10.5760   32.6320   29.9140 N.am  277  TRP277     -0.1976
    105  CA       -11.3010   31.3720   29.6970 C.3   277  TRP277      0.1640
    106  C        -12.2290   31.4730   28.4840 C.2   277  TRP277      0.2290
    107  O        -12.8480   30.4880   28.0800 O.2   277  TRP277     -0.2864
    108  CB       -12.1290   31.0150   30.9410 C.3   277  TRP277      0.0576
    109  CG       -11.4110   30.1700   31.9520 C.ar  277  TRP277      0.0006
    110  CD1      -10.0710   29.9280   32.0190 C.ar  277  TRP277      0.0946
    111  CD2      -11.9980   29.4770   33.0650 C.ar  277  TRP277      0.0152
    112  NE1       -9.7900   29.1100   33.0880 N.ar  277  TRP277     -0.2442
    113  CE2      -10.9550   28.8190   33.7450 C.ar  277  TRP277      0.0810
    114  CE3      -13.3060   29.3320   33.5370 C.ar  277  TRP277      0.0012
    115  CZ2      -11.1780   28.0380   34.8750 C.ar  277  TRP277      0.0191
    116  CZ3      -13.5240   28.5560   34.6590 C.ar  277  TRP277      0.0001
    117  CH2      -12.4670   27.9210   35.3140 C.ar  277  TRP277      0.0015
    118  N        -12.0410   31.6250   25.0010 N.3   279  VAL279     -0.1245
    119  CA       -11.1270   31.4090   23.8900 C.3   279  VAL279      0.1561
    120  C        -11.7630   30.5070   22.8200 C.2   279  VAL279      0.2260
    121  O        -12.5390   29.5990   23.1390 O.2   279  VAL279     -0.2867
    122  CB        -9.7900   30.8160   24.3950 C.3   279  VAL279      0.0252
    123  CG1       -9.1280   31.7720   25.3800 C.3   279  VAL279      0.0019
    124  CG2       -9.9950   29.4670   25.0640 C.3   279  VAL279      0.0019
    125  N        -10.7140   25.5430   21.1170 N.3   282  LEU282     -0.1245
    126  CA       -10.3240   24.5930   22.1670 C.3   282  LEU282      0.1561
    127  C        -10.3900   23.1320   21.7200 C.2   282  LEU282      0.2260
    128  O         -9.6640   22.2830   22.2460 O.2   282  LEU282     -0.2867
    129  CB       -11.1630   24.7990   23.4210 C.3   282  LEU282      0.0270
    130  CG       -10.7430   26.0060   24.2660 C.3   282  LEU282      0.0019
    131  CD1      -11.7800   26.3070   25.3280 C.3   282  LEU282      0.0001
    132  CD2       -9.3890   25.7880   24.9260 C.3   282  LEU282      0.0001
@<TRIPOS>BOND
     1   125   126    1
     2   127   126    1
     3   127   128    2
     4   126   129    1
     5   120   121    2
     6   120   119    1
     7   129   130    1
     8   119   122    1
     9   119   118    1
    10   130   132    1
    11   130   131    1
    12   122   124    1
    13   122   123    1
    14   107   106    2
    15    74    73    2
    16   106   105    1
    17    73    72    1
    18    96    95    2
    19    78    79    1
    20    83    82    1
    21    95    94    1
    22    95   104   am
    23    80    79    1
    24    80    81    2
    25   105   104    1
    26   105   108    1
    27    94    93    1
    28    94    97    1
    29    75    72    1
    30    75    76    1
    31    79    82    1
    32    72    71    1
    33    82    84    1
    34    66    65    2
    35    71    65   am
    36    71    77    1
    37    97    98    1
    38   108   109    1
    39    65    64    1
    40    63    64    1
    41    76    77    1
    42    85    86    1
    43    64    67    1
    44   109   110   ar
    45   109   111   ar
    46   110   112   ar
    47    98    99    1
    48    86    87    1
    49    86    89    1
    50   103   101    1
    51   100    99    1
    52   100   101    2
    53    44    43    2
    54    41    42    1
    55    90    89    1
    56    90    92    1
    57    90    91    1
    58   111   114   ar
    59   111   113   ar
    60   112   113   ar
    61    87    88    2
    62   101   102    1
    63    67    68    1
    64    42    43    1
    65    42    45    1
    66   114   116   ar
    67    43    52   am
    68   113   115   ar
    69    70    68    1
    70    68    69    1
    71    48    50   ar
    72    48    46   ar
    73    55    54    2
    74    54    53    1
    75    45    46    1
    76    50    51   ar
    77    52    53    1
    78   116   117   ar
    79    46    47   ar
    80   115   117   ar
    81    16    15    2
    82    53    56    1
    83    19    17    1
    84    18    17    1
    85    14    15    1
    86    14    17    1
    87    14    13    1
    88    51    49   ar
    89    15    20   am
    90    30    29    2
    91    47    49   ar
    92    27    28    1
    93    29    28    1
    94    56    57    1
    95    23    22    2
    96    28    31    1
    97    22    21    1
    98    57    58    1
    99    20    21    1
   100     6     5    1
   101    21    24    1
   102     7     5    1
   103     4     3    2
   104     5     2    1
   105    58    59    1
   106    31    32    1
   107     2     3    1
   108     2     1    1
   109     3     8   am
   110    24    26    1
   111    24    25    1
   112    59    60    2
   113    32    33   ar
   114    32    34   ar
   115    37    34   ar
   116    37    39   ar
   117    33    35   ar
   118    34    36   ar
   119    39    40   ar
   120    35    36   ar
   121    36    38   ar
   122     8     9    1
   123    11    10    2
   124    60    62    1
   125    60    61    1
   126    40    38   ar
   127    10     9    1
   128     9    12    1
