@<TRIPOS>MOLECULE
tmp/4ki7K00.pdb
 133 126 0 0 0
SMALL
GASTEIGER

@<TRIPOS>ATOM
      1  N          7.9460   54.8990   75.8510 N.3     9  PRO9       -0.2102
      2  CA         8.2400   54.0650   77.0130 C.3     9  PRO9        0.1504
      3  C          9.7000   53.6750   77.2110 C.2     9  PRO9        0.2576
      4  O         10.4030   53.3960   76.2480 O.2     9  PRO9       -0.2718
      5  CB         7.3630   52.8280   76.7860 C.3     9  PRO9        0.0282
      6  CG         7.0200   52.8620   75.3490 C.3     9  PRO9        0.0208
      7  CD         6.8620   54.3120   75.0540 C.3     9  PRO9        0.0893
      8  N         10.1240   53.6810   78.4790 N.am   10  ASN10      -0.1961
      9  CA        11.4770   53.3220   78.9430 C.3    10  ASN10       0.1819
     10  C         12.4750   54.4150   78.7330 C.2    10  ASN10       0.2621
     11  O         13.5270   54.4070   79.3560 O.2    10  ASN10      -0.2715
     12  CB        12.0110   52.0020   78.3590 C.3    10  ASN10       0.1195
     13  CG        11.0920   50.8250   78.6220 C.2    10  ASN10       0.2630
     14  OD1       10.5300   50.7090   79.7020 O.2    10  ASN10      -0.2716
     15  ND2       10.9300   49.9490   77.6250 N.am   10  ASN10      -0.0877
     16  N         12.1630   55.3520   77.8440 N.am   11  LEU11      -0.1977
     17  CA        12.8410   56.6320   77.8740 C.3    11  LEU11       0.1596
     18  C         12.4400   57.1830   79.2320 C.2    11  LEU11       0.2287
     19  O         11.8440   56.4570   80.0530 O.2    11  LEU11      -0.2864
     20  CB        12.4170   57.5300   76.7140 C.3    11  LEU11       0.0297
     21  CG        13.0530   57.2250   75.3410 C.3    11  LEU11       0.0022
     22  CD1       14.4040   56.5260   75.4560 C.3    11  LEU11       0.0001
     23  CD2       12.1190   56.4540   74.4180 C.3    11  LEU11       0.0001
     24  N         16.5390   56.7470   80.8860 N.3    14  LEU14      -0.1245
     25  CA        17.8010   56.9600   80.1890 C.3    14  LEU14       0.1561
     26  C         18.8940   57.2790   81.2000 C.2    14  LEU14       0.2260
     27  O         18.6020   57.7540   82.2980 O.2    14  LEU14      -0.2867
     28  CB        17.6000   58.1450   79.2570 C.3    14  LEU14       0.0270
     29  CG        18.4310   58.5130   78.0390 C.3    14  LEU14       0.0019
     30  CD1       19.0850   57.3330   77.3350 C.3    14  LEU14       0.0001
     31  CD2       17.5070   59.2590   77.1030 C.3    14  LEU14       0.0001
     32  N         20.6880   52.9740   82.8740 N.3    17  ARG17      -0.1245
     33  CA        20.7050   51.6440   82.2450 C.3    17  ARG17       0.1563
     34  C         21.9580   51.4900   81.3890 C.2    17  ARG17       0.2260
     35  O         22.7620   52.4270   81.2960 O.2    17  ARG17      -0.2867
     36  CB        19.4950   51.4740   81.3260 C.3    17  ARG17       0.0307
     37  CG        18.1670   51.9080   81.9180 C.3    17  ARG17       0.0489
     38  CD        16.9990   51.5130   81.0320 C.3    17  ARG17       0.2205
     39  NE        17.1940   50.2250   80.3600 N.pl3  17  ARG17      -0.0865
     40  CZ        16.2270   49.3340   80.1650 C.cat  17  ARG17       0.5346
     41  NH1       15.0010   49.5820   80.6110 N.pl3  17  ARG17       0.1354
     42  NH2       16.4870   48.1940   79.5360 N.pl3  17  ARG17       0.1354
     43  N         22.7840   53.0360   75.4890 N.3    22  TYR22      -0.1241
     44  CA        22.0540   54.3300   75.5080 C.3    22  TYR22       0.1605
     45  C         22.8210   55.5800   76.0400 C.2    22  TYR22       0.2264
     46  O         22.2340   56.6660   76.2290 O.2    22  TYR22      -0.2867
     47  CB        20.7370   54.1770   76.2860 C.3    22  TYR22       0.0534
     48  CG        19.8230   53.0870   75.7920 C.ar   22  TYR22      -0.0201
     49  CD1       19.7760   51.8510   76.4320 C.ar   22  TYR22      -0.0009
     50  CD2       19.0040   53.2940   74.6960 C.ar   22  TYR22      -0.0009
     51  CE1       18.9430   50.8440   75.9810 C.ar   22  TYR22       0.0417
     52  CE2       18.1650   52.2950   74.2290 C.ar   22  TYR22       0.0417
     53  CZ        18.1340   51.0710   74.8730 C.ar   22  TYR22       0.1957
     54  OH        17.2940   50.0840   74.4050 O.3    22  TYR22      -0.2866
     55  N         10.8060   59.6490   69.2370 N.3    73  ASN73      -0.1240
     56  CA        11.4570   58.3660   69.5330 C.3    73  ASN73       0.1653
     57  C         10.4860   57.5210   70.3150 C.2    73  ASN73       0.2266
     58  O         10.3370   57.6950   71.5430 O.2    73  ASN73      -0.2867
     59  CB        12.7520   58.5150   70.3410 C.3    73  ASN73       0.1155
     60  CG        13.4160   57.1680   70.6420 C.2    73  ASN73       0.2627
     61  OD1       14.5150   57.1160   71.2150 O.2    73  ASN73      -0.2716
     62  ND2       12.7650   56.0660   70.2330 N.am   73  ASN73      -0.0877
     63  N         10.3980   54.4400   71.1770 N.3    75  GLY75      -0.1210
     64  CA        10.9040   53.3420   71.9730 C.3    75  GLY75       0.1956
     65  C         10.3190   52.0240   71.5030 C.2    75  GLY75       0.2612
     66  O         10.2060   51.7820   70.2940 O.2    75  GLY75      -0.2717
     67  N          9.9150   51.1820   72.4630 N.am   76  GLY76      -0.1956
     68  CA         9.3060   49.8750   72.1610 C.3    76  GLY76       0.1869
     69  C          8.1510   49.9760   71.1800 C.2    76  GLY76       0.2309
     70  O          8.0830   49.2130   70.2150 O.2    76  GLY76      -0.2863
     71  N          7.8350   49.1990   67.1810 N.3    79  HIS79      -0.1241
     72  CA         7.8940   47.9340   66.4780 C.3    79  HIS79       0.1621
     73  C          6.5900   47.2780   66.5730 C.2    79  HIS79       0.2264
     74  O          6.4470   46.1490   66.1100 O.2    79  HIS79      -0.2867
     75  CB         8.9410   47.0310   67.1000 C.3    79  HIS79       0.0745
     76  CG        10.2340   47.7350   67.4130 C.ar   79  HIS79       0.0817
     77  ND1       11.1450   48.0300   66.4660 N.ar   79  HIS79      -0.2268
     78  CD2       10.7370   48.2270   68.6090 C.ar   79  HIS79       0.1154
     79  CE1       12.1790   48.6810   67.0280 C.ar   79  HIS79       0.1986
     80  NE2       11.9330   48.7950   68.3410 N.ar   79  HIS79      -0.2212
     81  N         16.1010   57.1120   66.7300 N.3    99  HIS99      -0.1226
     82  CA        16.5640   56.0940   67.6990 C.3    99  HIS99       0.1752
     83  C         17.9620   56.3630   68.1220 C.2    99  HIS99       0.2596
     84  O         18.8170   56.7120   67.3070 O.2    99  HIS99      -0.2718
     85  CB        16.5260   54.6850   67.1400 C.3    99  HIS99       0.0759
     86  CG        15.1640   54.2410   66.7000 C.ar   99  HIS99       0.0818
     87  ND1       14.1330   54.1100   67.5570 N.ar   99  HIS99      -0.2268
     88  CD2       14.6780   53.8830   65.4390 C.ar   99  HIS99       0.1154
     89  CE1       13.0330   53.6940   66.8790 C.ar   99  HIS99       0.1986
     90  NE2       13.3700   53.5490   65.5870 N.ar   99  HIS99      -0.2212
     91  N         18.1940   56.1800   69.4150 N.am  100  ILE100     -0.1966
     92  CA        19.4530   56.4430   70.0770 C.3   100  ILE100      0.1727
     93  C         20.4050   55.3420   69.6830 C.2   100  ILE100      0.2616
     94  O         21.4580   55.6030   69.1220 O.2   100  ILE100     -0.2715
     95  CB        19.2310   56.4620   71.6120 C.3   100  ILE100      0.0290
     96  CG1       18.5450   57.7630   72.0350 C.3   100  ILE100      0.0022
     97  CG2       20.5180   56.2790   72.3920 C.3   100  ILE100      0.0023
     98  CD1       17.9840   57.6860   73.4390 C.3   100  ILE100      0.0001
     99  N         20.0140   54.1040   69.9620 N.am  101  SER101     -0.1950
    100  CA        20.8280   52.9290   69.6680 C.3   101  SER101      0.1924
    101  C         20.7090   52.6090   68.1870 C.2   101  SER101      0.2314
    102  O         19.8280   53.1100   67.5180 O.2   101  SER101     -0.2863
    103  CB        20.3550   51.7310   70.5000 C.3   101  SER101      0.2116
    104  OG        19.1900   51.1510   69.9500 O.3   101  SER101     -0.2180
    105  N         19.2520   50.2700   65.9540 N.3   103  VAL103     -0.1245
    106  CA        18.2840   49.1740   66.0300 C.3   103  VAL103      0.1561
    107  C         18.5920   48.0510   65.0270 C.2   103  VAL103      0.2260
    108  O         18.1750   46.9070   65.2100 O.2   103  VAL103     -0.2867
    109  CB        16.8260   49.6660   65.8590 C.3   103  VAL103      0.0252
    110  CG1       16.4720   50.6720   66.9300 C.3   103  VAL103      0.0019
    111  CG2       16.6280   50.3140   64.5080 C.3   103  VAL103      0.0019
    112  N         20.7560   44.7480   66.5160 N.3   106  ARG106     -0.1245
    113  CA        20.2200   44.1050   67.7240 C.3   106  ARG106      0.1563
    114  C         19.3350   42.9300   67.3450 C.2   106  ARG106      0.2260
    115  O         19.5320   42.3100   66.3060 O.2   106  ARG106     -0.2867
    116  CB        19.4890   45.1340   68.5800 C.3   106  ARG106      0.0307
    117  CG        20.4000   46.2910   68.9790 C.3   106  ARG106      0.0489
    118  CD        19.7070   47.4100   69.7380 C.3   106  ARG106      0.2205
    119  NE        19.3860   47.0660   71.1200 N.pl3 106  ARG106     -0.0865
    120  CZ        18.6280   47.8180   71.9180 C.cat 106  ARG106      0.5346
    121  NH1       18.1050   48.9640   71.4910 N.pl3 106  ARG106      0.1354
    122  NH2       18.3840   47.4280   73.1580 N.pl3 106  ARG106      0.1354
    123  N         13.7280   44.3390   66.1140 N.3   110  ARG110     -0.1245
    124  CA        13.8510   45.7740   66.2700 C.3   110  ARG110      0.1563
    125  C         14.1540   46.4020   64.9140 C.2   110  ARG110      0.2260
    126  O         14.4170   47.6120   64.8180 O.2   110  ARG110     -0.2867
    127  CB        14.9800   46.1230   67.2290 C.3   110  ARG110      0.0307
    128  CG        14.9410   45.4650   68.5910 C.3   110  ARG110      0.0489
    129  CD        15.7230   46.3510   69.5410 C.3   110  ARG110      0.2205
    130  NE        15.9860   45.6890   70.8110 N.pl3 110  ARG110     -0.0865
    131  CZ        15.1930   45.7520   71.8800 C.cat 110  ARG110      0.5346
    132  NH1       14.0610   46.4640   71.8490 N.pl3 110  ARG110      0.1354
    133  NH2       15.5320   45.0870   72.9700 N.pl3 110  ARG110      0.1354
@<TRIPOS>BOND
     1   111   109    1
     2   126   125    2
     3   125   124    1
     4   107   108    2
     5   107   106    1
     6    88    90   ar
     7    88    86   ar
     8    90    89   ar
     9   109   106    1
    10   109   110    1
    11   105   106    1
    12    74    73    2
    13   123   124    1
    14   124   127    1
    15   115   114    2
    16    77    79   ar
    17    77    76   ar
    18    72    73    1
    19    72    75    1
    20    72    71    1
    21   112   113    1
    22    86    85    1
    23    86    87   ar
    24    81    82    1
    25    89    87   ar
    26    79    80   ar
    27    75    76    1
    28    85    82    1
    29   127   128    1
    30    84    83    2
    31   114   113    1
    32    76    78   ar
    33   102   101    2
    34    82    83    1
    35   113   116    1
    36    83    91   am
    37   101   100    1
    38    80    78   ar
    39   116   117    1
    40   128   129    1
    41   117   118    1
    42    94    93    2
    43    55    56    1
    44    91    92    1
    45    56    57    1
    46    56    59    1
    47   129   130    1
    48   100    99    1
    49   100   103    1
    50    93    99   am
    51    93    92    1
    52   118   119    1
    53   104   103    1
    54    92    95    1
    55    70    69    2
    56    62    60   am
    57    66    65    2
    58    57    58    2
    59    59    60    1
    60    60    61    2
    61   130   131    2
    62   119   120    2
    63    63    64    1
    64    69    68    1
    65   121   120    1
    66    65    64    1
    67    65    67   am
    68    95    96    1
    69    95    97    1
    70   132   131    1
    71   131   133    1
    72   120   122    1
    73    96    98    1
    74    68    67    1
    75    52    50   ar
    76    52    53   ar
    77    54    53    1
    78    23    21    1
    79    50    48   ar
    80    53    51   ar
    81     7     6    1
    82     7     1    1
    83    21    22    1
    84    21    20    1
    85     6     5    1
    86    43    44    1
    87    44    45    1
    88    44    47    1
    89    48    47    1
    90    48    49   ar
    91     1     2    1
    92    51    49   ar
    93    45    46    2
    94     4     3    2
    95    20    17    1
    96     5     2    1
    97     2     3    1
    98    31    29    1
    99     3     8   am
   100    30    29    1
   101    15    13   am
   102    16    17    1
   103    16    10   am
   104    17    18    1
   105    29    28    1
   106    12    13    1
   107    12     9    1
   108     8     9    1
   109    13    14    2
   110    10     9    1
   111    10    11    2
   112    18    19    2
   113    28    25    1
   114    42    40    1
   115    40    39    2
   116    40    41    1
   117    25    24    1
   118    25    26    1
   119    39    38    1
   120    38    37    1
   121    26    27    2
   122    35    34    2
   123    36    37    1
   124    36    33    1
   125    34    33    1
   126    33    32    1
