@<TRIPOS>MOLECULE
tmp/4ki8D02.pdb
 103 93 0 0 0
SMALL
GASTEIGER

@<TRIPOS>ATOM
      1  N        302.2540  -59.6570  321.9220 N.3   173  VAL173     -0.1231
      2  CA       302.8140  -58.3690  322.3040 C.3   173  VAL173      0.1692
      3  C        304.3410  -58.4600  322.3540 C.2   173  VAL173      0.2592
      4  O        304.8970  -59.2240  323.1440 O.2   173  VAL173     -0.2718
      5  CB       302.2670  -57.9090  323.6790 C.3   173  VAL173      0.0266
      6  CG1      302.7050  -56.4870  323.9880 C.3   173  VAL173      0.0020
      7  CG2      300.7530  -58.0180  323.7130 C.3   173  VAL173      0.0020
      8  N        305.0120  -57.6890  321.5000 N.am  174  ILE174     -0.1966
      9  CA       306.4750  -57.6810  321.4460 C.3   174  ILE174      0.1727
     10  C        307.0300  -56.2720  321.6010 C.2   174  ILE174      0.2617
     11  O        306.6690  -55.3700  320.8480 O.2   174  ILE174     -0.2715
     12  CB       307.0050  -58.2410  320.1140 C.3   174  ILE174      0.0290
     13  CG1      306.3370  -59.5700  319.7740 C.3   174  ILE174      0.0022
     14  CG2      308.5170  -58.4020  320.1720 C.3   174  ILE174      0.0023
     15  CD1      306.7420  -60.1070  318.4280 C.3   174  ILE174      0.0001
     16  N        307.9290  -56.0960  322.5610 N.am  175  THR175     -0.1937
     17  CA       308.4800  -54.7830  322.8570 C.3   175  THR175      0.2028
     18  C        310.0010  -54.7850  322.7880 C.2   175  THR175      0.2642
     19  O        310.6520  -55.7830  323.1100 O.2   175  THR175     -0.2714
     20  CB       308.0730  -54.3230  324.2580 C.3   175  THR175      0.1808
     21  OG1      308.6190  -53.0240  324.5100 O.3   175  THR175     -0.2208
     22  CG2      308.6060  -55.2950  325.3020 C.3   175  THR175      0.0379
     23  N        310.5600  -53.6510  322.3780 N.am  176  VAL176     -0.1977
     24  CA       312.0030  -53.4790  322.3060 C.3   176  VAL176      0.1596
     25  C        312.4880  -52.5480  323.4140 C.2   176  VAL176      0.2287
     26  O        311.9570  -51.4500  323.5860 O.2   176  VAL176     -0.2864
     27  CB       312.4220  -52.8870  320.9500 C.3   176  VAL176      0.0276
     28  CG1      313.9310  -52.6760  320.9070 C.3   176  VAL176      0.0022
     29  CG2      311.9620  -53.7850  319.8080 C.3   176  VAL176      0.0022
     30  N        297.8970  -56.6900  327.0590 N.3   193  GLN193     -0.1245
     31  CA       297.4810  -55.4370  326.4510 C.3   193  GLN193      0.1566
     32  C        295.9750  -55.4390  326.2170 C.2   193  GLN193      0.2260
     33  O        295.4290  -56.3770  325.6350 O.2   193  GLN193     -0.2867
     34  CB       298.2180  -55.2100  325.1370 C.3   193  GLN193      0.0367
     35  CG       297.9830  -53.8420  324.5340 C.3   193  GLN193      0.0905
     36  CD       298.6680  -53.6850  323.1960 C.2   193  GLN193      0.2608
     37  OE1      298.2280  -54.2460  322.1940 O.2   193  GLN193     -0.2717
     38  NE2      299.7590  -52.9290  323.1740 N.am  193  GLN193     -0.0878
     39  N        306.9990  -51.9810  333.9260 N.3   321  ARG321     -0.1245
     40  CA       306.7900  -50.8920  332.9870 C.3   321  ARG321      0.1563
     41  C        305.3750  -50.9680  332.4300 C.2   321  ARG321      0.2260
     42  O        304.8910  -52.0490  332.0920 O.2   321  ARG321     -0.2867
     43  CB       307.8250  -50.9800  331.8600 C.3   321  ARG321      0.0307
     44  CG       307.6580  -49.9820  330.7260 C.3   321  ARG321      0.0489
     45  CD       308.8890  -49.9900  329.8200 C.3   321  ARG321      0.2205
     46  NE       308.6980  -49.2010  328.6040 N.pl3 321  ARG321     -0.0865
     47  CZ       308.5090  -49.7220  327.3920 C.cat 321  ARG321      0.5346
     48  NH1      308.4940  -51.0380  327.2270 N.pl3 321  ARG321      0.1354
     49  NH2      308.3410  -48.9280  326.3390 N.pl3 321  ARG321      0.1354
     50  N        302.7710  -48.9430  329.5180 N.3   323  VAL323     -0.1245
     51  CA       302.7580  -47.9830  328.4210 C.3   323  VAL323      0.1561
     52  C        301.3380  -47.6890  327.9660 C.2   323  VAL323      0.2260
     53  O        300.6430  -48.5690  327.4660 O.2   323  VAL323     -0.2867
     54  CB       303.5930  -48.4730  327.2200 C.3   323  VAL323      0.0252
     55  CG1      303.4670  -47.5050  326.0610 C.3   323  VAL323      0.0019
     56  CG2      305.0530  -48.6390  327.6210 C.3   323  VAL323      0.0019
     57  N        299.2410  -45.5310  325.3660 N.3   325  ASN325     -0.1240
     58  CA       299.0090  -44.6370  324.2310 C.3   325  ASN325      0.1653
     59  C        297.5460  -44.1980  324.1680 C.2   325  ASN325      0.2266
     60  O        296.7980  -44.3680  325.1330 O.2   325  ASN325     -0.2867
     61  CB       299.5010  -45.2260  322.9010 C.3   325  ASN325      0.1155
     62  CG       298.7450  -46.4670  322.4840 C.2   325  ASN325      0.2627
     63  OD1      297.6140  -46.7030  322.9100 O.2   325  ASN325     -0.2716
     64  ND2      299.3710  -47.2720  321.6320 N.am  325  ASN325     -0.0877
     65  N        295.5600  -47.8970  323.5340 N.3   328  THR328     -0.1218
     66  CA       295.8930  -49.1050  324.2980 C.3   328  THR328      0.1862
     67  C        296.7790  -48.8840  325.5230 C.2   328  THR328      0.2287
     68  O        297.5870  -47.9550  325.5730 O.2   328  THR328     -0.2866
     69  CB       296.5560  -50.1940  323.4140 C.3   328  THR328      0.1770
     70  OG1      297.7640  -49.6860  322.8370 O.3   328  THR328     -0.2211
     71  CG2      295.6210  -50.6450  322.3090 C.3   328  THR328      0.0375
     72  N        299.5310  -51.0720  327.9470 N.3   330  THR330     -0.1218
     73  CA       300.3650  -52.2680  327.9930 C.3   330  THR330      0.1862
     74  C        301.0480  -52.4210  329.3500 C.2   330  THR330      0.2287
     75  O        301.8190  -51.5600  329.7730 O.2   330  THR330     -0.2866
     76  CB       301.4300  -52.2610  326.8750 C.3   330  THR330      0.1770
     77  OG1      300.7920  -52.0590  325.6060 O.3   330  THR330     -0.2211
     78  CG2      302.1950  -53.5760  326.8510 C.3   330  THR330      0.0375
     79  N        303.6750  -54.4400  331.5400 N.3   332  ILE332     -0.1245
     80  CA       304.8400  -55.2760  331.2930 C.3   332  ILE332      0.1561
     81  C        305.4720  -55.8240  332.5700 C.2   332  ILE332      0.2260
     82  O        305.8560  -55.0720  333.4630 O.2   332  ILE332     -0.2867
     83  CB       305.8910  -54.5260  330.4540 C.3   332  ILE332      0.0252
     84  CG1      305.2540  -54.0520  329.1420 C.3   332  ILE332      0.0019
     85  CG2      307.0940  -55.4140  330.1910 C.3   332  ILE332      0.0019
     86  CD1      306.1580  -53.2030  328.2770 C.3   332  ILE332      0.0001
     87  N        313.2120  -52.1330  316.2020 N.3   396  GLU396     -0.1245
     88  CA       311.8450  -51.6210  316.2170 C.3   396  GLU396      0.1567
     89  C        311.2860  -51.5150  314.8070 C.2   396  GLU396      0.2260
     90  O        310.1520  -51.9260  314.5430 O.2   396  GLU396     -0.2867
     91  CB       311.7890  -50.2450  316.8750 C.3   396  GLU396      0.0388
     92  CG       311.8230  -50.2750  318.3870 C.3   396  GLU396      0.1160
     93  CD       311.6670  -48.8940  318.9960 C.2   396  GLU396      0.3649
     94  OE1      311.9280  -47.8960  318.2870 O.co2 396  GLU396     -0.2457
     95  OE2      311.2790  -48.8070  320.1820 O.co2 396  GLU396     -0.2457
     96  N        310.9630  -55.0320  313.4370 N.3   399  LEU399     -0.1245
     97  CA       309.7950  -55.6560  314.0360 C.3   399  LEU399      0.1561
     98  C        308.5030  -55.1160  313.4130 C.2   399  LEU399      0.2260
     99  O        307.5820  -55.8760  313.1140 O.2   399  LEU399     -0.2867
    100  CB       309.8020  -55.4430  315.5490 C.3   399  LEU399      0.0270
    101  CG       308.6080  -56.0090  316.3140 C.3   399  LEU399      0.0019
    102  CD1      308.4200  -57.4820  315.9960 C.3   399  LEU399      0.0001
    103  CD2      308.8080  -55.7960  317.8020 C.3   399  LEU399      0.0001
@<TRIPOS>BOND
     1    99    98    2
     2    98    97    1
     3    96    97    1
     4    97   100    1
     5    90    89    2
     6    89    88    1
     7   100   101    1
     8   102   101    1
     9    87    88    1
    10    88    91    1
    11   101   103    1
    12    91    92    1
    13    94    93   ar
    14    92    93    1
    15    15    13    1
    16    93    95   ar
    17    13    12    1
    18    29    27    1
    19    12    14    1
    20    12     9    1
    21    11    10    2
    22    28    27    1
    23    27    24    1
    24     9     8    1
    25     9    10    1
    26     8     3   am
    27    10    16   am
    28    64    62   am
    29     1     2    1
    30    37    36    2
    31     2     3    1
    32     2     5    1
    33    24    23    1
    34    24    25    1
    35    71    69    1
    36     3     4    2
    37    23    18   am
    38    62    61    1
    39    62    63    2
    40    16    17    1
    41    18    17    1
    42    18    19    2
    43    70    69    1
    44    17    20    1
    45    61    58    1
    46    38    36   am
    47    36    35    1
    48    69    66    1
    49    25    26    2
    50    65    66    1
    51     5     7    1
    52     5     6    1
    53    59    58    1
    54    59    60    2
    55    58    57    1
    56    20    21    1
    57    20    22    1
    58    66    67    1
    59    35    34    1
    60    34    31    1
    61    67    68    2
    62    77    76    1
    63    33    32    2
    64    55    54    1
    65    32    31    1
    66    49    47    1
    67    31    30    1
    68    78    76    1
    69    76    73    1
    70    54    56    1
    71    54    51    1
    72    48    47    1
    73    47    46    2
    74    53    52    2
    75    72    73    1
    76    52    51    1
    77    73    74    1
    78    86    84    1
    79    51    50    1
    80    46    45    1
    81    84    83    1
    82    74    75    2
    83    45    44    1
    84    85    83    1
    85    83    80    1
    86    44    43    1
    87    80    79    1
    88    80    81    1
    89    43    40    1
    90    42    41    2
    91    41    40    1
    92    81    82    2
    93    40    39    1
