@<TRIPOS>MOLECULE
tmp/4ki8B05.pdb
 71 67 0 0 0
SMALL
GASTEIGER

@<TRIPOS>ATOM
      1  N        306.7910   27.7250  306.3880 N.3    81  ASN81      -0.1225
      2  CA       305.6470   26.9820  306.8850 C.3    81  ASN81       0.1785
      3  C        305.3230   27.2980  308.3440 C.2    81  ASN81       0.2597
      4  O        304.1560   27.3570  308.7330 O.2    81  ASN81      -0.2718
      5  CB       305.9020   25.4850  306.7200 C.3    81  ASN81       0.1169
      6  CG       304.6740   24.6560  306.9760 C.2    81  ASN81       0.2627
      7  OD1      303.9670   24.2930  306.0430 O.2    81  ASN81      -0.2716
      8  ND2      304.4160   24.3410  308.2410 N.am   81  ASN81      -0.0877
      9  N        306.3530   27.4940  309.1570 N.am   82  ALA82      -0.1966
     10  CA       306.1280   27.7810  310.5700 C.3    82  ALA82       0.1728
     11  C        305.5740   29.1890  310.7750 C.2    82  ALA82       0.2616
     12  O        304.7400   29.4070  311.6470 O.2    82  ALA82      -0.2715
     13  CB       307.4010   27.5690  311.3780 C.3    82  ALA82       0.0334
     14  N        306.0490   30.1340  309.9670 N.am   83  ALA83      -0.1963
     15  CA       305.5810   31.5170  310.0060 C.3    83  ALA83       0.1728
     16  C        304.1640   31.7220  309.4560 C.2    83  ALA83       0.2616
     17  O        303.3230   32.3500  310.1050 O.2    83  ALA83      -0.2715
     18  CB       306.5500   32.4080  309.2530 C.3    83  ALA83       0.0334
     19  N        303.9430   31.2690  308.2240 N.am   84  ALA84      -0.1963
     20  CA       302.6570   31.4240  307.5410 C.3    84  ALA84       0.1728
     21  C        301.6600   30.2500  307.5940 C.2    84  ALA84       0.2616
     22  O        300.5100   30.4050  307.2090 O.2    84  ALA84      -0.2715
     23  CB       302.9010   31.8420  306.0970 C.3    84  ALA84       0.0334
     24  N        302.0880   29.0840  308.0610 N.am   85  GLY85      -0.1955
     25  CA       301.1990   27.9330  308.1550 C.3    85  GLY85       0.1869
     26  C        300.9880   27.0770  306.9110 C.2    85  GLY85       0.2309
     27  O        300.0960   26.2270  306.8990 O.2    85  GLY85      -0.2863
     28  N        296.0770   26.6770  310.8260 N.3   400  HIS400     -0.1241
     29  CA       297.2070   27.5880  310.6810 C.3   400  HIS400      0.1621
     30  C        297.0270   28.5680  309.5140 C.2   400  HIS400      0.2264
     31  O        297.1620   29.7860  309.6810 O.2   400  HIS400     -0.2867
     32  CB       298.4910   26.7770  310.5080 C.3   400  HIS400      0.0745
     33  CG       298.7550   25.8360  311.6440 C.ar  400  HIS400      0.0817
     34  ND1      298.8430   26.2550  312.9540 N.ar  400  HIS400     -0.2268
     35  CD2      298.9470   24.4950  311.6680 C.ar  400  HIS400      0.1154
     36  CE1      299.0740   25.2200  313.7350 C.ar  400  HIS400      0.1986
     37  NE2      299.1390   24.1360  312.9830 N.ar  400  HIS400     -0.2212
     38  N        294.1170   31.2220  309.9570 N.3   403  ARG403     -0.1231
     39  CA       294.5660   32.3420  310.7790 C.3   403  ARG403      0.1694
     40  C        295.3900   33.3520  309.9730 C.2   403  ARG403      0.2591
     41  O        295.1600   34.5540  310.0640 O.2   403  ARG403     -0.2718
     42  CB       295.3390   31.8500  312.0060 C.3   403  ARG403      0.0321
     43  CG       294.4570   31.1950  313.0570 C.3   403  ARG403      0.0489
     44  CD       295.1080   31.1930  314.4260 C.3   403  ARG403      0.2205
     45  NE       294.4250   30.3040  315.3680 N.pl3 403  ARG403     -0.0865
     46  CZ       293.2600   30.5710  315.9570 C.cat 403  ARG403      0.5346
     47  NH1      292.6170   31.7020  315.6930 N.pl3 403  ARG403      0.1354
     48  NH2      292.7310   29.7010  316.8090 N.pl3 403  ARG403      0.1354
     49  N        296.3370   32.8590  309.1820 N.am  404  ALA404     -0.1980
     50  CA       297.1240   33.7130  308.2950 C.3   404  ALA404      0.1597
     51  C        296.2580   34.4800  307.2810 C.2   404  ALA404      0.2287
     52  O        296.4890   35.6650  307.0140 O.2   404  ALA404     -0.2864
     53  CB       298.1920   32.8940  307.5720 C.3   404  ALA404      0.0319
     54  N        294.6150   37.3280  309.2010 N.3   407  GLU407     -0.1245
     55  CA       295.5340   38.4180  309.5080 C.3   407  GLU407      0.1567
     56  C        295.8810   39.3100  308.3130 C.2   407  GLU407      0.2260
     57  O        295.6340   40.5130  308.3250 O.2   407  GLU407     -0.2867
     58  CB       296.8390   37.8490  310.0820 C.3   407  GLU407      0.0388
     59  CG       296.6800   37.0360  311.3640 C.3   407  GLU407      0.1160
     60  CD       297.9850   36.3880  311.8210 C.2   407  GLU407      0.3649
     61  OE1      298.9820   36.4220  311.0640 O.co2 407  GLU407     -0.2457
     62  OE2      298.0090   35.8400  312.9450 O.co2 407  GLU407     -0.2457
     63  N        299.8740   35.9130  303.3300 N.3   497  LYS497     -0.1245
     64  CA       301.0500   35.6460  304.1630 C.3   497  LYS497      0.1561
     65  C        301.8670   34.4740  303.6400 C.2   497  LYS497      0.2260
     66  O        303.0920   34.5320  303.5930 O.2   497  LYS497     -0.2867
     67  CB       300.6590   35.3890  305.6130 C.3   497  LYS497      0.0271
     68  CG       301.8100   35.5580  306.5710 C.3   497  LYS497      0.0035
     69  CD       301.3680   35.3350  307.9970 C.3   497  LYS497      0.0206
     70  CE       302.5350   35.4250  308.9590 C.3   497  LYS497      0.1093
     71  NZ       302.0500   35.3380  310.3580 N.3   497  LYS497     -0.1314
@<TRIPOS>BOND
     1    63    64    1
     2    66    65    2
     3    65    64    1
     4    64    67    1
     5    67    68    1
     6     7     6    2
     7    23    20    1
     8     1     2    1
     9    68    69    1
    10     5     2    1
    11     5     6    1
    12     2     3    1
    13    27    26    2
    14    26    25    1
    15     6     8   am
    16    52    51    2
    17    22    21    2
    18    51    50    1
    19    20    21    1
    20    20    19    1
    21    53    50    1
    22    21    24   am
    23    69    70    1
    24    24    25    1
    25    19    16   am
    26    50    49    1
    27    56    57    2
    28    56    55    1
    29     3     4    2
    30     3     9   am
    31    70    71    1
    32     9    10    1
    33    49    40   am
    34    54    55    1
    35    18    15    1
    36    16    15    1
    37    16    17    2
    38    55    58    1
    39    30    31    2
    40    30    29    1
    41    38    39    1
    42    14    15    1
    43    14    11   am
    44    40    41    2
    45    40    39    1
    46    58    59    1
    47    32    29    1
    48    32    33    1
    49    10    11    1
    50    10    13    1
    51    29    28    1
    52    11    12    2
    53    39    42    1
    54    61    60   ar
    55    59    60    1
    56    33    35   ar
    57    33    34   ar
    58    35    37   ar
    59    60    62   ar
    60    42    43    1
    61    34    36   ar
    62    37    36   ar
    63    43    44    1
    64    44    45    1
    65    45    46    2
    66    47    46    1
    67    46    48    1
