@<TRIPOS>MOLECULE
tmp/4kieA02.pdb
 104 96 0 0 0
SMALL
GASTEIGER

@<TRIPOS>ATOM
      1  N          0.7840  -16.7000  -19.3950 N.3    45  VAL45      -0.1231
      2  CA         1.0810  -17.8820  -18.5940 C.3    45  VAL45       0.1692
      3  C          1.6030  -18.9860  -19.4960 C.2    45  VAL45       0.2592
      4  O          0.9730  -19.3460  -20.5020 O.2    45  VAL45      -0.2718
      5  CB        -0.1810  -18.3270  -17.8400 C.3    45  VAL45       0.0266
      6  CG1        0.0780  -19.6000  -17.0430 C.3    45  VAL45       0.0020
      7  CG2       -0.6590  -17.1960  -16.9330 C.3    45  VAL45       0.0020
      8  N          2.7550  -19.5530  -19.1180 N.am   46  LEU46      -0.1966
      9  CA         3.4660  -20.5270  -19.9390 C.3    46  LEU46       0.1728
     10  C          3.7470  -21.7300  -19.0580 C.2    46  LEU46       0.2616
     11  O          4.2960  -21.5910  -17.9950 O.2    46  LEU46      -0.2715
     12  CB         4.7900  -19.9490  -20.4520 C.3    46  LEU46       0.0311
     13  CG         4.5800  -18.7370  -21.3830 C.3    46  LEU46       0.0022
     14  CD1        5.7810  -17.8320  -21.5380 C.3    46  LEU46       0.0001
     15  CD2        4.0800  -19.2490  -22.7160 C.3    46  LEU46       0.0001
     16  N          3.3800  -22.9080  -19.5140 N.am   47  VAL47      -0.1977
     17  CA         3.6220  -24.1040  -18.7120 C.3    47  VAL47       0.1596
     18  C          5.0740  -24.5580  -18.7340 C.2    47  VAL47       0.2287
     19  O          5.7400  -24.5380  -19.7550 O.2    47  VAL47      -0.2864
     20  CB         2.7280  -25.2670  -19.1790 C.3    47  VAL47       0.0276
     21  CG1        3.0540  -25.6850  -20.5940 C.3    47  VAL47       0.0022
     22  CG2        2.8240  -26.4510  -18.2070 C.3    47  VAL47       0.0022
     23  N          7.8850  -27.0180  -22.8370 N.3    59  PRO59      -0.2116
     24  CA         6.7180  -27.6710  -23.4060 C.3    59  PRO59       0.1372
     25  C          6.9520  -28.4300  -24.7100 C.2    59  PRO59       0.2244
     26  O          6.1680  -29.3320  -25.0100 O.2    59  PRO59      -0.2868
     27  CB         5.7030  -26.5350  -23.5870 C.3    59  PRO59       0.0268
     28  CG         6.4450  -25.2730  -23.3150 C.3    59  PRO59       0.0207
     29  CD         7.6420  -25.5990  -22.5190 C.3    59  PRO59       0.0892
     30  N          4.0250  -31.2800  -24.8330 N.3    63  ILE63      -0.1245
     31  CA         2.6990  -30.7980  -25.2300 C.3    63  ILE63       0.1561
     32  C          2.0780  -31.6090  -26.3800 C.2    63  ILE63       0.2260
     33  O          0.8910  -31.8870  -26.3250 O.2    63  ILE63      -0.2867
     34  CB         2.7220  -29.2700  -25.5060 C.3    63  ILE63       0.0252
     35  CG1        2.7660  -28.5200  -24.1630 C.3    63  ILE63       0.0019
     36  CG2        1.5310  -28.8160  -26.3360 C.3    63  ILE63       0.0019
     37  CD1        1.6020  -28.7210  -23.2120 C.3    63  ILE63       0.0001
     38  N         -1.5460  -33.3150  -25.8440 N.3    67  GLU67      -0.1245
     39  CA        -2.6930  -33.0960  -26.7510 C.3    67  GLU67       0.1567
     40  C         -3.2700  -34.3950  -27.3290 C.2    67  GLU67       0.2260
     41  O         -4.4840  -34.6020  -27.2570 O.2    67  GLU67      -0.2867
     42  CB        -2.3210  -32.1310  -27.8740 C.3    67  GLU67       0.0388
     43  CG        -2.0920  -30.7260  -27.3400 C.3    67  GLU67       0.1160
     44  CD        -1.5570  -29.7310  -28.3620 C.2    67  GLU67       0.3649
     45  OE1       -0.9950  -30.1480  -29.3990 O.co2  67  GLU67      -0.2457
     46  OE2       -1.6590  -28.5120  -28.0910 O.co2  67  GLU67      -0.2457
     47  N         -3.9170  -32.9070  -21.8040 N.3    72  ILE72      -0.1245
     48  CA        -3.8470  -31.4180  -21.8670 C.3    72  ILE72       0.1561
     49  C         -5.0370  -30.7230  -21.1920 C.2    72  ILE72       0.2260
     50  O         -4.9090  -29.6320  -20.6160 O.2    72  ILE72      -0.2867
     51  CB        -3.6670  -30.9290  -23.3180 C.3    72  ILE72       0.0252
     52  CG1       -3.2830  -29.4340  -23.3510 C.3    72  ILE72       0.0019
     53  CG2       -4.8930  -31.1720  -24.1760 C.3    72  ILE72       0.0019
     54  CD1       -2.1200  -29.1380  -24.2460 C.3    72  ILE72       0.0001
     55  N         -4.3750  -30.6620  -17.5790 N.3    75  MET75      -0.1230
     56  CA        -3.2010  -29.7980  -17.4090 C.3    75  MET75       0.1702
     57  C         -3.6080  -28.3350  -17.4260 C.2    75  MET75       0.2593
     58  O         -3.2260  -27.5650  -16.5430 O.2    75  MET75      -0.2718
     59  CB        -2.1880  -30.0400  -18.5160 C.3    75  MET75       0.0401
     60  CG        -0.8620  -29.3100  -18.3190 C.3    75  MET75       0.0596
     61  SD         0.2690  -29.6550  -19.6620 S.3    75  MET75      -0.1393
     62  CE         0.5390  -31.4040  -19.4640 C.3    75  MET75       0.0692
     63  N         -4.3860  -27.9620  -18.4370 N.am   76  THR76      -0.1953
     64  CA        -4.8070  -26.5520  -18.5820 C.3    76  THR76       0.1897
     65  C         -5.7180  -26.1330  -17.4350 C.2    76  THR76       0.2313
     66  O         -5.6040  -25.0320  -16.9050 O.2    76  THR76      -0.2863
     67  CB        -5.4580  -26.3190  -19.9530 C.3    76  THR76       0.1794
     68  OG1       -4.5360  -26.6650  -20.9750 O.3    76  THR76      -0.2208
     69  CG2       -5.8570  -24.8660  -20.1600 C.3    76  THR76       0.0378
     70  N         -3.4200  -25.4140  -14.5940 N.3    79  LEU79      -0.1245
     71  CA        -2.6870  -24.1810  -14.8240 C.3    79  LEU79       0.1561
     72  C         -3.5680  -22.9700  -14.5080 C.2    79  LEU79       0.2260
     73  O         -3.1060  -21.9990  -13.9240 O.2    79  LEU79      -0.2867
     74  CB        -2.1450  -24.1200  -16.2470 C.3    79  LEU79       0.0270
     75  CG        -0.9820  -25.0880  -16.4430 C.3    79  LEU79       0.0019
     76  CD1       -0.7500  -25.3830  -17.9030 C.3    79  LEU79       0.0001
     77  CD2        0.2840  -24.5360  -15.7880 C.3    79  LEU79       0.0001
     78  N         -3.7160  -17.0690  -21.6420 N.3   102  ILE102     -0.1231
     79  CA        -3.6840  -18.5330  -21.3680 C.3   102  ILE102      0.1692
     80  C         -3.7180  -19.2490  -22.7360 C.2   102  ILE102      0.2592
     81  O         -4.6020  -18.9560  -23.5430 O.2   102  ILE102     -0.2718
     82  CB        -4.9780  -18.9710  -20.6250 C.3   102  ILE102      0.0266
     83  CG1       -5.1570  -18.2570  -19.2710 C.3   102  ILE102      0.0019
     84  CG2       -5.0460  -20.4970  -20.4730 C.3   102  ILE102      0.0020
     85  CD1       -4.1620  -18.5860  -18.2000 C.3   102  ILE102      0.0001
     86  N         -2.7900  -20.1780  -23.0070 N.am  103  ASN103     -0.1974
     87  CA        -2.8360  -20.9790  -24.2510 C.3   103  ASN103      0.1688
     88  C         -3.9000  -22.0800  -24.1590 C.2   103  ASN103      0.2292
     89  O         -3.9270  -22.8120  -23.1870 O.2   103  ASN103     -0.2864
     90  CB        -1.4830  -21.6100  -24.5520 C.3   103  ASN103      0.1181
     91  CG        -0.4840  -20.5710  -25.0190 C.2   103  ASN103      0.2629
     92  OD1       -0.5990  -20.0380  -26.1330 O.2   103  ASN103     -0.2716
     93  ND2        0.4400  -20.2070  -24.1320 N.am  103  ASN103     -0.0877
     94  N         -1.5300  -23.9440  -35.3230 N.3   139  ARG139     -0.1245
     95  CA        -0.7930  -25.2180  -35.2410 C.3   139  ARG139      0.1563
     96  C         -1.7460  -26.4030  -35.2520 C.2   139  ARG139      0.2260
     97  O         -1.5610  -27.3320  -36.0410 O.2   139  ARG139     -0.2867
     98  CB         0.1220  -25.2550  -33.9970 C.3   139  ARG139      0.0307
     99  CG         0.7970  -26.6010  -33.7100 C.3   139  ARG139      0.0489
    100  CD         0.1860  -27.3580  -32.5250 C.3   139  ARG139      0.2205
    101  NE         1.0690  -27.3430  -31.3460 N.pl3 139  ARG139     -0.0865
    102  CZ         1.6450  -28.4130  -30.7800 C.cat 139  ARG139      0.5346
    103  NH1        1.4410  -29.6470  -31.2380 N.pl3 139  ARG139      0.1354
    104  NH2        2.4340  -28.2480  -29.7210 N.pl3 139  ARG139      0.1354
@<TRIPOS>BOND
     1    97    96    2
     2    94    95    1
     3    96    95    1
     4    95    98    1
     5    98    99    1
     6    99   100    1
     7   100   101    1
     8   101   102    2
     9   103   102    1
    10   102   104    1
    11    45    44   ar
    12    44    46   ar
    13    44    43    1
    14    42    43    1
    15    42    39    1
    16    40    41    2
    17    40    39    1
    18    39    38    1
    19    32    33    2
    20    32    31    1
    21    36    34    1
    22    92    91    2
    23    34    31    1
    24    34    35    1
    25    31    30    1
    26    91    90    1
    27    91    93   am
    28    26    25    2
    29    25    24    1
    30    90    87    1
    31    87    88    1
    32    87    86    1
    33    54    52    1
    34    53    51    1
    35    35    37    1
    36    88    89    2
    37    27    24    1
    38    27    28    1
    39    81    80    2
    40    24    23    1
    41    52    51    1
    42    51    48    1
    43    28    29    1
    44    86    80   am
    45    23    29    1
    46    80    79    1
    47    15    13    1
    48    48    47    1
    49    48    49    1
    50    78    79    1
    51    14    13    1
    52    13    12    1
    53    79    82    1
    54    49    50    2
    55    68    67    1
    56    82    84    1
    57    82    83    1
    58    21    20    1
    59     4     3    2
    60    12     9    1
    61    69    67    1
    62    67    64    1
    63     9     8    1
    64     9    10    1
    65    19    18    2
    66    61    62    1
    67    61    60    1
    68    16    10   am
    69    16    17    1
    70     3     8   am
    71     3     2    1
    72     1     2    1
    73    83    85    1
    74    20    17    1
    75    20    22    1
    76    10    11    2
    77    18    17    1
    78     2     5    1
    79    64    63    1
    80    64    65    1
    81    59    60    1
    82    59    56    1
    83    63    57   am
    84    76    75    1
    85     5     6    1
    86     5     7    1
    87    55    56    1
    88    65    66    2
    89    57    56    1
    90    57    58    2
    91    75    74    1
    92    75    77    1
    93    74    71    1
    94    71    70    1
    95    71    72    1
    96    72    73    2
