@<TRIPOS>MOLECULE
tmp/4kieA03.pdb
 106 105 0 0 0
SMALL
GASTEIGER

@<TRIPOS>ATOM
      1  N         19.3980  -36.7130  -19.1610 N.3     7  TYR7       -0.1241
      2  CA        18.2450  -35.8660  -18.8480 C.3     7  TYR7        0.1605
      3  C         17.0330  -36.0860  -19.7330 C.2     7  TYR7        0.2264
      4  O         15.9220  -35.7420  -19.3220 O.2     7  TYR7       -0.2867
      5  CB        18.6690  -34.3850  -18.8390 C.3     7  TYR7        0.0534
      6  CG        19.5010  -34.1690  -17.6270 C.ar    7  TYR7       -0.0201
      7  CD1       18.9230  -33.7370  -16.4550 C.ar    7  TYR7       -0.0009
      8  CD2       20.8540  -34.5140  -17.6080 C.ar    7  TYR7       -0.0009
      9  CE1       19.6570  -33.5900  -15.3040 C.ar    7  TYR7        0.0417
     10  CE2       21.5960  -34.4110  -16.4460 C.ar    7  TYR7        0.0417
     11  CZ        20.9830  -33.9370  -15.2990 C.ar    7  TYR7        0.1957
     12  OH        21.6650  -33.8100  -14.1320 O.3     7  TYR7       -0.2866
     13  N         14.1950  -38.3350  -20.9580 N.3     9  HIS9       -0.1226
     14  CA        13.4650  -39.5230  -20.5730 C.3     9  HIS9        0.1752
     15  C         12.2450  -39.5590  -21.4660 C.2     9  HIS9        0.2596
     16  O         11.5110  -38.5700  -21.5500 O.2     9  HIS9       -0.2718
     17  CB        13.0610  -39.4840  -19.0880 C.3     9  HIS9        0.0759
     18  CG        14.2250  -39.3510  -18.1460 C.ar    9  HIS9        0.0818
     19  ND1       14.9400  -40.4370  -17.6860 N.ar    9  HIS9       -0.2268
     20  CD2       14.7970  -38.2580  -17.5810 C.ar    9  HIS9        0.1154
     21  CE1       15.9060  -40.0230  -16.8850 C.ar    9  HIS9        0.1986
     22  NE2       15.8460  -38.7040  -16.8080 N.ar    9  HIS9       -0.2212
     23  N         12.0300  -40.6880  -22.1430 N.am   10  ILE10      -0.1966
     24  CA        10.9070  -40.8070  -23.0680 C.3    10  ILE10       0.1727
     25  C          9.6560  -40.3990  -22.3110 C.2    10  ILE10       0.2616
     26  O          9.3560  -40.9440  -21.2530 O.2    10  ILE10      -0.2715
     27  CB        10.7770  -42.2320  -23.6550 C.3    10  ILE10       0.0290
     28  CG1       11.9310  -42.4930  -24.6300 C.3    10  ILE10       0.0022
     29  CG2        9.4400  -42.4050  -24.3690 C.3    10  ILE10       0.0023
     30  CD1       12.1340  -43.9500  -25.0040 C.3    10  ILE10       0.0001
     31  N          8.9490  -39.4040  -22.8370 N.am   11  VAL11      -0.1977
     32  CA         7.7490  -38.9390  -22.1920 C.3    11  VAL11       0.1596
     33  C          6.6300  -39.8660  -22.6430 C.2    11  VAL11       0.2287
     34  O          6.4130  -40.0670  -23.8330 O.2    11  VAL11      -0.2864
     35  CB         7.4420  -37.4720  -22.5500 C.3    11  VAL11       0.0276
     36  CG1        6.1140  -37.0430  -21.9500 C.3    11  VAL11       0.0022
     37  CG2        8.5510  -36.5770  -22.0300 C.3    11  VAL11       0.0022
     38  N          3.6930  -41.0920  -17.6100 N.3    15  ALA15      -0.1245
     39  CA         4.5510  -40.0790  -16.9540 C.3    15  ALA15       0.1562
     40  C          3.8230  -38.7320  -16.8250 C.2    15  ALA15       0.2260
     41  O          3.8760  -38.0830  -15.7880 O.2    15  ALA15      -0.2867
     42  CB         5.8900  -39.9110  -17.6820 C.3    15  ALA15       0.0290
     43  N          7.1740  -28.0650  -17.0280 N.3    49  TRP49      -0.1241
     44  CA         7.0760  -29.2860  -16.2220 C.3    49  TRP49       0.1605
     45  C          8.2700  -29.3480  -15.2840 C.2    49  TRP49       0.2264
     46  O          9.3860  -29.5380  -15.7360 O.2    49  TRP49      -0.2867
     47  CB         7.1030  -30.4820  -17.1570 C.3    49  TRP49       0.0550
     48  CG         6.9100  -31.8220  -16.4900 C.ar   49  TRP49       0.0003
     49  CD1        6.9040  -32.0850  -15.1610 C.ar   49  TRP49       0.0946
     50  CD2        6.7780  -33.0640  -17.1490 C.ar   49  TRP49       0.0152
     51  NE1        6.7530  -33.4400  -14.9440 N.ar   49  TRP49      -0.2442
     52  CE2        6.6580  -34.0580  -16.1600 C.ar   49  TRP49       0.0810
     53  CE3        6.7150  -33.4390  -18.4910 C.ar   49  TRP49       0.0012
     54  CZ2        6.4840  -35.4040  -16.4730 C.ar   49  TRP49       0.0191
     55  CZ3        6.5270  -34.7650  -18.7980 C.ar   49  TRP49       0.0001
     56  CH2        6.4180  -35.7380  -17.7980 C.ar   49  TRP49       0.0015
     57  N         10.0570  -31.3630  -12.9550 N.3    51  HIS51      -0.1227
     58  CA        10.1580  -32.7440  -12.5150 C.3    51  HIS51       0.1737
     59  C         11.4040  -32.8840  -11.6500 C.2    51  HIS51       0.2438
     60  O         12.5020  -32.6110  -12.1130 O.2    51  HIS51      -0.2733
     61  CB        10.2230  -33.6660  -13.7170 C.3    51  HIS51       0.0758
     62  CG        10.1990  -35.1140  -13.3480 C.ar   51  HIS51       0.0818
     63  ND1        9.0640  -35.7350  -12.8790 N.ar   51  HIS51      -0.2268
     64  CD2       11.1700  -36.0570  -13.3560 C.ar   51  HIS51       0.1154
     65  CE1        9.3310  -37.0070  -12.6280 C.ar   51  HIS51       0.1986
     66  NE2       10.6020  -37.2280  -12.9080 N.ar   51  HIS51      -0.2212
     67  N         11.2400  -33.2470  -10.3670 N.am   52  PRO52      -0.2718
     68  CA        12.4530  -33.5660   -9.5930 C.3    52  PRO52       0.1535
     69  C         13.2170  -34.6820  -10.3250 C.2    52  PRO52       0.2598
     70  O         12.5570  -35.5930  -10.7940 O.2    52  PRO52      -0.2715
     71  CB        11.8850  -34.1120   -8.2670 C.3    52  PRO52       0.0310
     72  CG        10.4930  -33.5940   -8.1770 C.3    52  PRO52       0.0237
     73  CD         9.9990  -33.4570   -9.5900 C.3    52  PRO52       0.0939
     74  N         14.5280  -34.6610  -10.5110 N.am   53  GLN53      -0.1964
     75  CA        15.4520  -33.5320  -10.4000 C.3    53  GLN53       0.1733
     76  C         16.1020  -33.3860  -11.7930 C.2    53  GLN53       0.2617
     77  O         17.2570  -32.9380  -11.9420 O.2    53  GLN53      -0.2715
     78  CB        16.5200  -33.8440   -9.3700 C.3    53  GLN53       0.0408
     79  CG        17.3540  -32.6390   -9.0310 C.3    53  GLN53       0.0908
     80  CD        16.5650  -31.6070   -8.2540 C.2    53  GLN53       0.2608
     81  OE1       15.8720  -31.8850   -7.2510 O.2    53  GLN53      -0.2717
     82  NE2       16.6220  -30.3570   -8.7130 N.am   53  GLN53      -0.0878
     83  N         15.3520  -33.8430  -12.7970 N.am   54  THR54      -0.1951
     84  CA        15.5720  -33.5340  -14.1960 C.3    54  THR54       0.1897
     85  C         15.5990  -32.0420  -14.3770 C.2    54  THR54       0.2313
     86  O         16.4690  -31.4810  -15.0520 O.2    54  THR54      -0.2863
     87  CB        14.3940  -34.1130  -14.9810 C.3    54  THR54       0.1794
     88  OG1       14.3510  -35.5090  -14.7270 O.3    54  THR54      -0.2208
     89  CG2       14.5090  -33.8460  -16.4690 C.3    54  THR54       0.0378
     90  N         11.3550  -28.6680  -17.4730 N.3    57  ILE57      -0.1245
     91  CA        11.2280  -29.2000  -18.8030 C.3    57  ILE57       0.1561
     92  C         10.3300  -28.3030  -19.6680 C.2    57  ILE57       0.2260
     93  O          9.2040  -27.9780  -19.2730 O.2    57  ILE57      -0.2867
     94  CB        10.6560  -30.6280  -18.7460 C.3    57  ILE57       0.0252
     95  CG1       11.5510  -31.5380  -17.8840 C.3    57  ILE57       0.0019
     96  CG2       10.5160  -31.1970  -20.1510 C.3    57  ILE57       0.0019
     97  CD1       10.8340  -32.7630  -17.3520 C.3    57  ILE57       0.0001
     98  N          8.7930  -30.7600  -25.1710 N.3    61  GLN61      -0.1245
     99  CA         9.0730  -32.1390  -24.7800 C.3    61  GLN61       0.1566
    100  C          7.8220  -32.9280  -24.4550 C.2    61  GLN61       0.2260
    101  O          7.8880  -34.1580  -24.3880 O.2    61  GLN61      -0.2867
    102  CB        10.0150  -32.2060  -23.5770 C.3    61  GLN61       0.0367
    103  CG        11.3750  -31.5610  -23.8080 C.3    61  GLN61       0.0905
    104  CD        12.0570  -32.0930  -25.0400 C.2    61  GLN61       0.2608
    105  OE1       12.2450  -31.3620  -26.0140 O.2    61  GLN61      -0.2717
    106  NE2       12.4290  -33.3570  -25.0140 N.am   61  GLN61      -0.0878
@<TRIPOS>BOND
     1   105   104    2
     2    98    99    1
     3   104   106   am
     4   104   103    1
     5    30    28    1
     6    99   100    1
     7    99   102    1
     8    28    27    1
     9   100   101    2
    10    29    27    1
    11    34    33    2
    12   103   102    1
    13    27    24    1
    14    24    25    1
    15    24    23    1
    16    31    25   am
    17    31    32    1
    18    33    32    1
    19    35    32    1
    20    35    37    1
    21    35    36    1
    22    25    26    2
    23    23    15   am
    24    16    15    2
    25    15    14    1
    26    13    14    1
    27    14    17    1
    28    96    94    1
    29     3     4    2
    30     3     2    1
    31    92    93    2
    32    92    91    1
    33     1     2    1
    34    17    18    1
    35     2     5    1
    36     5     6    1
    37    91    94    1
    38    91    90    1
    39    55    53   ar
    40    55    56   ar
    41    94    95    1
    42    53    50   ar
    43    18    19   ar
    44    18    20   ar
    45    95    97    1
    46    56    54   ar
    47    19    21   ar
    48    42    39    1
    49     6     8   ar
    50     6     7   ar
    51    38    39    1
    52     8    10   ar
    53    20    22   ar
    54    47    48    1
    55    47    44    1
    56    50    48   ar
    57    50    52   ar
    58    43    44    1
    59    39    40    1
    60    21    22   ar
    61    40    41    2
    62    48    49   ar
    63    54    52   ar
    64    89    87    1
    65     7     9   ar
    66    10    11   ar
    67    44    45    1
    68    52    51   ar
    69    46    45    2
    70     9    11   ar
    71    11    12    1
    72    49    51   ar
    73    86    85    2
    74    87    88    1
    75    87    84    1
    76    85    84    1
    77    84    83    1
    78    61    62    1
    79    61    58    1
    80    64    62   ar
    81    64    66   ar
    82    62    63   ar
    83    57    58    1
    84    66    65   ar
    85    63    65   ar
    86    83    76   am
    87    58    59    1
    88    60    59    2
    89    77    76    2
    90    76    75    1
    91    59    67   am
    92    70    69    2
    93    74    75    1
    94    74    69   am
    95    75    78    1
    96    67    68    1
    97    67    73    1
    98    69    68    1
    99    68    71    1
   100    73    72    1
   101    78    79    1
   102    79    80    1
   103    82    80   am
   104    71    72    1
   105    80    81    2
