@<TRIPOS>MOLECULE
tmp/4kieA01.pdb
 115 106 0 0 0
SMALL
GASTEIGER

@<TRIPOS>ATOM
      1  N          3.9870   -8.6070  -20.3640 N.3    32  VAL32      -0.1245
      2  CA         3.6790   -8.0440  -21.6540 C.3    32  VAL32       0.1561
      3  C          3.5220   -6.5330  -21.4310 C.2    32  VAL32       0.2260
      4  O          3.0300   -6.0970  -20.3680 O.2    32  VAL32      -0.2867
      5  CB         2.3520   -8.5830  -22.2280 C.3    32  VAL32       0.0252
      6  CG1        2.0540   -7.9560  -23.5780 C.3    32  VAL32       0.0019
      7  CG2        2.4180  -10.0840  -22.4300 C.3    32  VAL32       0.0019
      8  N          1.2590   -4.1800  -19.2070 N.3    41  THR41      -0.1203
      9  CA        -0.1610   -4.2920  -19.5400 C.3    41  THR41       0.1994
     10  C         -0.7760   -5.6250  -19.1920 C.2    41  THR41       0.2618
     11  O         -1.9880   -5.7650  -19.1500 O.2    41  THR41      -0.2717
     12  CB        -0.3950   -4.0290  -21.0270 C.3    41  THR41       0.1784
     13  OG1        0.3860   -4.9160  -21.8220 O.3    41  THR41      -0.2211
     14  CG2       -0.0530   -2.5810  -21.3740 C.3    41  THR41       0.0376
     15  N          0.0510   -6.6390  -19.0030 N.am   42  GLY42      -0.1942
     16  CA        -0.4680   -7.9670  -18.8990 C.3    42  GLY42       0.2014
     17  C          0.6360   -8.9790  -18.8250 C.2    42  GLY42       0.2639
     18  O          1.7800   -8.6590  -18.5090 O.2    42  GLY42      -0.2714
     19  N          0.2660  -10.2210  -19.0690 N.am   43  CYS43      -0.1953
     20  CA         1.2320  -11.2880  -19.0380 C.3    43  CYS43       0.1843
     21  C          0.7530  -12.4220  -19.9180 C.2    43  CYS43       0.2625
     22  O         -0.3850  -12.4430  -20.4100 O.2    43  CYS43      -0.2714
     23  CB         1.4040  -11.7620  -17.5900 C.3    43  CYS43       0.0997
     24  SG        -0.0450  -12.5970  -16.8810 S.3    43  CYS43      -0.0797
     25  N          1.6250  -13.3920  -20.0860 N.am   44  GLU44      -0.1977
     26  CA         1.2550  -14.6870  -20.6250 C.3    44  GLU44       0.1602
     27  C          1.6670  -15.7520  -19.6140 C.2    44  GLU44       0.2287
     28  O          2.7750  -15.7280  -19.1110 O.2    44  GLU44      -0.2864
     29  CB         1.9620  -14.9810  -21.9570 C.3    44  GLU44       0.0415
     30  CG         1.4340  -16.2440  -22.6430 C.3    44  GLU44       0.1163
     31  CD         2.0660  -16.5890  -23.9880 C.2    44  GLU44       0.3649
     32  OE1        3.1750  -16.0980  -24.3280 O.co2  44  GLU44      -0.2457
     33  OE2        1.4610  -17.4120  -24.7230 O.co2  44  GLU44      -0.2457
     34  N         -4.0910   -7.7440  -18.4200 N.3    99  HIS99      -0.1241
     35  CA        -4.4560   -8.8380  -19.2990 C.3    99  HIS99       0.1621
     36  C         -3.6840  -10.0940  -18.9250 C.2    99  HIS99       0.2264
     37  O         -2.4990  -10.0480  -18.5630 O.2    99  HIS99      -0.2867
     38  CB        -4.2270   -8.4810  -20.7660 C.3    99  HIS99       0.0745
     39  CG        -5.2660   -7.5690  -21.3390 C.ar   99  HIS99       0.0817
     40  ND1       -5.7040   -6.4440  -20.6780 N.ar   99  HIS99      -0.2268
     41  CD2       -5.9470   -7.6090  -22.5060 C.ar   99  HIS99       0.1154
     42  CE1       -6.6290   -5.8370  -21.4070 C.ar   99  HIS99       0.1986
     43  NE2       -6.7720   -6.5060  -22.5340 N.ar   99  HIS99      -0.2212
     44  N         -2.8960  -13.9100  -20.5180 N.3   101  GLY101     -0.1225
     45  CA        -2.9830  -14.7690  -21.6890 C.3   101  GLY101      0.1811
     46  C         -2.7730  -16.2150  -21.2570 C.2   101  GLY101      0.2280
     47  O         -1.7840  -16.5280  -20.5890 O.2   101  GLY101     -0.2866
     48  N         -7.4060  -13.4420  -21.7710 N.3   133  VAL133     -0.1245
     49  CA        -7.1520  -13.6100  -23.2040 C.3   133  VAL133      0.1561
     50  C         -6.8310  -15.0710  -23.5230 C.2   133  VAL133      0.2260
     51  O         -5.7970  -15.6200  -23.1010 O.2   133  VAL133     -0.2867
     52  CB        -5.9480  -12.7790  -23.6990 C.3   133  VAL133      0.0252
     53  CG1       -5.8860  -12.8470  -25.2370 C.3   133  VAL133      0.0019
     54  CG2       -6.0660  -11.3430  -23.1610 C.3   133  VAL133      0.0019
     55  N         -5.5990  -17.7780  -25.9160 N.3   135  GLU135     -0.1245
     56  CA        -4.7440  -17.8020  -27.0580 C.3   135  GLU135      0.1567
     57  C         -4.8840  -19.0790  -27.8250 C.2   135  GLU135      0.2260
     58  O         -4.5420  -20.1520  -27.3100 O.2   135  GLU135     -0.2867
     59  CB        -3.2700  -17.6060  -26.6420 C.3   135  GLU135      0.0388
     60  CG        -3.0380  -16.4200  -25.7470 C.3   135  GLU135      0.1160
     61  CD        -1.5840  -16.3380  -25.3330 C.2   135  GLU135      0.3649
     62  OE1       -1.1440  -17.2490  -24.5930 O.co2 135  GLU135     -0.2457
     63  OE2       -0.9040  -15.4330  -25.8380 O.co2 135  GLU135     -0.2457
     64  N         -6.8540  -14.3910  -28.7110 N.3   163  ALA163     -0.1245
     65  CA        -5.7610  -14.0910  -29.6160 C.3   163  ALA163      0.1562
     66  C         -5.5240  -15.2840  -30.5350 C.2   163  ALA163      0.2260
     67  O         -5.8490  -16.4110  -30.1460 O.2   163  ALA163     -0.2867
     68  CB        -4.4940  -13.7890  -28.8480 C.3   163  ALA163      0.0290
     69  N         -7.1210  -10.2120  -30.9000 N.3   184  PHE184     -0.1241
     70  CA        -5.6960   -9.9460  -31.0600 C.3   184  PHE184      0.1605
     71  C         -5.0350  -10.9150  -32.0390 C.2   184  PHE184      0.2264
     72  O         -5.3050  -12.1180  -32.0310 O.2   184  PHE184     -0.2867
     73  CB        -4.9580  -10.0600  -29.7260 C.3   184  PHE184      0.0534
     74  CG        -5.5820   -9.2950  -28.6010 C.ar  184  PHE184     -0.0203
     75  CD1       -5.4560   -7.9200  -28.5570 C.ar  184  PHE184     -0.0042
     76  CD2       -6.2760   -9.9230  -27.5820 C.ar  184  PHE184     -0.0042
     77  CE1       -6.0220   -7.1920  -27.5350 C.ar  184  PHE184     -0.0003
     78  CE2       -6.8230   -9.2000  -26.5260 C.ar  184  PHE184     -0.0003
     79  CZ        -6.7120   -7.8210  -26.5010 C.ar  184  PHE184     -0.0000
     80  N         -1.3670  -12.4530  -32.8190 N.3   186  LYS186     -0.1245
     81  CA        -0.0570  -12.6030  -32.2210 C.3   186  LYS186      0.1561
     82  C          0.9030  -13.0060  -33.3210 C.2   186  LYS186      0.2260
     83  O          0.6740  -13.9950  -34.0490 O.2   186  LYS186     -0.2867
     84  CB        -0.0950  -13.6550  -31.1030 C.3   186  LYS186      0.0271
     85  CG         1.2730  -14.0500  -30.6400 C.3   186  LYS186      0.0035
     86  CD         1.2420  -15.0120  -29.4730 C.3   186  LYS186      0.0206
     87  CE         1.3850  -14.3310  -28.1560 C.3   186  LYS186      0.1093
     88  NZ         1.5860  -15.3240  -27.0560 N.3   186  LYS186     -0.1314
     89  N          0.0280   -8.3450  -30.7950 N.3   220  VAL220     -0.1245
     90  CA         1.1430   -8.5930  -29.8840 C.3   220  VAL220      0.1561
     91  C          2.2590   -9.2700  -30.6790 C.2   220  VAL220      0.2260
     92  O          1.9930  -10.1730  -31.4560 O.2   220  VAL220     -0.2867
     93  CB         0.7330   -9.4040  -28.6270 C.3   220  VAL220      0.0252
     94  CG1       -0.0320  -10.6590  -28.9920 C.3   220  VAL220      0.0019
     95  CG2        1.9520   -9.7220  -27.7680 C.3   220  VAL220      0.0019
     96  N          1.6340   -4.3730  -28.6040 N.3   240  PHE240     -0.1241
     97  CA         2.0630   -4.9990  -27.3550 C.3   240  PHE240      0.1605
     98  C          3.3130   -5.8280  -27.6480 C.2   240  PHE240      0.2264
     99  O          3.3980   -6.4880  -28.6870 O.2   240  PHE240     -0.2867
    100  CB         1.0050   -5.9110  -26.7590 C.3   240  PHE240      0.0534
    101  CG        -0.3980   -5.3600  -26.8470 C.ar  240  PHE240     -0.0203
    102  CD1       -0.7490   -4.2320  -26.1380 C.ar  240  PHE240     -0.0042
    103  CD2       -1.3310   -5.9420  -27.6840 C.ar  240  PHE240     -0.0042
    104  CE1       -2.0250   -3.7150  -26.2280 C.ar  240  PHE240     -0.0003
    105  CE2       -2.6170   -5.4390  -27.7750 C.ar  240  PHE240     -0.0003
    106  CZ        -2.9510   -4.3120  -27.0750 C.ar  240  PHE240     -0.0000
    107  N          6.4620   -8.5090  -26.0060 N.3   242  GLN242     -0.1245
    108  CA         6.7650   -9.5160  -25.0260 C.3   242  GLN242      0.1566
    109  C          8.0540  -10.1980  -25.4600 C.2   242  GLN242      0.2260
    110  O          8.2250  -10.4510  -26.6460 O.2   242  GLN242     -0.2867
    111  CB         5.6170  -10.5090  -25.0860 C.3   242  GLN242      0.0367
    112  CG         5.6420  -11.6200  -24.1240 C.3   242  GLN242      0.0905
    113  CD         4.5200  -12.6240  -24.4450 C.2   242  GLN242      0.2608
    114  OE1        3.5190  -12.3050  -25.1280 O.2   242  GLN242     -0.2717
    115  NE2        4.7100  -13.8240  -23.9920 N.am  242  GLN242     -0.0878
@<TRIPOS>BOND
     1    83    82    2
     2    82    81    1
     3    80    81    1
     4    81    84    1
     5    71    72    2
     6    71    70    1
     7    92    91    2
     8    84    85    1
     9    70    69    1
    10    70    73    1
    11    89    90    1
    12    91    90    1
    13    85    86    1
    14    66    67    2
    15    66    65    1
    16    90    93    1
    17    73    74    1
    18    65    68    1
    19    65    64    1
    20    86    87    1
    21    94    93    1
    22    99    98    2
    23    93    95    1
    24    96    97    1
    25    74    75   ar
    26    74    76   ar
    27    75    77   ar
    28    87    88    1
    29    57    58    2
    30    57    56    1
    31   105   103   ar
    32   105   106   ar
    33   103   101   ar
    34    98    97    1
    35    76    78   ar
    36    77    79   ar
    37    97   100    1
    38   106   104   ar
    39    56    59    1
    40    56    55    1
    41   101   100    1
    42   101   102   ar
    43   110   109    2
    44    59    60    1
    45    78    79   ar
    46   104   102   ar
    47   107   108    1
    48    63    61   ar
    49    60    61    1
    50   109   108    1
    51    61    62   ar
    52    53    52    1
    53   114   113    2
    54   111   108    1
    55   111   112    1
    56    33    31   ar
    57   113   112    1
    58   113   115   am
    59    32    31   ar
    60    31    30    1
    61    52    49    1
    62    52    54    1
    63     6     5    1
    64    50    49    1
    65    50    51    2
    66    49    48    1
    67    30    29    1
    68    43    41   ar
    69    43    42   ar
    70    41    39   ar
    71     7     5    1
    72     5     2    1
    73    29    26    1
    74    13    12    1
    75    45    46    1
    76    45    44    1
    77     2     3    1
    78     2     1    1
    79     3     4    2
    80    42    40   ar
    81    14    12    1
    82    39    38    1
    83    39    40   ar
    84    46    47    2
    85    12     9    1
    86    38    35    1
    87    26    25    1
    88    26    27    1
    89    22    21    2
    90    25    21   am
    91    21    20    1
    92    27    28    2
    93     9     8    1
    94     9    10    1
    95    35    36    1
    96    35    34    1
    97    10    11    2
    98    10    15   am
    99    19    20    1
   100    19    17   am
   101    20    23    1
   102    15    16    1
   103    36    37    2
   104    16    17    1
   105    17    18    2
   106    23    24    1
