@<TRIPOS>MOLECULE
tmp/4kigA00.pdb
 145 138 0 0 0
SMALL
GASTEIGER

@<TRIPOS>ATOM
      1  N         26.4350    5.0670  158.6080 N.3    94  TRP94      -0.1241
      2  CA        26.0320    6.1690  157.7540 C.3    94  TRP94       0.1605
      3  C         24.8420    6.8510  158.3820 C.2    94  TRP94       0.2264
      4  O         24.7710    8.0950  158.4130 O.2    94  TRP94      -0.2867
      5  CB        25.6710    5.6890  156.3570 C.3    94  TRP94       0.0550
      6  CG        25.1200    6.7420  155.4600 C.ar   94  TRP94       0.0003
      7  CD1       25.8240    7.5130  154.5790 C.ar   94  TRP94       0.0946
      8  CD2       23.7440    7.1050  155.2880 C.ar   94  TRP94       0.0152
      9  NE1       24.9690    8.3460  153.8780 N.ar   94  TRP94      -0.2442
     10  CE2       23.6920    8.1080  154.2890 C.ar   94  TRP94       0.0810
     11  CE3       22.5450    6.6820  155.8770 C.ar   94  TRP94       0.0012
     12  CZ2       22.5030    8.6910  153.8770 C.ar   94  TRP94       0.0191
     13  CZ3       21.3620    7.2820  155.4640 C.ar   94  TRP94       0.0001
     14  CH2       21.3560    8.2770  154.4850 C.ar   94  TRP94       0.0015
     15  N         25.9110   17.5380  158.7740 N.3   122  ARG122     -0.1245
     16  CA        26.3400   16.1500  158.9530 C.3   122  ARG122      0.1563
     17  C         27.8350   16.1000  159.1860 C.2   122  ARG122      0.2260
     18  O         28.5380   17.0650  158.9270 O.2   122  ARG122     -0.2867
     19  CB        26.0480   15.3060  157.7230 C.3   122  ARG122      0.0307
     20  CG        24.5800   15.0790  157.4010 C.3   122  ARG122      0.0489
     21  CD        24.4470   14.8150  155.9010 C.3   122  ARG122      0.2205
     22  NE        24.1850   13.4270  155.5660 N.pl3 122  ARG122     -0.0865
     23  CZ        24.3310   12.8930  154.3560 C.cat 122  ARG122      0.5346
     24  NH1       24.7840   13.6110  153.3490 N.pl3 122  ARG122      0.1354
     25  NH2       24.0580   11.6090  154.1730 N.pl3 122  ARG122      0.1354
     26  N         30.8570   10.3580  157.3230 N.3   127  ILE127     -0.1245
     27  CA        30.2430    9.9390  156.0780 C.3   127  ILE127      0.1561
     28  C         31.2770    9.3170  155.1580 C.2   127  ILE127      0.2260
     29  O         31.0050    8.2910  154.5510 O.2   127  ILE127     -0.2867
     30  CB        29.4990   11.1040  155.3990 C.3   127  ILE127      0.0252
     31  CG1       28.1480   11.2630  156.0840 C.3   127  ILE127      0.0019
     32  CG2       29.2980   10.8550  153.9110 C.3   127  ILE127      0.0019
     33  CD1       27.3580   12.4130  155.5330 C.3   127  ILE127      0.0001
     34  N         31.2230    5.6230  153.7300 N.3   131  CYS131     -0.1235
     35  CA        31.1260    5.5360  152.2810 C.3   131  CYS131      0.1677
     36  C         32.2800    4.6740  151.7440 C.2   131  CYS131      0.2270
     37  O         32.0980    3.9200  150.8010 O.2   131  CYS131     -0.2867
     38  CB        30.9940    6.9230  151.6220 C.3   131  CYS131      0.0956
     39  SG        29.2970    7.6100  151.7220 S.3   131  CYS131     -0.0801
     40  N         31.0600    1.2950  152.1150 N.3   134  ILE134     -0.1245
     41  CA        29.8540    1.1490  151.3200 C.3   134  ILE134      0.1561
     42  C         30.2450    0.8150  149.8700 C.2   134  ILE134      0.2260
     43  O         29.7390   -0.1390  149.2900 O.2   134  ILE134     -0.2867
     44  CB        28.9340    2.3850  151.4230 C.3   134  ILE134      0.0252
     45  CG1       28.2820    2.3900  152.8010 C.3   134  ILE134      0.0019
     46  CG2       27.8890    2.3460  150.3290 C.3   134  ILE134      0.0019
     47  CD1       27.4430    3.6100  153.1060 C.3   134  ILE134      0.0001
     48  N         29.2370   -1.9200  145.9810 N.3   139  PHE139     -0.1241
     49  CA        29.3960   -1.5430  144.5580 C.3   139  PHE139      0.1605
     50  C         30.5530   -2.2530  143.8710 C.2   139  PHE139      0.2264
     51  O         30.5050   -2.4570  142.6770 O.2   139  PHE139     -0.2867
     52  CB        29.5810   -0.0220  144.4000 C.3   139  PHE139      0.0534
     53  CG        28.3280    0.7740  144.6270 C.ar  139  PHE139     -0.0203
     54  CD1       27.9970    1.2280  145.9020 C.ar  139  PHE139     -0.0042
     55  CD2       27.4700    1.0620  143.5730 C.ar  139  PHE139     -0.0042
     56  CE1       26.8380    1.9640  146.1290 C.ar  139  PHE139     -0.0003
     57  CE2       26.3040    1.7890  143.7890 C.ar  139  PHE139     -0.0003
     58  CZ        25.9920    2.2520  145.0780 C.ar  139  PHE139     -0.0000
     59  N         28.5220    6.6510  143.5160 N.3   235  MET235     -0.1245
     60  CA        27.8530    7.1620  144.6980 C.3   235  MET235      0.1570
     61  C         27.5880    8.6730  144.7420 C.2   235  MET235      0.2261
     62  O         27.3580    9.2360  145.8110 O.2   235  MET235     -0.2867
     63  CB        28.5780    6.6850  145.9460 C.3   235  MET235      0.0387
     64  CG        28.5880    5.1530  146.0410 C.3   235  MET235      0.0595
     65  SD        29.7230    4.4790  147.2640 S.3   235  MET235     -0.1393
     66  CE        28.9530    5.1540  148.7330 C.3   235  MET235      0.0692
     67  N         23.1380   10.9170  141.8230 N.3   238  HIS238     -0.1226
     68  CA        21.9570   11.6820  142.2270 C.3   238  HIS238      0.1752
     69  C         22.2180   13.1690  142.4890 C.2   238  HIS238      0.2596
     70  O         21.2960   13.9790  142.4050 O.2   238  HIS238     -0.2718
     71  CB        21.2830   11.0780  143.4610 C.3   238  HIS238      0.0759
     72  CG        22.1730   10.9920  144.6530 C.ar  238  HIS238      0.0818
     73  ND1       23.0330    9.9350  144.8530 N.ar  238  HIS238     -0.2268
     74  CD2       22.3570   11.8360  145.7000 C.ar  238  HIS238      0.1154
     75  CE1       23.7020   10.1260  145.9780 C.ar  238  HIS238      0.1986
     76  NE2       23.2970   11.2600  146.5200 N.ar  238  HIS238     -0.2212
     77  N         23.4510   13.5160  142.8300 N.am  239  ASP239     -0.1974
     78  CA        23.7930   14.9100  143.1070 C.3   239  ASP239      0.1709
     79  C         23.9830   15.7040  141.8060 C.2   239  ASP239      0.2293
     80  O         24.1680   16.9120  141.8640 O.2   239  ASP239     -0.2864
     81  CB        25.0580   15.0200  143.9890 C.3   239  ASP239      0.1436
     82  CG        24.8590   14.4410  145.3890 C.2   239  ASP239      0.3671
     83  OD1       23.8910   14.8230  146.0730 O.co2 239  ASP239     -0.2456
     84  OD2       25.6680   13.5910  145.8270 O.co2 239  ASP239     -0.2456
     85  N         25.4270    4.2600  141.3270 N.3   267  ASP267     -0.1225
     86  CA        24.7400    4.9310  142.3970 C.3   267  ASP267      0.1805
     87  C         23.6030    4.0870  142.9730 C.2   267  ASP267      0.2597
     88  O         23.2740    3.0260  142.4400 O.2   267  ASP267     -0.2718
     89  CB        24.1960    6.2620  141.8840 C.3   267  ASP267      0.1424
     90  CG        24.0970    7.3020  142.9620 C.2   267  ASP267      0.3668
     91  OD1       24.4580    7.0290  144.1390 O.co2 267  ASP267     -0.2456
     92  OD2       23.6480    8.4170  142.6390 O.co2 267  ASP267     -0.2456
     93  N         23.0280    4.5610  144.0860 N.am  268  ALA268     -0.1979
     94  CA        21.7850    4.0240  144.5800 C.3   268  ALA268      0.1597
     95  C         20.6760    4.9060  144.0200 C.2   268  ALA268      0.2287
     96  O         20.9200    6.0670  143.6680 O.2   268  ALA268     -0.2864
     97  CB        21.7660    3.9950  146.0940 C.3   268  ALA268      0.0319
     98  N         18.4230    0.2510  154.9370 N.3   282  PHE282     -0.1241
     99  CA        18.9820    1.4130  154.2460 C.3   282  PHE282      0.1605
    100  C         17.9520    2.2480  153.4930 C.2   282  PHE282      0.2264
    101  O         17.9580    3.4810  153.6260 O.2   282  PHE282     -0.2867
    102  CB        20.1070    1.0010  153.3140 C.3   282  PHE282      0.0534
    103  CG        20.9100    2.1450  152.8010 C.ar  282  PHE282     -0.0203
    104  CD1       21.5060    3.0360  153.6700 C.ar  282  PHE282     -0.0042
    105  CD2       21.0680    2.3290  151.4340 C.ar  282  PHE282     -0.0042
    106  CE1       22.2430    4.0960  153.1880 C.ar  282  PHE282     -0.0003
    107  CE2       21.7920    3.3910  150.9340 C.ar  282  PHE282     -0.0003
    108  CZ        22.4030    4.2730  151.8180 C.ar  282  PHE282     -0.0000
    109  N         18.0350    6.2550  153.3800 N.3   286  PHE286     -0.1241
    110  CA        18.5950    6.8890  152.2260 C.3   286  PHE286      0.1605
    111  C         17.5810    7.9120  151.6480 C.2   286  PHE286      0.2264
    112  O         17.9250    9.0920  151.4230 O.2   286  PHE286     -0.2867
    113  CB        19.0050    5.8020  151.2110 C.3   286  PHE286      0.0534
    114  CG        19.6530    6.3400  149.9830 C.ar  286  PHE286     -0.0203
    115  CD1       20.8860    6.9500  150.0550 C.ar  286  PHE286     -0.0042
    116  CD2       19.0360    6.2140  148.7460 C.ar  286  PHE286     -0.0042
    117  CE1       21.5020    7.4460  148.9230 C.ar  286  PHE286     -0.0003
    118  CE2       19.6370    6.7120  147.6010 C.ar  286  PHE286     -0.0003
    119  CZ        20.8670    7.3450  147.6940 C.ar  286  PHE286     -0.0000
    120  N         17.5430   12.0870  152.0370 N.3   290  HIS290     -0.1241
    121  CA        17.7130   13.0280  150.9370 C.3   290  HIS290      0.1621
    122  C         16.4720   13.9790  150.8200 C.2   290  HIS290      0.2264
    123  O         16.6230   15.1410  150.4880 O.2   290  HIS290     -0.2867
    124  CB        18.1370   12.3360  149.6110 C.3   290  HIS290      0.0745
    125  CG        19.5880   11.9200  149.5750 C.ar  290  HIS290      0.0817
    126  ND1       20.0650   10.7910  150.2090 N.ar  290  HIS290     -0.2268
    127  CD2       20.6730   12.5050  149.0110 C.ar  290  HIS290      0.1154
    128  CE1       21.3650   10.6820  150.0120 C.ar  290  HIS290      0.1986
    129  NE2       21.7620   11.7170  149.3040 N.ar  290  HIS290     -0.2212
    130  N         17.2080   16.5690  153.1480 N.3   293  MET293     -0.1245
    131  CA        18.1790   17.5480  152.6010 C.3   293  MET293      0.1570
    132  C         17.6950   18.2720  151.3520 C.2   293  MET293      0.2261
    133  O         18.4120   19.1390  150.8380 O.2   293  MET293     -0.2867
    134  CB        19.5360   16.9000  152.2980 C.3   293  MET293      0.0387
    135  CG        20.0790   16.2000  153.5100 C.3   293  MET293      0.0595
    136  SD        21.6050   15.3790  153.1750 S.3   293  MET293     -0.1393
    137  CE        21.0290   13.7670  152.6200 C.3   293  MET293      0.0692
    138  N         21.4530   -3.0840  148.1650 N.3   323  LEU323     -0.1245
    139  CA        21.6130   -1.8000  148.8280 C.3   323  LEU323      0.1561
    140  C         20.4820   -0.9140  148.2820 C.2   323  LEU323      0.2260
    141  O         20.6750   -0.1090  147.3730 O.2   323  LEU323     -0.2867
    142  CB        22.9770   -1.2220  148.4590 C.3   323  LEU323      0.0270
    143  CG        23.3080    0.1810  148.9310 C.3   323  LEU323      0.0019
    144  CD1       23.5550    0.1080  150.4200 C.3   323  LEU323      0.0001
    145  CD2       24.5000    0.7360  148.1780 C.3   323  LEU323      0.0001
@<TRIPOS>BOND
     1    85    86    1
     2    79    80    2
     3    79    78    1
     4    67    68    1
     5    89    86    1
     6    89    90    1
     7    68    69    1
     8    68    71    1
     9    86    87    1
    10    70    69    2
    11    88    87    2
    12    69    77   am
    13    92    90   ar
    14    51    50    2
    15    77    78    1
    16    90    91   ar
    17    87    93   am
    18    78    81    1
    19    71    72    1
    20    59    60    1
    21    55    57   ar
    22    55    53   ar
    23    96    95    2
    24    57    58   ar
    25    50    49    1
    26    81    82    1
    27    95    94    1
    28    93    94    1
    29    52    49    1
    30    52    53    1
    31    49    48    1
    32    94    97    1
    33    53    54   ar
    34    72    73   ar
    35    72    74   ar
    36    60    61    1
    37    60    63    1
    38    61    62    2
    39    73    75   ar
    40    58    56   ar
    41    82    84   ar
    42    82    83   ar
    43    74    76   ar
    44    54    56   ar
    45    63    64    1
    46    75    76   ar
    47    64    65    1
    48    65    66    1
    49   141   140    2
    50   118   119   ar
    51   118   116   ar
    52   119   117   ar
    53   138   139    1
    54   145   143    1
    55   140   139    1
    56   142   139    1
    57   142   143    1
    58   116   114   ar
    59   117   115   ar
    60   143   144    1
    61   127   129   ar
    62   127   125   ar
    63    43    42    2
    64   129   128   ar
    65   125   124    1
    66   125   126   ar
    67   124   121    1
    68    42    41    1
    69   114   115   ar
    70   114   113    1
    71   128   126   ar
    72    46    44    1
    73   123   122    2
    74    37    36    2
    75   122   121    1
    76   133   132    2
    77   107   105   ar
    78   107   108   ar
    79   121   120    1
    80   113   110    1
    81    41    44    1
    82    41    40    1
    83   132   131    1
    84   112   111    2
    85    44    45    1
    86   105   103   ar
    87    38    39    1
    88    38    35    1
    89   111   110    1
    90    36    35    1
    91   108   106   ar
    92   110   109    1
    93    35    34    1
    94   134   131    1
    95   134   135    1
    96   131   130    1
    97   137   136    1
    98   103   102    1
    99   103   104   ar
   100    45    47    1
   101   136   135    1
   102   106   104   ar
   103   102    99    1
   104    24    23    1
   105   100   101    2
   106   100    99    1
   107    12    10   ar
   108    12    14   ar
   109     9    10   ar
   110     9     7   ar
   111    32    30    1
   112    25    23    1
   113    99    98    1
   114    10     8   ar
   115    23    22    2
   116    14    13   ar
   117    29    28    2
   118     7     6   ar
   119    28    27    1
   120     8     6   ar
   121     8    11   ar
   122    30    27    1
   123    30    31    1
   124     6     5    1
   125    13    11   ar
   126    33    31    1
   127    22    21    1
   128    21    20    1
   129    27    26    1
   130     5     2    1
   131    20    19    1
   132    19    16    1
   133     2     3    1
   134     2     1    1
   135     3     4    2
   136    15    16    1
   137    18    17    2
   138    16    17    1
