@<TRIPOS>MOLECULE
tmp/4kiiA00.pdb
 196 176 0 0 0
SMALL
GASTEIGER

@<TRIPOS>ATOM
      1  N         49.2980   37.9620  101.4550 N.3    11  ILE11      -0.1245
      2  CA        47.9420   37.8000  101.9960 C.3    11  ILE11       0.1561
      3  C         47.3910   36.3830  101.8120 C.2    11  ILE11       0.2260
      4  O         46.5050   35.9630  102.5550 O.2    11  ILE11      -0.2867
      5  CB        46.9630   38.8780  101.4420 C.3    11  ILE11       0.0252
      6  CG1       45.7260   39.0220  102.3390 C.3    11  ILE11       0.0019
      7  CG2       46.5620   38.5670  100.0180 C.3    11  ILE11       0.0019
      8  CD1       46.0420   39.4380  103.7610 C.3    11  ILE11       0.0001
      9  N         47.7020   34.1040  104.9990 N.3    14  VAL14      -0.1245
     10  CA        46.9310   34.3100  106.2360 C.3    14  VAL14       0.1561
     11  C         45.6030   33.5600  106.1770 C.2    14  VAL14       0.2260
     12  O         44.8020   33.5980  107.1180 O.2    14  VAL14      -0.2867
     13  CB        46.6880   35.7970  106.5620 C.3    14  VAL14       0.0252
     14  CG1       47.9970   36.5730  106.4820 C.3    14  VAL14       0.0019
     15  CG2       45.6420   36.3990  105.6170 C.3    14  VAL14       0.0019
     16  N         29.6720   47.3190  118.9860 N.3    37  PRO37      -0.2102
     17  CA        29.7680   47.2030  117.5260 C.3    37  PRO37       0.1504
     18  C         31.0820   46.5960  117.0360 C.2    37  PRO37       0.2575
     19  O         31.0830   45.9200  116.0030 O.2    37  PRO37      -0.2718
     20  CB        29.6440   48.6590  117.0440 C.3    37  PRO37       0.0282
     21  CG        30.0110   49.4990  118.2240 C.3    37  PRO37       0.0208
     22  CD        29.5440   48.7210  119.4260 C.3    37  PRO37       0.0893
     23  N         32.1760   46.8290  117.7580 N.am   38  LEU38      -0.1980
     24  CA        33.4860   46.3690  117.2990 C.3    38  LEU38       0.1596
     25  C         33.9840   45.1760  118.0800 C.2    38  LEU38       0.2287
     26  O         35.1550   44.7770  117.9470 O.2    38  LEU38      -0.2864
     27  CB        34.5230   47.4910  117.3490 C.3    38  LEU38       0.0297
     28  CG        34.5490   48.4230  116.1370 C.3    38  LEU38       0.0022
     29  CD1       34.6540   47.6140  114.8700 C.3    38  LEU38       0.0001
     30  CD2       33.3090   49.2900  116.0950 C.3    38  LEU38       0.0001
     31  N         34.1340   41.7180  117.9940 N.3    40  VAL40      -0.1245
     32  CA        33.9200   40.6750  116.9980 C.3    40  VAL40       0.1561
     33  C         34.9340   39.5700  117.1960 C.2    40  VAL40       0.2260
     34  O         36.0510   39.8070  117.6600 O.2    40  VAL40      -0.2867
     35  CB        34.0020   41.2260  115.5610 C.3    40  VAL40       0.0252
     36  CG1       32.8610   42.2080  115.3020 C.3    40  VAL40       0.0019
     37  CG2       35.3510   41.9030  115.3240 C.3    40  VAL40       0.0019
     38  N         36.9590   36.6570  115.3240 N.3    42  VAL42      -0.1245
     39  CA        37.3420   36.2020  113.9950 C.3    42  VAL42       0.1561
     40  C         37.3060   34.6830  113.9260 C.2    42  VAL42       0.2260
     41  O         37.7040   34.0050  114.8900 O.2    42  VAL42      -0.2867
     42  CB        38.7340   36.7150  113.6090 C.3    42  VAL42       0.0252
     43  CG1       39.1660   36.1300  112.2650 C.3    42  VAL42       0.0019
     44  CG2       38.7160   38.2330  113.5300 C.3    42  VAL42       0.0019
     45  N         39.9690   33.5360  107.7390 N.3    45  LEU45      -0.1245
     46  CA        40.3180   34.5250  106.7270 C.3    45  LEU45       0.1561
     47  C         40.4010   33.8210  105.3890 C.2    45  LEU45       0.2260
     48  O         40.9920   32.7360  105.2720 O.2    45  LEU45      -0.2867
     49  CB        41.6290   35.2360  107.0660 C.3    45  LEU45       0.0270
     50  CG        41.6520   36.0170  108.3780 C.3    45  LEU45       0.0019
     51  CD1       43.0050   36.7060  108.5780 C.3    45  LEU45       0.0001
     52  CD2       40.5280   37.0440  108.3970 C.3    45  LEU45       0.0001
     53  N         40.2140   40.3940  100.8860 N.3    53  LEU53      -0.1245
     54  CA        40.1980   39.5290  102.0520 C.3    53  LEU53       0.1561
     55  C         38.7880   39.3850  102.6100 C.2    53  LEU53       0.2260
     56  O         38.2830   40.3070  103.2540 O.2    53  LEU53      -0.2867
     57  CB        41.1130   40.1180  103.1310 C.3    53  LEU53       0.0270
     58  CG        41.3040   39.3460  104.4280 C.3    53  LEU53       0.0019
     59  CD1       41.9240   37.9940  104.1460 C.3    53  LEU53       0.0001
     60  CD2       42.1610   40.1600  105.3820 C.3    53  LEU53       0.0001
     61  N         36.2760   37.9590  105.3870 N.3    55  ILE55      -0.1245
     62  CA        36.4880   37.6270  106.7790 C.3    55  ILE55       0.1561
     63  C         35.2170   36.9810  107.3020 C.2    55  ILE55       0.2260
     64  O         34.1160   37.5180  107.1190 O.2    55  ILE55      -0.2867
     65  CB        36.7720   38.8910  107.5840 C.3    55  ILE55       0.0252
     66  CG1       38.0070   39.6070  107.0160 C.3    55  ILE55       0.0019
     67  CG2       36.9660   38.5460  109.0570 C.3    55  ILE55       0.0019
     68  CD1       37.9140   41.1150  107.0360 C.3    55  ILE55       0.0001
     69  N         33.3510   35.9320  110.7420 N.3    57  LEU57      -0.1245
     70  CA        33.4370   36.2580  112.1660 C.3    57  LEU57       0.1561
     71  C         32.0920   36.0290  112.8470 C.2    57  LEU57       0.2260
     72  O         31.0820   35.7960  112.1740 O.2    57  LEU57      -0.2867
     73  CB        33.8990   37.7080  112.3690 C.3    57  LEU57       0.0270
     74  CG        33.0550   38.8590  111.8020 C.3    57  LEU57       0.0019
     75  CD1       31.9960   39.3030  112.7950 C.3    57  LEU57       0.0001
     76  CD2       33.9300   40.0350  111.4230 C.3    57  LEU57       0.0001
     77  N         29.4620   37.8060  115.9420 N.3    59  LYS59      -0.1245
     78  CA        29.2000   38.9840  116.7370 C.3    59  LYS59       0.1561
     79  C         27.9630   38.7180  117.5690 C.2    59  LYS59       0.2260
     80  O         27.0280   38.0630  117.0990 O.2    59  LYS59      -0.2867
     81  CB        28.9600   40.1850  115.8200 C.3    59  LYS59       0.0271
     82  CG        29.0690   41.4870  116.5500 C.3    59  LYS59       0.0035
     83  CD        28.6370   42.6580  115.7180 C.3    59  LYS59       0.0206
     84  CE        28.5800   43.8700  116.6210 C.3    59  LYS59       0.1093
     85  NZ        28.2220   43.4480  118.0080 N.3    59  LYS59      -0.1314
     86  N         24.6410   39.8990  118.6440 N.3    61  GLU61      -0.1245
     87  CA        23.6710   40.8500  118.1210 C.3    61  GLU61       0.1567
     88  C         22.2770   40.4030  118.5070 C.2    61  GLU61       0.2260
     89  O         21.8560   39.3130  118.1220 O.2    61  GLU61      -0.2867
     90  CB        23.7470   40.9240  116.5940 C.3    61  GLU61       0.0388
     91  CG        24.7520   41.9190  116.0570 C.3    61  GLU61       0.1160
     92  CD        24.5840   42.1540  114.5720 C.2    61  GLU61       0.3649
     93  OE1       23.6170   41.6150  113.9890 O.co2  61  GLU61      -0.2457
     94  OE2       25.4130   42.8830  113.9910 O.co2  61  GLU61      -0.2457
     95  N         28.7960   36.6520  110.7840 N.3    68  LYS68      -0.1245
     96  CA        28.9010   37.7170  109.8030 C.3    68  LYS68       0.1561
     97  C         29.9800   37.3270  108.8060 C.2    68  LYS68       0.2260
     98  O         30.9300   36.6130  109.1440 O.2    68  LYS68      -0.2867
     99  CB        29.2610   39.0540  110.4660 C.3    68  LYS68       0.0271
    100  CG        28.3230   39.4990  111.5900 C.3    68  LYS68       0.0035
    101  CD        26.9480   39.8750  111.0680 C.3    68  LYS68       0.0206
    102  CE        27.0310   41.0620  110.1240 C.3    68  LYS68       0.1093
    103  NZ        25.7540   41.2850  109.3800 N.3    68  LYS68      -0.1314
    104  N         32.2400   39.4440  105.9430 N.3    70  ILE70      -0.1245
    105  CA        32.5180   40.7520  105.3630 C.3    70  ILE70       0.1561
    106  C         33.7450   40.7110  104.4620 C.2    70  ILE70       0.2260
    107  O         34.5730   39.8040  104.5620 O.2    70  ILE70      -0.2867
    108  CB        32.7510   41.7980  106.4490 C.3    70  ILE70       0.0252
    109  CG1       33.9290   41.3760  107.3160 C.3    70  ILE70       0.0019
    110  CG2       31.4920   41.9880  107.3000 C.3    70  ILE70       0.0019
    111  CD1       34.1680   42.2920  108.4640 C.3    70  ILE70       0.0001
    112  N         37.2860   48.5840  104.3830 N.3    83  ILE83      -0.1231
    113  CA        35.9320   48.0790  104.5280 C.3    83  ILE83       0.1692
    114  C         34.9360   49.1760  104.1550 C.2    83  ILE83       0.2592
    115  O         34.8970   50.2380  104.7820 O.2    83  ILE83      -0.2718
    116  CB        35.6750   47.5450  105.9440 C.3    83  ILE83       0.0266
    117  CG1       36.5380   46.3070  106.1910 C.3    83  ILE83       0.0019
    118  CG2       34.2120   47.1930  106.1300 C.3    83  ILE83       0.0020
    119  CD1       36.2050   45.5790  107.4740 C.3    83  ILE83       0.0001
    120  N         34.1450   48.9210  103.1200 N.am   84  ASP84      -0.1960
    121  CA        33.1420   49.8850  102.6790 C.3    84  ASP84       0.1840
    122  C         32.0710   50.0490  103.7520 C.2    84  ASP84       0.2621
    123  O         31.4410   49.0780  104.1670 O.2    84  ASP84      -0.2715
    124  CB        32.5100   49.4450  101.3540 C.3    84  ASP84       0.1450
    125  CG        31.7160   50.5590  100.6780 C.2    84  ASP84       0.3671
    126  OD1       31.9890   51.7510  100.9460 O.co2  84  ASP84      -0.2456
    127  OD2       30.8200   50.2420   99.8660 O.co2  84  ASP84      -0.2456
    128  N         31.8890   51.2830  104.2120 N.am   85  ALA85      -0.1977
    129  CA        30.8660   51.5970  105.2060 C.3    85  ALA85       0.1597
    130  C         30.4150   53.0460  105.0590 C.2    85  ALA85       0.2287
    131  O         30.7590   53.7060  104.0790 O.2    85  ALA85      -0.2864
    132  CB        31.3930   51.3390  106.6090 C.3    85  ALA85       0.0319
    133  N         36.9210   53.0630  106.5610 N.3    89  ASN89      -0.1240
    134  CA        37.6710   52.4570  107.6490 C.3    89  ASN89       0.1653
    135  C         38.7520   51.5620  107.0830 C.2    89  ASN89       0.2266
    136  O         38.4910   50.7730  106.1740 O.2    89  ASN89      -0.2867
    137  CB        36.7460   51.6420  108.5500 C.3    89  ASN89       0.1155
    138  CG        35.7130   52.5010  109.2610 C.2    89  ASN89       0.2627
    139  OD1       36.0460   53.5150  109.8790 O.2    89  ASN89      -0.2716
    140  ND2       34.4500   52.1000  109.1730 N.am   89  ASN89      -0.0877
    141  N         41.7090   48.5970  107.4690 N.3    91  VAL91      -0.1245
    142  CA        42.1880   47.4460  108.2110 C.3    91  VAL91       0.1561
    143  C         43.6760   47.3410  107.9040 C.2    91  VAL91       0.2260
    144  O         44.0730   47.3320  106.7440 O.2    91  VAL91      -0.2867
    145  CB        41.4690   46.1680  107.7560 C.3    91  VAL91       0.0252
    146  CG1       42.1320   44.9340  108.3640 C.3    91  VAL91       0.0019
    147  CG2       40.0090   46.2360  108.1460 C.3    91  VAL91       0.0019
    148  N         47.2860   45.1660  108.6090 N.3    93  VAL93      -0.1245
    149  CA        48.0300   44.0530  109.2060 C.3    93  VAL93       0.1561
    150  C         49.3360   44.6020  109.7680 C.2    93  VAL93       0.2260
    151  O         50.1730   45.0920  109.0270 O.2    93  VAL93      -0.2867
    152  CB        48.3290   42.9480  108.1890 C.3    93  VAL93       0.0252
    153  CG1       49.0280   41.7690  108.8770 C.3    93  VAL93       0.0019
    154  CG2       47.0420   42.4870  107.5580 C.3    93  VAL93       0.0019
    155  N         48.7270   36.7410  114.1810 N.3   102  LEU102     -0.1245
    156  CA        48.5370   37.8710  113.2980 C.3   102  LEU102      0.1561
    157  C         47.9720   39.0160  114.1110 C.2   102  LEU102      0.2260
    158  O         47.0350   38.8460  114.8980 O.2   102  LEU102     -0.2867
    159  CB        47.5950   37.5000  112.1370 C.3   102  LEU102      0.0270
    160  CG        47.4870   38.5800  111.0470 C.3   102  LEU102      0.0019
    161  CD1       47.2290   37.9290  109.6820 C.3   102  LEU102      0.0001
    162  CD2       46.3700   39.5990  111.3700 C.3   102  LEU102      0.0001
    163  N         46.2930   42.8010  113.9090 N.3   104  PHE104     -0.1241
    164  CA        45.6890   43.7640  112.9920 C.3   104  PHE104      0.1605
    165  C         44.9620   44.8290  113.7680 C.2   104  PHE104      0.2264
    166  O         44.5860   44.6410  114.9290 O.2   104  PHE104     -0.2867
    167  CB        44.7040   43.0960  112.0300 C.3   104  PHE104      0.0534
    168  CG        43.3750   42.7580  112.6620 C.ar  104  PHE104     -0.0203
    169  CD1       43.1550   41.5030  113.2260 C.ar  104  PHE104     -0.0042
    170  CD2       42.3390   43.6880  112.6930 C.ar  104  PHE104     -0.0042
    171  CE1       41.9330   41.1780  113.7960 C.ar  104  PHE104     -0.0003
    172  CE2       41.1160   43.3780  113.2900 C.ar  104  PHE104     -0.0003
    173  CZ        40.9100   42.1190  113.8460 C.ar  104  PHE104     -0.0000
    174  N         41.8200   48.0390  113.1620 N.3   106  MET106     -0.1245
    175  CA        40.8830   48.7200  112.2720 C.3   106  MET106      0.1570
    176  C         40.7220   50.1520  112.7620 C.2   106  MET106      0.2261
    177  O         40.4590   50.3870  113.9430 O.2   106  MET106     -0.2867
    178  CB        39.5240   48.0200  112.2530 C.3   106  MET106      0.0387
    179  CG        38.6910   48.3870  111.0280 C.3   106  MET106      0.0595
    180  SD        36.9740   47.8980  111.2290 S.3   106  MET106     -0.1393
    181  CE        36.2550   48.4150  109.6700 C.3   106  MET106      0.0692
    182  N         40.3910   49.8340  116.8740 N.3   112  VAL112     -0.1245
    183  CA        40.2500   48.5370  117.5280 C.3   112  VAL112      0.1561
    184  C         41.2970   47.5970  116.9550 C.2   112  VAL112      0.2260
    185  O         41.5130   47.5540  115.7490 O.2   112  VAL112     -0.2867
    186  CB        38.8300   47.9400  117.3660 C.3   112  VAL112      0.0252
    187  CG1       38.4680   47.7630  115.9000 C.3   112  VAL112      0.0019
    188  CG2       38.7140   46.6200  118.1180 C.3   112  VAL112      0.0019
    189  N         45.3850   37.8160  116.8220 N.3   116  LEU116     -0.1245
    190  CA        44.8550   36.5340  116.3540 C.3   116  LEU116      0.1561
    191  C         45.9020   35.4380  116.5090 C.2   116  LEU116      0.2260
    192  O         47.0850   35.6870  116.3040 O.2   116  LEU116     -0.2867
    193  CB        44.4850   36.6230  114.8700 C.3   116  LEU116      0.0270
    194  CG        43.4790   37.7120  114.5030 C.3   116  LEU116      0.0019
    195  CD1       43.1430   37.6150  113.0140 C.3   116  LEU116      0.0001
    196  CD2       42.2230   37.5920  115.3540 C.3   116  LEU116      0.0001
@<TRIPOS>BOND
     1   127   125   ar
     2     7     5    1
     3   125   126   ar
     4   125   124    1
     5    53    54    1
     6   124   121    1
     7     5     2    1
     8     5     6    1
     9     1     2    1
    10     3     2    1
    11     3     4    2
    12    54    55    1
    13    54    57    1
    14     6     8    1
    15    55    56    2
    16   121   120    1
    17   121   122    1
    18   120   114   am
    19    57    58    1
    20   122   123    2
    21   122   128   am
    22   131   130    2
    23    59    58    1
    24   114   113    1
    25   114   115    2
    26   128   129    1
    27   112   113    1
    28    58    60    1
    29   106   107    2
    30   106   105    1
    31   113   116    1
    32     9    10    1
    33   130   129    1
    34   129   132    1
    35    48    47    2
    36   105   104    1
    37   105   108    1
    38    61    62    1
    39    47    46    1
    40    15    13    1
    41   116   118    1
    42   116   117    1
    43   136   135    2
    44    11    10    1
    45    11    12    2
    46   117   119    1
    47    10    13    1
    48   108   110    1
    49   108   109    1
    50    14    13    1
    51   133   134    1
    52    46    49    1
    53    46    45    1
    54   144   143    2
    55    62    63    1
    56    62    65    1
    57    66    68    1
    58    66    65    1
    59    49    50    1
    60   135   134    1
    61    64    63    2
    62   109   111    1
    63   141   142    1
    64   154   152    1
    65    65    67    1
    66   134   137    1
    67   145   147    1
    68   145   142    1
    69   145   146    1
    70   143   142    1
    71   152   153    1
    72   152   149    1
    73    50    52    1
    74    50    51    1
    75   137   138    1
    76   148   149    1
    77    97    98    2
    78    97    96    1
    79   151   150    2
    80   140   138   am
    81   149   150    1
    82   138   139    2
    83   103   102    1
    84   181   180    1
    85   161   160    1
    86    96    99    1
    87    96    95    1
    88   102   101    1
    89    99   100    1
    90    69    70    1
    91   179   180    1
    92   179   178    1
    93   160   162    1
    94   160   159    1
    95   101   100    1
    96    76    74    1
    97    74    73    1
    98    74    75    1
    99   167   168    1
   100   167   164    1
   101   159   156    1
   102    70    73    1
   103    70    71    1
   104    72    71    2
   105   178   175    1
   106    43    42    1
   107   175   176    1
   108   175   174    1
   109   168   170   ar
   110   168   169   ar
   111   170   172   ar
   112   176   177    2
   113   164   165    1
   114   164   163    1
   115   195   194    1
   116   169   171   ar
   117   172   173   ar
   118   156   157    1
   119   156   155    1
   120    44    42    1
   121    42    39    1
   122   165   166    2
   123   171   173   ar
   124    40    39    1
   125    40    41    2
   126    93    92   ar
   127    94    92   ar
   128    39    38    1
   129   157   158    2
   130   194   193    1
   131   194   196    1
   132    92    91    1
   133    29    28    1
   134   193   190    1
   135    36    35    1
   136    37    35    1
   137    35    32    1
   138    83    82    1
   139    83    84    1
   140   185   184    2
   141    81    82    1
   142    81    78    1
   143   187   186    1
   144    77    78    1
   145    19    18    2
   146    91    90    1
   147    30    28    1
   148    28    27    1
   149   192   191    2
   150   190   191    1
   151   190   189    1
   152    90    87    1
   153    84    85    1
   154    78    79    1
   155   182   183    1
   156   184   183    1
   157    32    33    1
   158    32    31    1
   159    18    17    1
   160    18    23   am
   161    20    17    1
   162    20    21    1
   163    80    79    2
   164    33    34    2
   165    24    27    1
   166    24    23    1
   167    24    25    1
   168   186   183    1
   169   186   188    1
   170    17    16    1
   171    26    25    2
   172    87    88    1
   173    87    86    1
   174    89    88    2
   175    21    22    1
   176    16    22    1
