@<TRIPOS>MOLECULE
tmp/4kikB00.pdb
 177 164 0 0 0
SMALL
GASTEIGER

@<TRIPOS>ATOM
      1  N        -11.0100  -34.0790  -68.1570 N.3    21  LEU21      -0.1231
      2  CA       -10.9090  -33.1260  -69.2520 C.3    21  LEU21       0.1693
      3  C        -11.8650  -31.9490  -69.0010 C.2    21  LEU21       0.2593
      4  O        -11.5030  -30.8130  -69.3230 O.2    21  LEU21      -0.2718
      5  CB       -11.1420  -33.8250  -70.5930 C.3    21  LEU21       0.0284
      6  CG       -10.0850  -34.9190  -70.9410 C.3    21  LEU21       0.0019
      7  CD1      -10.4630  -35.6650  -72.1480 C.3    21  LEU21       0.0001
      8  CD2       -8.7130  -34.3470  -71.1530 C.3    21  LEU21       0.0001
      9  N        -12.9900  -32.1990  -68.3070 N.am   22  GLY22      -0.1942
     10  CA       -13.9400  -31.1560  -67.9080 C.3    22  GLY22       0.2014
     11  C        -13.3640  -30.1370  -66.9300 C.2    22  GLY22       0.2639
     12  O        -12.1840  -30.2180  -66.5720 O.2    22  GLY22      -0.2714
     13  N        -14.1920  -29.1880  -66.4580 N.am   23  THR23      -0.1950
     14  CA       -13.7270  -28.1470  -65.5240 C.3    23  THR23       0.1897
     15  C        -14.4110  -28.2700  -64.1310 C.2    23  THR23       0.2313
     16  O        -13.7110  -28.2990  -63.1150 O.2    23  THR23      -0.2863
     17  CB       -13.8520  -26.7310  -66.1380 C.3    23  THR23       0.1794
     18  OG1      -13.6930  -25.7400  -65.1170 O.3    23  THR23      -0.2208
     19  CG2      -15.1530  -26.5060  -66.9270 C.3    23  THR23       0.0378
     20  N        -16.9500  -35.9260  -65.5790 N.3    28  ASN28      -0.1225
     21  CA       -17.6560  -36.7770  -66.5300 C.3    28  ASN28       0.1785
     22  C        -16.8150  -37.2310  -67.7000 C.2    28  ASN28       0.2597
     23  O        -17.0170  -38.3690  -68.1410 O.2    28  ASN28      -0.2718
     24  CB       -18.9180  -36.1200  -67.0570 C.3    28  ASN28       0.1169
     25  CG       -18.7210  -34.8740  -67.8400 C.2    28  ASN28       0.2627
     26  OD1      -18.0820  -33.9050  -67.4030 O.2    28  ASN28      -0.2716
     27  ND2      -19.3700  -34.8370  -68.9830 N.am   28  ASN28      -0.0877
     28  N        -15.8870  -36.3760  -68.1960 N.am   29  VAL29      -0.1980
     29  CA       -14.9820  -36.7320  -69.2930 C.3    29  VAL29       0.1595
     30  C        -13.5410  -36.8250  -68.7290 C.2    29  VAL29       0.2287
     31  O        -13.0460  -35.8650  -68.1320 O.2    29  VAL29      -0.2864
     32  CB       -15.0790  -35.7850  -70.5180 C.3    29  VAL29       0.0276
     33  CG1      -14.2130  -36.2890  -71.6770 C.3    29  VAL29       0.0022
     34  CG2      -16.5250  -35.6280  -70.9660 C.3    29  VAL29       0.0022
     35  N        -10.6470  -40.2230  -74.8570 N.3    42  ALA42      -0.1245
     36  CA       -11.4750  -39.4530  -73.9110 C.3    42  ALA42       0.1562
     37  C        -12.7310  -40.3010  -73.5630 C.2    42  ALA42       0.2260
     38  O        -13.3780  -40.8120  -74.4880 O.2    42  ALA42      -0.2867
     39  CB       -11.8620  -38.1100  -74.5230 C.3    42  ALA42       0.0290
     40  N        -16.4990  -40.3890  -71.8970 N.3    44  LYS44      -0.1245
     41  CA       -17.6230  -39.7340  -71.2690 C.3    44  LYS44       0.1561
     42  C        -18.4390  -40.8190  -70.5700 C.2    44  LYS44       0.2260
     43  O        -18.7360  -41.8610  -71.1640 O.2    44  LYS44      -0.2867
     44  CB       -18.4640  -38.9130  -72.2630 C.3    44  LYS44       0.0271
     45  CG       -19.4150  -37.9550  -71.5260 C.3    44  LYS44       0.0035
     46  CD       -20.0080  -36.8820  -72.3900 C.3    44  LYS44       0.0206
     47  CE       -21.4770  -36.7600  -72.0990 C.3    44  LYS44       0.1093
     48  NZ       -22.1160  -35.6350  -72.8280 N.3    44  LYS44      -0.1314
     49  N        -28.0070  -39.9440  -76.9140 N.3    61  GLU61      -0.1245
     50  CA       -26.6850  -39.3890  -77.2050 C.3    61  GLU61       0.1567
     51  C        -25.7620  -40.4560  -77.8000 C.2    61  GLU61       0.2260
     52  O        -25.1270  -40.1980  -78.8230 O.2    61  GLU61      -0.2867
     53  CB       -26.0570  -38.8110  -75.9320 C.3    61  GLU61       0.0388
     54  CG       -24.7210  -38.1250  -76.1850 C.3    61  GLU61       0.1160
     55  CD       -23.8820  -37.6760  -75.0010 C.2    61  GLU61       0.3649
     56  OE1      -24.4600  -37.4560  -73.9130 O.co2  61  GLU61      -0.2457
     57  OE2      -22.6670  -37.4310  -75.1970 O.co2  61  GLU61      -0.2457
     58  N        -16.0800  -35.0220  -83.4690 N.3    74  VAL74      -0.1245
     59  CA       -15.3630  -36.0770  -82.7490 C.3    74  VAL74       0.1561
     60  C        -16.2110  -37.3530  -82.7930 C.2    74  VAL74       0.2260
     61  O        -17.3660  -37.3830  -82.3420 O.2    74  VAL74      -0.2867
     62  CB       -14.9330  -35.6800  -81.3180 C.3    74  VAL74       0.0252
     63  CG1      -14.4460  -36.8820  -80.5100 C.3    74  VAL74       0.0019
     64  CG2      -13.8400  -34.6270  -81.3690 C.3    74  VAL74       0.0019
     65  N        -18.9340  -43.5950  -73.4170 N.3    94  LEU94      -0.1245
     66  CA       -18.7040  -42.9800  -74.7070 C.3    94  LEU94       0.1561
     67  C        -17.2070  -42.7880  -74.8720 C.2    94  LEU94       0.2260
     68  O        -16.6320  -41.8560  -74.2970 O.2    94  LEU94      -0.2867
     69  CB       -19.4790  -41.6510  -74.8580 C.3    94  LEU94       0.0270
     70  CG       -19.3420  -40.8880  -76.1820 C.3    94  LEU94       0.0019
     71  CD1      -19.6770  -41.7800  -77.3870 C.3    94  LEU94       0.0001
     72  CD2      -20.1740  -39.5880  -76.1530 C.3    94  LEU94       0.0001
     73  N        -14.1180  -41.7010  -77.0350 N.3    96  MET96      -0.1230
     74  CA       -13.8770  -40.7540  -78.1310 C.3    96  MET96       0.1702
     75  C        -12.3890  -40.5250  -78.3360 C.2    96  MET96       0.2595
     76  O        -11.5890  -40.7800  -77.4340 O.2    96  MET96      -0.2718
     77  CB       -14.5360  -39.3960  -77.8390 C.3    96  MET96       0.0401
     78  CG       -16.0340  -39.4430  -77.7410 C.3    96  MET96       0.0596
     79  SD       -16.6220  -38.0690  -76.7720 S.3    96  MET96      -0.1393
     80  CE       -16.0040  -38.5320  -75.1010 C.3    96  MET96       0.0692
     81  N        -12.0230  -39.9760  -79.5010 N.am   97  GLU97      -0.1920
     82  CA       -10.6380  -39.6110  -79.8000 C.3    97  GLU97       0.1949
     83  C        -10.2040  -38.4530  -78.8730 C.2    97  GLU97       0.2659
     84  O        -11.0230  -37.5970  -78.5220 O.2    97  GLU97      -0.2711
     85  CB       -10.4690  -39.2340  -81.3080 C.2    97  GLU97       0.0111
     86  CG       -10.6710  -37.7680  -81.6840 C.2    97  GLU97       0.0838
     87  CD       -10.9090  -37.4680  -83.1490 C.2    97  GLU97       0.3877
     88  OE1      -12.0940  -37.3140  -83.5220 O.co2  97  GLU97      -0.2406
     89  OE2       -9.9240  -37.3760  -83.9210 O.co2  97  GLU97      -0.2406
     90  N         -8.9240  -38.4350  -78.4800 N.am   98  TYR98      -0.1957
     91  CA        -8.3880  -37.3400  -77.6780 C.3    98  TYR98       0.1771
     92  C         -7.7870  -36.2960  -78.6220 C.2    98  TYR98       0.2619
     93  O         -6.9970  -36.6250  -79.5020 O.2    98  TYR98      -0.2715
     94  CB        -7.3740  -37.8110  -76.6260 C.3    98  TYR98       0.0574
     95  CG        -6.7060  -36.6690  -75.8920 C.ar   98  TYR98      -0.0198
     96  CD1       -5.3410  -36.4170  -76.0470 C.ar   98  TYR98      -0.0009
     97  CD2       -7.4370  -35.8190  -75.0700 C.ar   98  TYR98      -0.0009
     98  CE1       -4.7230  -35.3480  -75.3990 C.ar   98  TYR98       0.0417
     99  CE2       -6.8300  -34.7390  -74.4260 C.ar   98  TYR98       0.0417
    100  CZ        -5.4740  -34.5120  -74.5940 C.ar   98  TYR98       0.1957
    101  OH        -4.8790  -33.4550  -73.9670 O.3    98  TYR98      -0.2866
    102  N         -8.2070  -35.0480  -78.4640 N.am   99  CYS99      -0.1968
    103  CA        -7.7940  -33.9080  -79.2800 C.3    99  CYS99       0.1712
    104  C         -6.7660  -33.0800  -78.5030 C.2    99  CYS99       0.2296
    105  O         -7.1040  -32.3210  -77.5930 O.2    99  CYS99      -0.2864
    106  CB        -9.0130  -33.0870  -79.6990 C.3    99  CYS99       0.0983
    107  SG       -10.2690  -34.0390  -80.6050 S.3    99  CYS99      -0.0798
    108  N         -6.5240  -29.1620  -77.5300 N.3   102  GLY102     -0.1210
    109  CA        -7.3450  -28.7150  -76.4200 C.3   102  GLY102      0.1956
    110  C         -8.5660  -27.9710  -76.9020 C.2   102  GLY102      0.2611
    111  O         -8.7900  -27.8340  -78.1090 O.2   102  GLY102     -0.2717
    112  N         -9.3550  -27.4640  -75.9630 N.am  103  ASP103     -0.1973
    113  CA       -10.5840  -26.7470  -76.2890 C.3   103  ASP103      0.1709
    114  C        -10.3170  -25.2800  -76.7690 C.2   103  ASP103      0.2293
    115  O         -9.2390  -24.7170  -76.5520 O.2   103  ASP103     -0.2864
    116  CB       -11.5470  -26.7880  -75.0800 C.3   103  ASP103      0.1436
    117  CG       -11.0140  -26.1270  -73.8300 C.2   103  ASP103      0.3671
    118  OD1      -11.7110  -25.2510  -73.2920 O.co2 103  ASP103     -0.2456
    119  OD2       -9.8790  -26.4860  -73.3930 O.co2 103  ASP103     -0.2456
    120  N         -9.5860  -22.4080  -74.0090 N.3   106  LYS106     -0.1245
    121  CA        -8.1610  -22.3120  -73.6530 C.3   106  LYS106      0.1561
    122  C         -7.4380  -21.3450  -74.6100 C.2   106  LYS106      0.2260
    123  O         -6.6640  -20.5190  -74.1400 O.2   106  LYS106     -0.2867
    124  CB        -7.4950  -23.7190  -73.6840 C.3   106  LYS106      0.0271
    125  CG        -6.0030  -23.7450  -73.2940 C.3   106  LYS106      0.0035
    126  CD        -5.4970  -25.1710  -72.9970 C.3   106  LYS106      0.0206
    127  CE        -3.9970  -25.3450  -73.0420 C.3   106  LYS106      0.1093
    128  NZ        -3.6080  -26.6980  -72.5450 N.3   106  LYS106     -0.1314
    129  N        -20.6530  -23.8540  -78.0700 N.3   147  LYS147     -0.1245
    130  CA       -19.8370  -22.8380  -77.3780 C.3   147  LYS147      0.1561
    131  C        -18.3220  -23.1890  -77.4740 C.2   147  LYS147      0.2260
    132  O        -18.0120  -24.3320  -77.8190 O.2   147  LYS147     -0.2867
    133  CB       -20.2890  -22.7150  -75.8940 C.3   147  LYS147      0.0271
    134  CG       -20.0430  -23.9480  -75.0460 C.3   147  LYS147      0.0035
    135  CD       -20.8920  -23.9680  -73.8340 C.3   147  LYS147      0.0206
    136  CE       -20.6550  -25.2590  -73.0860 C.3   147  LYS147      0.1093
    137  NZ       -21.4070  -25.3220  -71.8060 N.3   147  LYS147     -0.1314
    138  N        -16.2070  -24.1700  -75.3160 N.3   149  GLU149     -0.1231
    139  CA       -15.9610  -25.3430  -74.4670 C.3   149  GLU149      0.1699
    140  C        -16.3540  -26.6340  -75.1800 C.2   149  GLU149      0.2592
    141  O        -15.9200  -27.7130  -74.7810 O.2   149  GLU149     -0.2718
    142  CB       -16.7470  -25.2260  -73.1560 C.3   149  GLU149      0.0402
    143  CG       -16.2220  -24.1440  -72.2270 C.3   149  GLU149      0.1161
    144  CD       -16.7470  -22.7330  -72.4040 C.2   149  GLU149      0.3649
    145  OE1      -17.3960  -22.4370  -73.4350 O.co2 149  GLU149     -0.2457
    146  OE2      -16.5010  -21.9150  -71.4890 O.co2 149  GLU149     -0.2457
    147  N        -17.1840  -26.5190  -76.2390 N.am  150  ASN150     -0.1974
    148  CA       -17.6810  -27.6540  -77.0110 C.3   150  ASN150      0.1688
    149  C        -17.0090  -27.7560  -78.3690 C.2   150  ASN150      0.2292
    150  O        -17.4730  -28.5010  -79.2350 O.2   150  ASN150     -0.2864
    151  CB       -19.1960  -27.5930  -77.1280 C.3   150  ASN150      0.1181
    152  CG       -19.8590  -28.1080  -75.8820 C.2   150  ASN150      0.2629
    153  OD1      -19.2100  -28.5170  -74.9030 O.2   150  ASN150     -0.2716
    154  ND2      -21.1670  -28.1580  -75.9030 N.am  150  ASN150     -0.0877
    155  N        -13.0730  -28.5250  -79.7670 N.3   152  VAL152     -0.1245
    156  CA       -11.7280  -28.9910  -79.4190 C.3   152  VAL152      0.1561
    157  C        -10.8940  -28.9910  -80.6890 C.2   152  VAL152      0.2260
    158  O        -11.4340  -29.0750  -81.7980 O.2   152  VAL152     -0.2867
    159  CB       -11.6580  -30.3480  -78.6590 C.3   152  VAL152      0.0252
    160  CG1      -12.0960  -30.1850  -77.2060 C.3   152  VAL152      0.0019
    161  CG2      -12.4600  -31.4450  -79.3640 C.3   152  VAL152      0.0019
    162  N        -17.8180  -31.3840  -80.1610 N.3   165  ILE165     -0.1231
    163  CA       -17.9920  -32.3760  -79.1230 C.3   165  ILE165      0.1692
    164  C        -19.3350  -32.1180  -78.4170 C.2   165  ILE165      0.2592
    165  O        -20.0590  -31.1800  -78.7740 O.2   165  ILE165     -0.2718
    166  CB       -16.7740  -32.4300  -78.1340 C.3   165  ILE165      0.0266
    167  CG1      -16.2190  -31.0510  -77.7610 C.3   165  ILE165      0.0019
    168  CG2      -15.6830  -33.2670  -78.7070 C.3   165  ILE165      0.0020
    169  CD1      -15.6990  -30.8980  -76.3510 C.3   165  ILE165      0.0001
    170  N        -19.6660  -32.9910  -77.4460 N.am  166  ASP166     -0.1974
    171  CA       -20.8190  -32.9450  -76.5430 C.3   166  ASP166      0.1709
    172  C        -22.1620  -32.8860  -77.2650 C.2   166  ASP166      0.2293
    173  O        -22.7120  -31.8100  -77.5090 O.2   166  ASP166     -0.2864
    174  CB       -20.7080  -31.7860  -75.5120 C.3   166  ASP166      0.1436
    175  CG       -21.6110  -31.9690  -74.2980 C.2   166  ASP166      0.3671
    176  OD1      -21.6670  -33.0860  -73.7650 O.co2 166  ASP166     -0.2456
    177  OD2      -22.2840  -30.9990  -73.9020 O.co2 166  ASP166     -0.2456
@<TRIPOS>BOND
     1    89    87   ar
     2    88    87   ar
     3    58    59    1
     4    87    86    1
     5    60    59    1
     6    60    61    2
     7    59    62    1
     8   158   157    2
     9    86    85    2
    10    64    62    1
    11    62    63    1
    12    85    82    1
    13   157   156    1
    14   107   106    1
    15   162   163    1
    16    82    81    1
    17    82    83    1
    18   155   156    1
    19   106   103    1
    20    93    92    2
    21    81    75   am
    22   156   159    1
    23   161   159    1
    24   103   104    1
    25   103   102    1
    26   150   149    2
    27   163   164    1
    28   163   166    1
    29    83    84    2
    30    83    90   am
    31    52    51    2
    32   165   164    2
    33   168   166    1
    34   159   160    1
    35    92   102   am
    36    92    91    1
    37   104   105    2
    38    90    91    1
    39   164   170   am
    40   149   148    1
    41    75    74    1
    42    75    76    2
    43   166   167    1
    44    74    77    1
    45    74    73    1
    46   111   110    2
    47   129   130    1
    48    77    78    1
    49   132   131    2
    50    51    50    1
    51   167   169    1
    52    78    79    1
    53    91    94    1
    54   108   109    1
    55   173   172    2
    56   131   130    1
    57   170   171    1
    58    71    70    1
    59   130   133    1
    60   172   171    1
    61    50    49    1
    62    50    53    1
    63   151   148    1
    64   151   152    1
    65   148   147    1
    66   110   109    1
    67   110   112   am
    68    79    80    1
    69   114   115    2
    70   114   113    1
    71    94    95    1
    72   171   174    1
    73   113   112    1
    74   113   116    1
    75   147   140   am
    76    54    53    1
    77    54    55    1
    78    70    72    1
    79    70    69    1
    80    96    95   ar
    81    96    98   ar
    82   154   152   am
    83   133   134    1
    84    95    97   ar
    85   152   153    2
    86   174   175    1
    87    98   100   ar
    88   138   139    1
    89    57    55   ar
    90   140   141    2
    91   140   139    1
    92   116   117    1
    93    97    99   ar
    94   134   135    1
    95    55    56   ar
    96    67    66    1
    97    67    68    2
    98    69    66    1
    99    35    36    1
   100    66    65    1
   101   122   123    2
   102   122   121    1
   103   100    99   ar
   104   100   101    1
   105    39    36    1
   106    38    37    2
   107   139   142    1
   108   175   177   ar
   109   175   176   ar
   110   120   121    1
   111    36    37    1
   112   135   136    1
   113   117   119   ar
   114   117   118   ar
   115   124   121    1
   116   124   125    1
   117   145   144   ar
   118   125   126    1
   119   142   143    1
   120   136   137    1
   121   127   126    1
   122   127   128    1
   123    48    47    1
   124   144   143    1
   125   144   146   ar
   126    46    47    1
   127    46    45    1
   128    44    45    1
   129    44    41    1
   130     7     6    1
   131    40    41    1
   132    33    32    1
   133    41    42    1
   134    43    42    2
   135     8     6    1
   136    34    32    1
   137     6     5    1
   138     5     2    1
   139    32    29    1
   140     4     3    2
   141    29    30    1
   142    29    28    1
   143     2     3    1
   144     2     1    1
   145     3     9   am
   146    27    25   am
   147    30    31    2
   148     9    10    1
   149    28    22   am
   150    23    22    2
   151    10    11    1
   152    25    26    2
   153    25    24    1
   154    22    21    1
   155    24    21    1
   156    11    12    2
   157    11    13   am
   158    19    17    1
   159    21    20    1
   160    13    14    1
   161    17    14    1
   162    17    18    1
   163    14    15    1
   164    15    16    2
