@<TRIPOS>MOLECULE
tmp/4kilA00.pdb
 142 132 0 0 0
SMALL
GASTEIGER

@<TRIPOS>ATOM
      1  N         13.3340   13.9280  -18.4070 N.3    25  ALA25      -0.1231
      2  CA        12.3000   14.8870  -18.0020 C.3    25  ALA25       0.1694
      3  C         12.1560   16.0100  -19.0560 C.2    25  ALA25       0.2591
      4  O         11.0590   16.3040  -19.5190 O.2    25  ALA25      -0.2718
      5  CB        12.6150   15.4730  -16.6390 C.3    25  ALA25       0.0304
      6  N         13.2690   16.6060  -19.4650 N.am   26  MET26      -0.1979
      7  CA        13.2180   17.6830  -20.4280 C.3    26  MET26       0.1605
      8  C         12.6100   17.2310  -21.7890 C.2    26  MET26       0.2287
      9  O         11.7540   17.9210  -22.3420 O.2    26  MET26      -0.2864
     10  CB        14.6180   18.3090  -20.5820 C.3    26  MET26       0.0413
     11  CG        15.0010   19.0510  -19.3400 C.3    26  MET26       0.0598
     12  SD        16.5020   19.9970  -19.4590 S.3    26  MET26      -0.1393
     13  CE        15.8830   21.4830  -20.2450 C.3    26  MET26       0.0692
     14  N          8.8250   16.8600  -21.7790 N.3    29  TYR29      -0.1241
     15  CA         8.0970   18.1310  -21.8750 C.3    29  TYR29       0.1605
     16  C          8.4880   18.9920  -23.0960 C.2    29  TYR29       0.2264
     17  O          8.0130   20.1150  -23.2390 O.2    29  TYR29      -0.2867
     18  CB         8.1810   18.8980  -20.5440 C.3    29  TYR29       0.0534
     19  CG         7.5480   18.1080  -19.3730 C.ar   29  TYR29      -0.0201
     20  CD1        6.1780   18.1710  -19.1130 C.ar   29  TYR29      -0.0009
     21  CD2        8.3250   17.2820  -18.5560 C.ar   29  TYR29      -0.0009
     22  CE1        5.6050   17.4420  -18.0620 C.ar   29  TYR29       0.0417
     23  CE2        7.7710   16.5580  -17.5100 C.ar   29  TYR29       0.0417
     24  CZ         6.4110   16.6390  -17.2660 C.ar   29  TYR29       0.1957
     25  OH         5.8620   15.9070  -16.2250 O.3    29  TYR29      -0.2866
     26  N         11.5700   20.1380  -24.1330 N.3    31  GLU31      -0.1245
     27  CA        12.6010   21.1700  -23.9940 C.3    31  GLU31       0.1567
     28  C         13.9830   20.5740  -24.1860 C.2    31  GLU31       0.2260
     29  O         14.2250   19.4520  -23.7880 O.2    31  GLU31      -0.2867
     30  CB        12.4930   21.8350  -22.6130 C.3    31  GLU31       0.0388
     31  CG        11.0920   22.3470  -22.3420 C.3    31  GLU31       0.1160
     32  CD        11.0590   23.4880  -21.3750 C.2    31  GLU31       0.3649
     33  OE1       12.1300   23.8560  -20.8550 O.co2  31  GLU31      -0.2457
     34  OE2        9.9600   24.0280  -21.1330 O.co2  31  GLU31      -0.2457
     35  N         18.2710   25.8860  -17.2940 N.3    39  LYS39      -0.1245
     36  CA        17.1350   25.1000  -16.8050 C.3    39  LYS39       0.1561
     37  C         17.5280   23.6450  -16.5040 C.2    39  LYS39       0.2260
     38  O         17.0870   23.0490  -15.5000 O.2    39  LYS39      -0.2867
     39  CB        15.9970   25.0950  -17.8190 C.3    39  LYS39       0.0271
     40  CG        14.6930   24.7100  -17.1780 C.3    39  LYS39       0.0035
     41  CD        13.5770   24.5790  -18.1700 C.3    39  LYS39       0.0206
     42  CE        12.9750   25.9180  -18.5080 C.3    39  LYS39       0.1093
     43  NZ        11.5940   25.6760  -18.9970 N.3    39  LYS39      -0.1314
     44  N         19.1720   23.5710  -13.2180 N.3    42  ALA42      -0.1231
     45  CA        18.2100   23.7570  -12.1540 C.3    42  ALA42       0.1694
     46  C         17.4730   22.4410  -11.9030 C.2    42  ALA42       0.2591
     47  O         17.1870   22.0740  -10.7550 O.2    42  ALA42      -0.2718
     48  CB        17.2030   24.8300  -12.5350 C.3    42  ALA42       0.0304
     49  N         17.1630   21.7350  -12.9810 N.am   43  ILE43      -0.1980
     50  CA        16.4060   20.4790  -12.8920 C.3    43  ILE43       0.1595
     51  C         17.2480   19.4200  -12.1970 C.2    43  ILE43       0.2287
     52  O         16.7540   18.7030  -11.3040 O.2    43  ILE43      -0.2864
     53  CB        15.9550   19.9990  -14.2770 C.3    43  ILE43       0.0276
     54  CG1       14.8390   20.9270  -14.8000 C.3    43  ILE43       0.0022
     55  CG2       15.4860   18.5520  -14.2630 C.3    43  ILE43       0.0022
     56  CD1       14.5570   20.7470  -16.2840 C.3    43  ILE43       0.0001
     57  N         17.4800   20.3700   -8.4010 N.3    46  HIS46      -0.1241
     58  CA        16.2490   20.0430   -7.7060 C.3    46  HIS46       0.1621
     59  C         16.0870   18.5290   -7.5240 C.2    46  HIS46       0.2264
     60  O         15.7180   18.0730   -6.4250 O.2    46  HIS46      -0.2867
     61  CB        15.0630   20.7030   -8.4090 C.3    46  HIS46       0.0745
     62  CG        13.7080   20.2880   -7.9020 C.ar   46  HIS46       0.0817
     63  ND1       13.0670   19.1620   -8.3730 N.ar   46  HIS46      -0.2268
     64  CD2       12.8600   20.8480   -7.0060 C.ar   46  HIS46       0.1154
     65  CE1       11.8840   19.0470   -7.7950 C.ar   46  HIS46       0.1986
     66  NE2       11.7190   20.0660   -6.9740 N.ar   46  HIS46      -0.2212
     67  N          9.3250   12.7850   -7.9560 N.3    85  GLU85      -0.1245
     68  CA        10.0900   13.5270   -8.9620 C.3    85  GLU85       0.1567
     69  C         11.0590   12.5730   -9.6220 C.2    85  GLU85       0.2260
     70  O         11.5700   11.6410   -8.9900 O.2    85  GLU85      -0.2867
     71  CB        10.8370   14.6680   -8.3090 C.3    85  GLU85       0.0388
     72  CG        11.5660   15.5950   -9.2250 C.3    85  GLU85       0.1160
     73  CD        10.6330   16.2970  -10.2170 C.2    85  GLU85       0.3649
     74  OE1       10.0060   17.3200   -9.8500 O.co2  85  GLU85      -0.2457
     75  OE2       10.4830   15.7500  -11.3360 O.co2  85  GLU85      -0.2457
     76  N          1.5840   16.8870   -9.5070 N.3   111  LEU111     -0.1245
     77  CA         2.5390   15.9540   -8.9200 C.3   111  LEU111      0.1561
     78  C          3.4330   16.6640   -7.8870 C.2   111  LEU111      0.2260
     79  O          4.0680   17.6730   -8.2240 O.2   111  LEU111     -0.2867
     80  CB         3.4310   15.3600   -9.9970 C.3   111  LEU111      0.0270
     81  CG         2.7390   14.3940  -10.9490 C.3   111  LEU111      0.0019
     82  CD1        3.6590   14.0260  -12.1070 C.3   111  LEU111      0.0001
     83  CD2        2.3200   13.1630  -10.2220 C.3   111  LEU111      0.0001
     84  N          6.7700   16.1800   -5.0260 N.3   113  ASP113     -0.1239
     85  CA         8.0960   15.5870   -5.1060 C.3   113  ASP113      0.1674
     86  C          8.3370   14.2960   -4.3510 C.2   113  ASP113      0.2266
     87  O          9.0540   13.4220   -4.8450 O.2   113  ASP113     -0.2867
     88  CB         9.1330   16.6310   -4.7770 C.3   113  ASP113      0.1410
     89  CG         9.1460   17.7340   -5.7500 C.2   113  ASP113      0.3668
     90  OD1        9.1180   17.4080   -6.9740 O.co2 113  ASP113     -0.2456
     91  OD2        9.1980   18.9180   -5.3310 O.co2 113  ASP113     -0.2456
     92  N          6.2790   19.0230   -1.3930 N.3   124  GLU124     -0.1231
     93  CA         6.7880   19.7720   -2.5240 C.3   124  GLU124      0.1699
     94  C          8.1040   20.4260   -2.1220 C.2   124  GLU124      0.2592
     95  O          8.1200   21.2670   -1.2380 O.2   124  GLU124     -0.2718
     96  CB         5.8070   20.8540   -2.9480 C.3   124  GLU124      0.0402
     97  CG         6.2870   21.7740   -4.0700 C.3   124  GLU124      0.1161
     98  CD         6.6740   21.0090   -5.3500 C.2   124  GLU124      0.3649
     99  OE1        6.0090   19.9920   -5.6550 O.co2 124  GLU124     -0.2457
    100  OE2        7.6530   21.4090   -6.0140 O.co2 124  GLU124     -0.2457
    101  N          9.1630   20.0900   -2.8390 N.am  125  ILE125     -0.1966
    102  CA        10.4950   20.6440   -2.5910 C.3   125  ILE125      0.1727
    103  C         10.7350   21.7820   -3.5310 C.2   125  ILE125      0.2616
    104  O         10.5170   21.6560   -4.7220 O.2   125  ILE125     -0.2715
    105  CB        11.5960   19.5800   -2.8610 C.3   125  ILE125      0.0290
    106  CG1       11.5240   18.4320   -1.8640 C.3   125  ILE125      0.0022
    107  CG2       13.0090   20.2170   -2.9010 C.3   125  ILE125      0.0023
    108  CD1       11.8950   18.7690   -0.4870 C.3   125  ILE125      0.0001
    109  N         11.0750   22.9520   -3.0130 N.am  126  GLY126     -0.1955
    110  CA        11.5450   24.0270   -3.8580 C.3   126  GLY126      0.1869
    111  C         13.0240   24.3120   -3.7000 C.2   126  GLY126      0.2309
    112  O         13.5340   24.2910   -2.5650 O.2   126  GLY126     -0.2863
    113  N          9.2820   32.6170   -3.1760 N.3   135  TYR135     -0.1241
    114  CA         9.0780   31.3530   -3.8420 C.3   135  TYR135      0.1605
    115  C          8.1040   30.4650   -3.0630 C.2   135  TYR135      0.2264
    116  O          7.3570   29.6910   -3.6600 O.2   135  TYR135     -0.2867
    117  CB        10.4180   30.6410   -4.0250 C.3   135  TYR135      0.0534
    118  CG        10.3950   29.5170   -5.0240 C.ar  135  TYR135     -0.0201
    119  CD1       10.0400   29.7300   -6.3440 C.ar  135  TYR135     -0.0009
    120  CD2       10.7620   28.2520   -4.6570 C.ar  135  TYR135     -0.0009
    121  CE1       10.0260   28.6810   -7.2590 C.ar  135  TYR135      0.0417
    122  CE2       10.7670   27.2220   -5.5520 C.ar  135  TYR135      0.0417
    123  CZ        10.4000   27.4320   -6.8470 C.ar  135  TYR135      0.1957
    124  OH        10.4100   26.3670   -7.6940 O.3   135  TYR135     -0.2866
    125  N          4.6490   28.7150   -4.8210 N.3   139  LYS139     -0.1245
    126  CA         4.3720   27.3030   -4.7290 C.3   139  LYS139      0.1561
    127  C          3.0110   27.0750   -4.0760 C.2   139  LYS139      0.2260
    128  O          2.2220   26.2390   -4.5250 O.2   139  LYS139     -0.2867
    129  CB         5.4640   26.6440   -3.8880 C.3   139  LYS139      0.0271
    130  CG         6.0690   25.4240   -4.4910 C.3   139  LYS139      0.0035
    131  CD         6.8020   25.6930   -5.7790 C.3   139  LYS139      0.0206
    132  CE         7.9130   24.6810   -5.9730 C.3   139  LYS139      0.1093
    133  NZ         7.9640   24.1900   -7.3560 N.3   139  LYS139     -0.1314
    134  N         -0.1810   27.5420   -6.2330 N.3   142  LYS142     -0.1245
    135  CA        -0.5680   26.4330   -7.1080 C.3   142  LYS142      0.1561
    136  C         -1.2090   25.2770   -6.3130 C.2   142  LYS142      0.2260
    137  O         -2.1100   24.6040   -6.8020 O.2   142  LYS142     -0.2867
    138  CB         0.6360   25.9270   -7.9140 C.3   142  LYS142      0.0271
    139  CG         1.3310   24.7050   -7.3070 C.3   142  LYS142      0.0035
    140  CD         2.6550   24.3670   -8.0180 C.3   142  LYS142      0.0206
    141  CE         3.5230   23.3870   -7.1990 C.3   142  LYS142      0.1093
    142  NZ         4.6870   22.8220   -7.9710 N.3   142  LYS142     -0.1314
@<TRIPOS>BOND
     1    28    27    1
     2    28    29    2
     3    26    27    1
     4    27    30    1
     5    17    16    2
     6    16    15    1
     7    30    31    1
     8    31    32    1
     9     9     8    2
    10    15    14    1
    11    15    18    1
    12     8     7    1
    13    32    34   ar
    14    32    33   ar
    15    10     7    1
    16    10    11    1
    17    18    19    1
    18     7     6    1
    19    13    12    1
    20     4     3    2
    21     6     3   am
    22    12    11    1
    23    19    20   ar
    24    19    21   ar
    25    20    22   ar
    26     3     2    1
    27    43    42    1
    28    21    23   ar
    29    42    41    1
    30     1     2    1
    31    41    40    1
    32    22    24   ar
    33     2     5    1
    34    39    40    1
    35    39    36    1
    36    23    24   ar
    37    35    36    1
    38    24    25    1
    39    36    37    1
    40    37    38    2
    41    56    54    1
    42    54    53    1
    43    53    55    1
    44    53    50    1
    45    44    45    1
    46    49    50    1
    47    49    46   am
    48    50    51    1
    49    48    45    1
    50    51    52    2
    51    45    46    1
    52    82    81    1
    53    46    47    2
    54    75    73   ar
    55    81    83    1
    56    81    80    1
    57    73    74   ar
    58    73    72    1
    59    80    77    1
    60    69    70    2
    61    69    68    1
    62    76    77    1
    63    72    71    1
    64    68    71    1
    65    68    67    1
    66    77    78    1
    67    61    62    1
    68    61    58    1
    69    57    58    1
    70    63    62   ar
    71    63    65   ar
    72    79    78    2
    73   140   139    1
    74   140   141    1
    75   142   141    1
    76   138   139    1
    77   138   135    1
    78    62    64   ar
    79    65    66   ar
    80    58    59    1
    81   124   123    1
    82    59    60    2
    83   133   132    1
    84   121   123   ar
    85   121   119   ar
    86   135   136    1
    87   135   134    1
    88    64    66   ar
    89    90    89   ar
    90   123   122   ar
    91   137   136    2
    92   119   118   ar
    93   100    98   ar
    94   132   131    1
    95   131   130    1
    96    89    91   ar
    97    89    88    1
    98    99    98   ar
    99   122   120   ar
   100    98    97    1
   101    85    84    1
   102    85    88    1
   103    85    86    1
   104   118   120   ar
   105   118   117    1
   106    87    86    2
   107   125   126    1
   108   126   127    1
   109   126   129    1
   110   104   103    2
   111   128   127    2
   112   130   129    1
   113    97    96    1
   114   117   114    1
   115   110   111    1
   116   110   109    1
   117   114   113    1
   118   114   115    1
   119   111   112    2
   120   116   115    2
   121   103   109   am
   122   103   102    1
   123    96    93    1
   124   107   105    1
   125   105   102    1
   126   105   106    1
   127   101   102    1
   128   101    94   am
   129    93    94    1
   130    93    92    1
   131    94    95    2
   132   106   108    1
