@<TRIPOS>MOLECULE
tmp/4kinB00.pdb
 175 161 0 0 0
SMALL
GASTEIGER

@<TRIPOS>ATOM
      1  N         -6.9270   -1.0160   59.8100 N.3    27  VAL27      -0.1245
      2  CA        -7.9310   -0.4800   58.8960 C.3    27  VAL27       0.1561
      3  C         -8.4780   -1.6060   58.0050 C.2    27  VAL27       0.2260
      4  O         -9.0570   -1.3610   56.9550 O.2    27  VAL27      -0.2867
      5  CB        -7.4620    0.7760   58.1260 C.3    27  VAL27       0.0252
      6  CG1       -7.4180    1.9900   59.0540 C.3    27  VAL27       0.0019
      7  CG2       -6.1200    0.5590   57.4260 C.3    27  VAL27       0.0019
      8  N         -8.1410   -5.6460   56.1860 N.3    29  SER29      -0.1202
      9  CA        -7.2450   -6.4330   55.3590 C.3    29  SER29       0.2020
     10  C         -6.9280   -5.7160   54.0550 C.2    29  SER29       0.2619
     11  O         -7.7420   -4.9470   53.5490 O.2    29  SER29      -0.2717
     12  CB        -7.8760   -7.7920   55.0610 C.3    29  SER29       0.2103
     13  OG        -7.1050   -8.8430   55.6240 O.3    29  SER29      -0.2182
     14  N         -5.7310   -5.9750   53.5480 N.am   30  GLY30      -0.1956
     15  CA        -5.2360   -5.5140   52.2590 C.3    30  GLY30       0.1869
     16  C         -4.9750   -6.7490   51.4270 C.2    30  GLY30       0.2309
     17  O         -5.4380   -7.8430   51.7800 O.2    30  GLY30      -0.2863
     18  N         -3.5700   -4.4190   57.0560 N.3    35  VAL35      -0.1245
     19  CA        -3.1290   -3.0450   56.9120 C.3    35  VAL35       0.1561
     20  C         -3.4880   -2.2570   58.1570 C.2    35  VAL35       0.2260
     21  O         -4.5720   -2.4260   58.7120 O.2    35  VAL35      -0.2867
     22  CB        -3.7190   -2.3990   55.6130 C.3    35  VAL35       0.0252
     23  CG1       -3.1870   -0.9750   55.3920 C.3    35  VAL35       0.0019
     24  CG2       -3.4190   -3.2470   54.3890 C.3    35  VAL35       0.0019
     25  N         -0.2120    3.9630   55.1960 N.3    48  ALA48      -0.1245
     26  CA        -0.8090    2.6480   55.3120 C.3    48  ALA48       0.1562
     27  C          0.3950    1.7050   55.4110 C.2    48  ALA48       0.2260
     28  O          1.3110    1.7860   54.5980 O.2    48  ALA48      -0.2867
     29  CB        -1.6200    2.3230   54.0750 C.3    48  ALA48       0.0290
     30  N          1.3640   -2.2400   55.5290 N.3    50  LYS50      -0.1245
     31  CA         0.8300   -3.5930   55.3570 C.3    50  LYS50       0.1561
     32  C          1.8640   -4.6150   55.7920 C.2    50  LYS50       0.2260
     33  O          2.9990   -4.5740   55.3250 O.2    50  LYS50      -0.2867
     34  CB         0.3940   -3.8650   53.9020 C.3    50  LYS50       0.0271
     35  CG        -0.0700   -5.3120   53.6750 C.3    50  LYS50       0.0035
     36  CD        -0.7420   -5.5430   52.3410 C.3    50  LYS50       0.0206
     37  CE         0.1570   -5.4820   51.1390 C.3    50  LYS50       0.1093
     38  NZ        -0.6530   -5.6670   49.8820 N.3    50  LYS50      -0.1314
     39  N          4.9640   -8.6490   44.2380 N.3    68  GLU68      -0.1245
     40  CA         4.4230   -7.4080   44.8120 C.3    68  GLU68       0.1567
     41  C          5.5090   -6.3660   45.0620 C.2    68  GLU68       0.2260
     42  O          5.3280   -5.2020   44.6970 O.2    68  GLU68      -0.2867
     43  CB         3.6380   -7.6880   46.1030 C.3    68  GLU68       0.0388
     44  CG         3.0130   -6.4250   46.6600 C.3    68  GLU68       0.1160
     45  CD         1.9860   -6.5560   47.7570 C.2    68  GLU68       0.3649
     46  OE1        1.8110   -7.6670   48.3090 O.co2  68  GLU68      -0.2457
     47  OE2        1.3200   -5.5370   48.0360 O.co2  68  GLU68      -0.2457
     48  N          6.8660   -4.9670   41.7380 N.3    71  LEU71      -0.1231
     49  CA         5.8460   -4.0720   41.1820 C.3    71  LEU71       0.1693
     50  C          5.8900   -2.7030   41.8420 C.2    71  LEU71       0.2591
     51  O          5.9670   -1.6820   41.1510 O.2    71  LEU71      -0.2718
     52  CB         4.4430   -4.6720   41.4000 C.3    71  LEU71       0.0284
     53  CG         3.8930   -5.5860   40.3170 C.3    71  LEU71       0.0019
     54  CD1        2.5950   -6.2560   40.7860 C.3    71  LEU71       0.0001
     55  CD2        3.6650   -4.8220   39.0280 C.3    71  LEU71       0.0001
     56  N          5.8170   -2.6770   43.1820 N.am   72  LEU72      -0.1980
     57  CA         5.8090   -1.4420   43.9800 C.3    72  LEU72       0.1596
     58  C          7.0670   -0.6120   43.8080 C.2    72  LEU72       0.2287
     59  O          6.9780    0.6220   43.7650 O.2    72  LEU72      -0.2864
     60  CB         5.5640   -1.7390   45.4610 C.3    72  LEU72       0.0297
     61  CG         4.1400   -2.1820   45.8200 C.3    72  LEU72       0.0022
     62  CD1        4.1100   -2.8490   47.1920 C.3    72  LEU72       0.0001
     63  CD2        3.1680   -1.0080   45.7870 C.3    72  LEU72       0.0001
     64  N         -0.5580    3.6440   43.3550 N.3    81  ILE81      -0.1245
     65  CA         0.0390    3.6020   44.6950 C.3    81  ILE81       0.1561
     66  C          1.5590    3.4440   44.5850 C.2    81  ILE81       0.2260
     67  O          2.0390    2.6990   43.7300 O.2    81  ILE81      -0.2867
     68  CB        -0.6380    2.5690   45.6320 C.3    81  ILE81       0.0252
     69  CG1       -0.4790    2.9710   47.1080 C.3    81  ILE81       0.0019
     70  CG2       -0.1780    1.1400   45.3850 C.3    81  ILE81       0.0019
     71  CD1       -1.2150    4.2600   47.5590 C.3    81  ILE81       0.0001
     72  N          5.2280   -3.2020   54.0480 N.3   101  LEU101     -0.1245
     73  CA         5.1970   -2.2470   52.9340 C.3   101  LEU101      0.1561
     74  C          4.4620   -1.0040   53.3600 C.2   101  LEU101      0.2260
     75  O          3.4500   -1.1040   54.0410 O.2   101  LEU101     -0.2867
     76  CB         4.4980   -2.8780   51.7190 C.3   101  LEU101      0.0270
     77  CG         5.1300   -4.1850   51.1940 C.3   101  LEU101      0.0019
     78  CD1        4.1650   -4.9270   50.2850 C.3   101  LEU101      0.0001
     79  CD2        6.4530   -3.9030   50.4730 C.3   101  LEU101      0.0001
     80  N          2.7740    2.7550   52.1400 N.3   103  THR103     -0.1203
     81  CA         2.3020    3.6460   51.0650 C.3   103  THR103      0.1994
     82  C          1.5730    4.8270   51.6950 C.2   103  THR103      0.2618
     83  O          1.3980    4.8470   52.9160 O.2   103  THR103     -0.2717
     84  CB         1.3410    2.8970   50.1170 C.3   103  THR103      0.1784
     85  OG1        0.1050    2.6380   50.7710 O.3   103  THR103     -0.2211
     86  CG2        1.9520    1.6160   49.5140 C.3   103  THR103      0.0376
     87  N          1.0860    5.7750   50.8760 N.am  104  HIS104     -0.1961
     88  CA         0.2240    6.8550   51.3790 C.3   104  HIS104      0.1787
     89  C         -1.0730    6.2270   51.8920 C.2   104  HIS104      0.2620
     90  O         -1.5080    5.1890   51.3790 O.2   104  HIS104     -0.2715
     91  CB        -0.1080    7.8640   50.2510 C.3   104  HIS104      0.0785
     92  CG         1.0120    8.8070   49.9530 C.ar  104  HIS104      0.0821
     93  ND1        1.7870    8.6710   48.8220 N.ar  104  HIS104     -0.2267
     94  CD2        1.4380    9.8850   50.6510 C.ar  104  HIS104      0.1154
     95  CE1        2.6570    9.6650   48.8540 C.ar  104  HIS104      0.1986
     96  NE2        2.4920   10.4200   49.9410 N.ar  104  HIS104     -0.2212
     97  N         -1.6830    6.8310   52.8990 N.am  105  LEU105     -0.1977
     98  CA        -2.9290    6.3260   53.4440 C.3   105  LEU105      0.1596
     99  C         -4.1380    6.7790   52.5840 C.2   105  LEU105      0.2287
    100  O         -5.0870    6.0040   52.4440 O.2   105  LEU105     -0.2864
    101  CB        -3.0970    6.7500   54.9180 C.3   105  LEU105      0.0297
    102  CG        -4.4130    6.3160   55.6060 C.3   105  LEU105      0.0022
    103  CD1       -4.4830    4.7980   55.8210 C.3   105  LEU105      0.0001
    104  CD2       -4.6270    7.0760   56.9070 C.3   105  LEU105      0.0001
    105  N         -6.9790    8.0620   52.6350 N.3   107  GLY107     -0.1210
    106  CA        -8.0440    8.3310   53.5990 C.3   107  GLY107      0.1956
    107  C         -9.3180    7.5400   53.4400 C.2   107  GLY107      0.2612
    108  O         -9.9870    7.2570   54.4300 O.2   107  GLY107     -0.2717
    109  N         -9.6940    7.2080   52.2000 N.am  108  ALA108     -0.1965
    110  CA       -10.9610    6.4980   51.9280 C.3   108  ALA108      0.1728
    111  C        -10.8830    5.7740   50.5830 C.2   108  ALA108      0.2616
    112  O         -9.9280    5.9690   49.8430 O.2   108  ALA108     -0.2715
    113  CB       -12.1080    7.5130   51.8860 C.3   108  ALA108      0.0334
    114  N        -11.8670    4.9190   50.2720 N.am  109  ASP109     -0.1971
    115  CA       -11.8980    4.2910   48.9550 C.3   109  ASP109      0.1709
    116  C        -13.1910    4.7010   48.2630 C.2   109  ASP109      0.2293
    117  O        -13.9750    5.4520   48.8550 O.2   109  ASP109     -0.2864
    118  CB       -11.6380    2.7740   49.0130 C.3   109  ASP109      0.1436
    119  CG       -12.5930    1.9640   49.8590 C.2   109  ASP109      0.3671
    120  OD1      -13.7930    2.2640   49.8420 O.co2 109  ASP109     -0.2456
    121  OD2      -12.1380    1.0020   50.5080 O.co2 109  ASP109     -0.2456
    122  N        -16.3850    3.8060   49.7880 N.3   112  ASN112     -0.1240
    123  CA       -16.7030    4.7960   50.8360 C.3   112  ASN112      0.1653
    124  C        -17.1500    6.1770   50.2670 C.2   112  ASN112      0.2266
    125  O        -17.7080    6.9800   51.0260 O.2   112  ASN112     -0.2867
    126  CB       -15.4780    5.0450   51.7700 C.3   112  ASN112      0.1155
    127  CG       -14.7600    3.8470   52.3680 C.2   112  ASN112      0.2627
    128  OD1      -15.2230    2.6900   52.3110 O.2   112  ASN112     -0.2716
    129  ND2      -13.5740    4.1060   52.9440 N.am  112  ASN112     -0.0877
    130  N        -13.3790   -0.5520   46.0020 N.3   151  SER151     -0.1217
    131  CA       -12.5590   -0.7670   47.1840 C.3   151  SER151      0.1889
    132  C        -11.0560   -0.6840   46.9220 C.2   151  SER151      0.2288
    133  O        -10.3280   -0.4850   47.8840 O.2   151  SER151     -0.2866
    134  CB       -12.9300   -2.0670   47.9020 C.3   151  SER151      0.2089
    135  OG       -12.5580   -3.2200   47.1710 O.3   151  SER151     -0.2183
    136  N         -8.1120    4.2520   46.1240 N.3   154  ALA154     -0.1245
    137  CA        -7.8560    5.0680   47.3060 C.3   154  ALA154      0.1562
    138  C         -7.9050    6.5300   46.9030 C.2   154  ALA154      0.2260
    139  O         -7.3320    6.9390   45.8880 O.2   154  ALA154     -0.2867
    140  CB        -6.5100    4.7100   47.9100 C.3   154  ALA154      0.0290
    141  N         -4.9040    0.8270   43.8590 N.3   164  LEU164     -0.1231
    142  CA        -4.2570   -0.1600   44.7080 C.3   164  LEU164      0.1693
    143  C         -4.4280   -1.5690   44.1410 C.2   164  LEU164      0.2592
    144  O         -5.4050   -1.8630   43.4380 O.2   164  LEU164     -0.2718
    145  CB        -4.9270   -0.2040   46.0980 C.3   164  LEU164      0.0284
    146  CG        -5.2360    1.0600   46.8900 C.3   164  LEU164      0.0019
    147  CD1       -6.1080    0.7280   48.0810 C.3   164  LEU164      0.0001
    148  CD2       -3.9920    1.7330   47.3570 C.3   164  LEU164      0.0001
    149  N         -3.5580   -2.4750   44.6040 N.am  165  ASP165     -0.1960
    150  CA        -3.6520   -3.9170   44.4770 C.3   165  ASP165      0.1840
    151  C         -3.7170   -4.4730   43.0570 C.2   165  ASP165      0.2622
    152  O         -4.2680   -5.5680   42.8570 O.2   165  ASP165     -0.2715
    153  CB        -4.8500   -4.4260   45.3160 C.3   165  ASP165      0.1450
    154  CG        -4.6860   -4.1760   46.8110 C.2   165  ASP165      0.3671
    155  OD1       -3.5260   -4.0430   47.2690 O.co2 165  ASP165     -0.2456
    156  OD2       -5.7110   -4.1440   47.5190 O.co2 165  ASP165     -0.2456
    157  N         -3.0740   -3.7820   42.1090 N.am  166  PHE166     -0.1974
    158  CA        -2.9810   -4.2000   40.7180 C.3   166  PHE166      0.1639
    159  C         -1.8350   -5.2360   40.5900 C.2   166  PHE166      0.2290
    160  O         -0.9640   -5.3010   41.4560 O.2   166  PHE166     -0.2864
    161  CB        -2.6730   -2.9690   39.8140 C.3   166  PHE166      0.0560
    162  CG        -1.4970   -2.1500   40.2900 C.ar  166  PHE166     -0.0200
    163  CD1       -0.1950   -2.4830   39.9130 C.ar  166  PHE166     -0.0042
    164  CD2       -1.6820   -1.0880   41.1780 C.ar  166  PHE166     -0.0042
    165  CE1        0.9020   -1.7540   40.4010 C.ar  166  PHE166     -0.0003
    166  CE2       -0.5870   -0.3800   41.6830 C.ar  166  PHE166     -0.0003
    167  CZ         0.6940   -0.7040   41.2750 C.ar  166  PHE166     -0.0000
    168  N         -1.5820   -8.3690   40.9880 N.3   168  LEU168     -0.1245
    169  CA        -1.5670   -9.4830   41.9140 C.3   168  LEU168      0.1561
    170  C         -2.6050  -10.5590   41.6130 C.2   168  LEU168      0.2260
    171  O         -2.2660  -11.7400   41.6920 O.2   168  LEU168     -0.2867
    172  CB        -1.7120   -8.9670   43.3530 C.3   168  LEU168      0.0270
    173  CG        -0.6960   -7.9060   43.8150 C.3   168  LEU168      0.0019
    174  CD1       -0.9070   -7.5820   45.2730 C.3   168  LEU168      0.0001
    175  CD2        0.7660   -8.3700   43.5580 C.3   168  LEU168      0.0001
@<TRIPOS>BOND
     1    55    53    1
     2   161   162    1
     3   161   158    1
     4   163   162   ar
     5   163   165   ar
     6   162   164   ar
     7    53    54    1
     8    53    52    1
     9   165   167   ar
    10   159   158    1
    11   159   160    2
    12   158   157    1
    13   168   169    1
    14    51    50    2
    15   164   166   ar
    16    49    52    1
    17    49    48    1
    18    49    50    1
    19   167   166   ar
    20   170   171    2
    21   170   169    1
    22    50    56   am
    23   169   172    1
    24   157   151   am
    25   152   151    2
    26   151   150    1
    27    56    57    1
    28   172   173    1
    29    64    65    1
    30   144   143    2
    31   175   173    1
    32    67    66    2
    33    59    58    2
    34    58    57    1
    35   173   174    1
    36   141   142    1
    37    57    60    1
    38   143   149   am
    39   143   142    1
    40    39    40    1
    41   150   149    1
    42   150   153    1
    43    66    65    1
    44    65    68    1
    45    42    41    2
    46   142   145    1
    47    40    41    1
    48    40    43    1
    49   153   154    1
    50    70    68    1
    51    60    61    1
    52    68    69    1
    53    63    61    1
    54    61    62    1
    55   139   138    2
    56   130   131    1
    57   145   146    1
    58    43    44    1
    59   136   137    1
    60    44    45    1
    61   154   155   ar
    62   154   156   ar
    63   146   148    1
    64   146   147    1
    65   138   137    1
    66   132   131    1
    67   132   133    2
    68    69    71    1
    69   135   134    1
    70   131   134    1
    71   137   140    1
    72    45    47   ar
    73    45    46   ar
    74   116   117    2
    75   116   115    1
    76    93    95   ar
    77    93    92   ar
    78    95    96   ar
    79   115   118    1
    80   115   114    1
    81   118   119    1
    82    86    84    1
    83   122   123    1
    84   120   119   ar
    85   112   111    2
    86   119   121   ar
    87    38    37    1
    88    96    94   ar
    89    92    91    1
    90    92    94   ar
    91    84    85    1
    92    84    81    1
    93    91    88    1
    94   124   123    1
    95   124   125    2
    96   114   111   am
    97    78    77    1
    98    79    77    1
    99   111   110    1
   100   123   126    1
   101    87    88    1
   102    87    82   am
   103    81    82    1
   104    81    80    1
   105    37    36    1
   106    77    76    1
   107    88    89    1
   108    90    89    2
   109    16    17    2
   110    16    15    1
   111    82    83    2
   112    76    73    1
   113   126   127    1
   114   113   110    1
   115    89    97   am
   116   110   109    1
   117   109   107   am
   118    15    14    1
   119   128   127    2
   120    36    35    1
   121   127   129   am
   122   100    99    2
   123    99    98    1
   124   105   106    1
   125    97    98    1
   126    73    74    1
   127    73    72    1
   128    74    75    2
   129   107   106    1
   130   107   108    2
   131    98   101    1
   132    14    10   am
   133    11    10    2
   134    35    34    1
   135    34    31    1
   136    10     9    1
   137    29    26    1
   138    24    22    1
   139    28    27    2
   140   101   102    1
   141    12     9    1
   142    12    13    1
   143    25    26    1
   144    26    27    1
   145    33    32    2
   146    31    30    1
   147    31    32    1
   148     9     8    1
   149    23    22    1
   150   102   103    1
   151   102   104    1
   152    22    19    1
   153    19    18    1
   154    19    20    1
   155     4     3    2
   156     7     5    1
   157     3     2    1
   158     5     2    1
   159     5     6    1
   160    20    21    2
   161     2     1    1
