@<TRIPOS>MOLECULE
tmp/4kioB00.pdb
 178 169 0 0 0
SMALL
GASTEIGER

@<TRIPOS>ATOM
      1  N         19.7710   19.3760   75.8430 N.3    13  GLN13      -0.1245
      2  CA        19.5280   20.0360   74.5670 C.3    13  GLN13       0.1566
      3  C         18.0650   20.0110   74.1450 C.2    13  GLN13       0.2260
      4  O         17.4350   18.9510   74.0840 O.2    13  GLN13      -0.2867
      5  CB        20.3650   19.3320   73.4970 C.3    13  GLN13       0.0367
      6  CG        20.1400   19.7760   72.0610 C.3    13  GLN13       0.0905
      7  CD        20.7430   21.1250   71.7420 C.2    13  GLN13       0.2608
      8  OE1       21.7540   21.5180   72.3090 O.2    13  GLN13      -0.2717
      9  NE2       20.1180   21.8480   70.8210 N.am   13  GLN13      -0.0878
     10  N         15.3350   19.7650   71.5930 N.3    15  ILE15      -0.1231
     11  CA        15.2410   19.0740   70.3070 C.3    15  ILE15       0.1692
     12  C         13.8980   19.2920   69.5900 C.2    15  ILE15       0.2593
     13  O         13.7360   18.8340   68.4620 O.2    15  ILE15      -0.2718
     14  CB        15.4760   17.5600   70.4730 C.3    15  ILE15       0.0266
     15  CG1       14.3890   16.9300   71.3600 C.3    15  ILE15       0.0019
     16  CG2       16.8670   17.2940   71.0490 C.3    15  ILE15       0.0020
     17  CD1       14.6790   15.5030   71.7760 C.3    15  ILE15       0.0001
     18  N         12.9450   19.9650   70.2390 N.am   16  GLY16      -0.1942
     19  CA        11.6240   20.2640   69.6380 C.3    16  GLY16       0.2014
     20  C         10.7730   21.2780   70.4200 C.2    16  GLY16       0.2639
     21  O         11.0140   21.5220   71.5970 O.2    16  GLY16      -0.2714
     22  N          9.7710   21.8670   69.7650 N.am   17  SER17      -0.1949
     23  CA         8.8400   22.8240   70.4110 C.3    17  SER17       0.1924
     24  C          7.4150   22.6870   69.8270 C.2    17  SER17       0.2314
     25  O          7.1480   21.7320   69.0890 O.2    17  SER17      -0.2863
     26  CB         9.3640   24.2580   70.2820 C.3    17  SER17       0.2116
     27  OG         9.4680   24.6510   68.9240 O.3    17  SER17      -0.2180
     28  N         10.2310   19.7260   73.9580 N.3    20  VAL20      -0.1245
     29  CA        10.9460   18.4890   74.2450 C.3    20  VAL20       0.1561
     30  C         12.4610   18.7440   74.3700 C.2    20  VAL20       0.2260
     31  O         13.0380   19.5240   73.6230 O.2    20  VAL20      -0.2867
     32  CB        10.6690   17.4310   73.1570 C.3    20  VAL20       0.0252
     33  CG1       11.2960   16.0980   73.5070 C.3    20  VAL20       0.0019
     34  CG2        9.1700   17.2330   73.0020 C.3    20  VAL20       0.0019
     35  N         16.2830   16.5640   75.0060 N.3    22  LEU22      -0.1245
     36  CA        17.1830   15.4890   75.3460 C.3    22  LEU22       0.1561
     37  C         17.7670   15.8060   76.7150 C.2    22  LEU22       0.2260
     38  O         18.2530   16.9390   76.9570 O.2    22  LEU22      -0.2867
     39  CB        18.3280   15.4100   74.3340 C.3    22  LEU22       0.0270
     40  CG        19.4940   14.4720   74.6610 C.3    22  LEU22       0.0019
     41  CD1       19.0080   13.0400   74.8060 C.3    22  LEU22       0.0001
     42  CD2       20.5670   14.5670   73.5820 C.3    22  LEU22       0.0001
     43  N         13.8740   11.6550   76.9050 N.3    32  ALA32      -0.1245
     44  CA        13.2110   12.7370   76.2360 C.3    32  ALA32       0.1562
     45  C         12.2510   13.3280   77.2340 C.2    32  ALA32       0.2260
     46  O         11.3130   12.6750   77.6590 O.2    32  ALA32      -0.2867
     47  CB        12.4680   12.2340   75.0240 C.3    32  ALA32       0.0290
     48  N          9.3550   15.8850   78.1390 N.3    34  LYS34      -0.1245
     49  CA         8.3220   16.6660   77.4840 C.3    34  LYS34       0.1561
     50  C          7.7210   17.6760   78.4580 C.2    34  LYS34       0.2260
     51  O          7.1590   17.3020   79.4770 O.2    34  LYS34      -0.2867
     52  CB         7.2580   15.7380   76.9170 C.3    34  LYS34       0.0271
     53  CG         6.4450   16.3410   75.7800 C.3    34  LYS34       0.0035
     54  CD         5.3200   15.3860   75.3960 C.3    34  LYS34       0.0206
     55  CE         4.8000   15.5840   73.9790 C.3    34  LYS34       0.1093
     56  NZ         3.7470   14.5660   73.6720 N.3    34  LYS34      -0.1314
     57  N          5.8870    3.2990   72.6900 N.3    55  VAL55      -0.1245
     58  CA         6.8870    4.0150   73.4660 C.3    55  VAL55       0.1561
     59  C          6.6220    3.8880   74.9980 C.2    55  VAL55       0.2260
     60  O          5.4750    3.7540   75.4160 O.2    55  VAL55      -0.2867
     61  CB         6.9860    5.4900   72.9930 C.3    55  VAL55       0.0252
     62  CG1        5.8650    6.3170   73.5710 C.3    55  VAL55       0.0019
     63  CG2        8.3380    6.0920   73.3530 C.3    55  VAL55       0.0019
     64  N         10.1460   10.3380   79.0480 N.3    71  PHE71      -0.1227
     65  CA        10.0880    9.1560   78.1960 C.3    71  PHE71       0.1736
     66  C         11.4570    8.6070   77.9440 C.2    71  PHE71       0.2595
     67  O         12.4670    9.3260   78.0820 O.2    71  PHE71      -0.2718
     68  CB         9.5510    9.5160   76.8070 C.3    71  PHE71       0.0547
     69  CG         8.1200    9.9570   76.7690 C.ar   71  PHE71      -0.0202
     70  CD1        7.7770   11.2800   76.9600 C.ar   71  PHE71      -0.0042
     71  CD2        7.1190    9.0520   76.4650 C.ar   71  PHE71      -0.0042
     72  CE1        6.4460   11.6870   76.8840 C.ar   71  PHE71      -0.0003
     73  CE2        5.8030    9.4450   76.3660 C.ar   71  PHE71      -0.0003
     74  CZ         5.4560   10.7670   76.5800 C.ar   71  PHE71      -0.0000
     75  N         11.4950    7.3430   77.5330 N.am   72  GLU72      -0.1965
     76  CA        12.7190    6.7850   76.9660 C.3    72  GLU72       0.1733
     77  C         13.0680    7.6730   75.7490 C.2    72  GLU72       0.2616
     78  O         12.1670    8.2890   75.1360 O.2    72  GLU72      -0.2715
     79  CB        12.5380    5.3110   76.5510 C.3    72  GLU72       0.0429
     80  CG        11.5710    5.1640   75.3840 C.3    72  GLU72       0.1163
     81  CD        11.3440    3.7590   74.9120 C.2    72  GLU72       0.3649
     82  OE1       12.2980    2.9740   74.8410 O.co2  72  GLU72      -0.2457
     83  OE2       10.1900    3.4290   74.6070 O.co2  72  GLU72      -0.2457
     84  N         14.3600    7.7790   75.4430 N.am   73  PHE73      -0.1960
     85  CA        14.8200    8.5890   74.3330 C.3    73  PHE73       0.1771
     86  C         14.9080    7.7390   73.0850 C.2    73  PHE73       0.2619
     87  O         15.6200    6.7800   73.0850 O.2    73  PHE73      -0.2715
     88  CB        16.1840    9.1940   74.6520 C.3    73  PHE73       0.0574
     89  CG        16.7550   10.0330   73.5330 C.ar   73  PHE73      -0.0200
     90  CD1       16.1850   11.2410   73.2020 C.ar   73  PHE73      -0.0042
     91  CD2       17.8490    9.5910   72.8030 C.ar   73  PHE73      -0.0042
     92  CE1       16.6730   12.0070   72.1600 C.ar   73  PHE73      -0.0003
     93  CE2       18.3640   10.3620   71.7650 C.ar   73  PHE73      -0.0003
     94  CZ        17.7800   11.5830   71.4510 C.ar   73  PHE73      -0.0000
     95  N         14.1660    8.0770   72.0360 N.am   74  MET74      -0.1963
     96  CA        14.2320    7.3700   70.7430 C.3    74  MET74       0.1736
     97  C         15.2410    8.1040   69.8430 C.2    74  MET74       0.2616
     98  O         15.0690    9.2910   69.5140 O.2    74  MET74      -0.2715
     99  CB        12.8700    7.2890   70.1270 C.3    74  MET74       0.0427
    100  CG        11.8760    6.4840   70.9770 C.3    74  MET74       0.0599
    101  SD        12.1800    4.6990   71.0520 S.3    74  MET74      -0.1393
    102  CE        11.6560    4.2410   69.4200 C.3    74  MET74       0.0692
    103  N         16.2920    7.3790   69.4530 N.am   75  GLU75      -0.1963
    104  CA        17.5060    7.9810   68.8340 C.3    75  GLU75       0.1733
    105  C         17.2430    8.7420   67.5430 C.2    75  GLU75       0.2616
    106  O         17.8930    9.7230   67.2880 O.2    75  GLU75      -0.2715
    107  CB        18.5760    6.9030   68.5410 C.3    75  GLU75       0.0429
    108  CG        19.9790    7.1900   69.0620 C.3    75  GLU75       0.1163
    109  CD        20.2060    6.7180   70.5070 C.2    75  GLU75       0.3649
    110  OE1       19.5070    5.7680   70.9400 O.co2  75  GLU75      -0.2457
    111  OE2       21.0890    7.2730   71.2090 O.co2  75  GLU75      -0.2457
    112  N         16.3090    8.2940   66.7260 N.am   76  HIS76      -0.1959
    113  CA        16.1110    8.8970   65.4090 C.3    76  HIS76       0.1787
    114  C         14.8850    9.7520   65.2650 C.2    76  HIS76       0.2621
    115  O         14.5130   10.0720   64.1590 O.2    76  HIS76      -0.2715
    116  CB        16.1730    7.8300   64.3070 C.3    76  HIS76       0.0785
    117  CG        17.5450    7.2610   64.1510 C.ar   76  HIS76       0.0821
    118  ND1       17.8770    5.9920   64.5760 N.ar   76  HIS76      -0.2267
    119  CD2       18.6940    7.8310   63.7240 C.ar   76  HIS76       0.1154
    120  CE1       19.1670    5.7900   64.3790 C.ar   76  HIS76       0.1986
    121  NE2       19.6860    6.8950   63.8740 N.ar   76  HIS76      -0.2212
    122  N         14.2760   10.1430   66.3820 N.am   77  GLY77      -0.1940
    123  CA        13.1780   11.0980   66.3520 C.3    77  GLY77       0.2014
    124  C         11.8740   10.6170   65.7380 C.2    77  GLY77       0.2639
    125  O         11.5740    9.4040   65.7100 O.2    77  GLY77      -0.2714
    126  N         11.1050   11.5810   65.2370 N.am   78  CYS78      -0.1967
    127  CA         9.8040   11.3090   64.6280 C.3    78  CYS78       0.1712
    128  C          9.9110   10.6130   63.2690 C.2    78  CYS78       0.2296
    129  O         10.8160   10.9090   62.4710 O.2    78  CYS78      -0.2864
    130  CB         9.0130   12.6130   64.4940 C.3    78  CYS78       0.0983
    131  SG         8.5240   13.2990   66.0920 S.3    78  CYS78      -0.0798
    132  N          7.8630   10.9270   60.6960 N.3    80  SER80      -0.1202
    133  CA         7.6790   11.9550   59.6340 C.3    80  SER80       0.2020
    134  C          9.0110   12.6550   59.2540 C.2    80  SER80       0.2618
    135  O          9.3840   12.6670   58.1210 O.2    80  SER80      -0.2717
    136  CB         6.6410   13.0150   60.0270 C.3    80  SER80       0.2103
    137  OG         6.9240   13.4730   61.3330 O.3    80  SER80      -0.2182
    138  N          9.7290   13.1890   60.2170 N.am   81  ASP81      -0.1973
    139  CA        11.0410   13.7950   59.9640 C.3    81  ASP81       0.1709
    140  C         12.0710   12.8320   59.4010 C.2    81  ASP81       0.2293
    141  O         12.8360   13.2020   58.5220 O.2    81  ASP81      -0.2864
    142  CB        11.6130   14.3860   61.2340 C.3    81  ASP81       0.1436
    143  CG        10.8820   15.6050   61.6850 C.2    81  ASP81       0.3671
    144  OD1       10.0500   16.1290   60.9360 O.co2  81  ASP81      -0.2456
    145  OD2       11.1620   16.0620   62.8070 O.co2  81  ASP81      -0.2456
    146  N          3.8450   11.5810   62.2950 N.3   122  ARG122     -0.1245
    147  CA         4.3920   12.5380   63.2510 C.3   122  ARG122      0.1563
    148  C          4.2500   12.0690   64.7160 C.2   122  ARG122      0.2260
    149  O          4.9000   12.6210   65.5980 O.2   122  ARG122     -0.2867
    150  CB         3.7430   13.9240   63.0580 C.3   122  ARG122      0.0307
    151  CG         2.5050   14.1820   63.8980 C.3   122  ARG122      0.0489
    152  CD         1.7200   15.4110   63.4450 C.3   122  ARG122      0.2205
    153  NE         0.5600   15.0350   62.6340 N.pl3 122  ARG122     -0.0865
    154  CZ        -0.6380   14.7400   63.1470 C.cat 122  ARG122      0.5346
    155  NH1       -0.8320   14.7970   64.4600 N.pl3 122  ARG122      0.1354
    156  NH2       -1.6490   14.3930   62.3530 N.pl3 122  ARG122      0.1354
    157  N          7.7880    7.0810   66.5560 N.3   125  LEU125     -0.1245
    158  CA         9.1860    7.3910   66.8040 C.3   125  LEU125      0.1561
    159  C         10.0760    6.3060   66.2240 C.2   125  LEU125      0.2260
    160  O          9.6220    5.1870   66.0430 O.2   125  LEU125     -0.2867
    161  CB         9.4150    7.5500   68.2870 C.3   125  LEU125      0.0270
    162  CG         8.6890    8.7400   68.8780 C.3   125  LEU125      0.0019
    163  CD1        8.4150    8.5650   70.3590 C.3   125  LEU125      0.0001
    164  CD2        9.4910   10.0040   68.6530 C.3   125  LEU125      0.0001
    165  N          3.5850    6.4130   69.4730 N.3   135  SER135     -0.1202
    166  CA         3.6230    7.3170   70.6040 C.3   135  SER135      0.2020
    167  C          2.2640    8.0450   70.8040 C.2   135  SER135      0.2618
    168  O          1.3340    7.8830   69.9870 O.2   135  SER135     -0.2717
    169  CB         4.7380    8.3320   70.4130 C.3   135  SER135      0.2103
    170  OG         4.9540    9.0470   71.6070 O.3   135  SER135     -0.2182
    171  N          2.1660    8.8390   71.8800 N.am  136  ASP136     -0.1973
    172  CA         0.9730    9.6750   72.1820 C.3   136  ASP136      0.1709
    173  C         -0.3210    8.8980   72.0150 C.2   136  ASP136      0.2293
    174  O         -1.2760    9.3870   71.3940 O.2   136  ASP136     -0.2864
    175  CB         0.9260   10.9310   71.2950 C.3   136  ASP136      0.1436
    176  CG         2.1830   11.7880   71.4160 C.2   136  ASP136      0.3671
    177  OD1        2.5940   12.1230   72.5550 O.co2 136  ASP136     -0.2456
    178  OD2        2.7670   12.1240   70.3590 O.co2 136  ASP136     -0.2456
@<TRIPOS>BOND
     1   135   134    2
     2   141   140    2
     3   134   133    1
     4   134   138   am
     5   140   139    1
     6   133   136    1
     7   133   132    1
     8   139   138    1
     9   139   142    1
    10   136   137    1
    11   144   143   ar
    12   142   143    1
    13   143   145   ar
    14   146   147    1
    15   156   154    1
    16   129   128    2
    17   153   154    2
    18   153   152    1
    19   150   147    1
    20   150   151    1
    21   154   155    1
    22   147   148    1
    23   128   127    1
    24   152   151    1
    25   119   121   ar
    26   119   117   ar
    27   121   120   ar
    28   117   116    1
    29   117   118   ar
    30   115   114    2
    31   116   113    1
    32   120   118   ar
    33   130   127    1
    34   130   131    1
    35   127   126    1
    36   148   149    2
    37   126   124   am
    38   114   113    1
    39   114   122   am
    40   113   112    1
    41   125   124    2
    42   124   123    1
    43   160   159    2
    44   159   158    1
    45   123   122    1
    46   157   158    1
    47   112   105   am
    48   158   161    1
    49   106   105    2
    50   105   104    1
    51   161   162    1
    52    13    12    2
    53   107   104    1
    54   107   108    1
    55   164   162    1
    56   104   103    1
    57   162   163    1
    58    27    26    1
    59   108   109    1
    60    25    24    2
    61   102   101    1
    62   103    97   am
    63   165   166    1
    64    98    97    2
    65    12    18   am
    66    12    11    1
    67    19    18    1
    68    19    20    1
    69    22    23    1
    70    22    20   am
    71    24    23    1
    72    97    96    1
    73   168   167    2
    74    99    96    1
    75    99   100    1
    76    26    23    1
    77    11    14    1
    78    11    10    1
    79   178   176   ar
    80   169   166    1
    81   169   170    1
    82    20    21    2
    83    14    16    1
    84    14    15    1
    85   109   110   ar
    86   109   111   ar
    87   166   167    1
    88    96    95    1
    89   167   171   am
    90     9     7   am
    91   100   101    1
    92   175   176    1
    93   175   172    1
    94    15    17    1
    95   174   173    2
    96   176   177   ar
    97    94    93   ar
    98    94    92   ar
    99     7     6    1
   100     7     8    2
   101    93    91   ar
   102   171   172    1
   103   173   172    1
   104    95    86   am
   105     6     5    1
   106    92    90   ar
   107    57    58    1
   108    91    89   ar
   109    61    63    1
   110    61    58    1
   111    61    62    1
   112    34    32    1
   113    87    86    2
   114    86    85    1
   115    32    33    1
   116    32    29    1
   117    90    89   ar
   118    58    59    1
   119     5     2    1
   120    89    88    1
   121    42    40    1
   122    31    30    2
   123    56    55    1
   124    28    29    1
   125    55    54    1
   126     4     3    2
   127     3     2    1
   128    29    30    1
   129    85    88    1
   130    85    84    1
   131    39    40    1
   132    39    36    1
   133     2     1    1
   134    83    81   ar
   135    40    41    1
   136    82    81   ar
   137    81    80    1
   138    59    60    2
   139    35    36    1
   140    47    44    1
   141    78    77    2
   142    36    37    1
   143    80    79    1
   144    54    53    1
   145    84    77   am
   146    77    76    1
   147    53    52    1
   148    44    43    1
   149    44    45    1
   150    73    71   ar
   151    73    74   ar
   152    71    69   ar
   153    79    76    1
   154    74    72   ar
   155    37    38    2
   156    69    68    1
   157    69    70   ar
   158    68    65    1
   159    72    70   ar
   160    52    49    1
   161    76    75    1
   162    45    46    2
   163    49    48    1
   164    49    50    1
   165    75    66   am
   166    66    67    2
   167    66    65    1
   168    65    64    1
   169    50    51    2
