@<TRIPOS>MOLECULE
tmp/4kiqD00.pdb
 178 167 0 0 0
SMALL
GASTEIGER

@<TRIPOS>ATOM
      1  N         49.6290   -1.2730    9.5670 N.3    27  VAL27      -0.1231
      2  CA        48.5660   -0.9130    8.6190 C.3    27  VAL27       0.1692
      3  C         48.0690   -2.1550    7.8530 C.2    27  VAL27       0.2593
      4  O         47.1350   -2.0710    7.0410 O.2    27  VAL27      -0.2718
      5  CB        48.9030    0.2810    7.6940 C.3    27  VAL27       0.0266
      6  CG1       49.0050    1.5700    8.4960 C.3    27  VAL27       0.0020
      7  CG2       50.1630    0.0410    6.8680 C.3    27  VAL27       0.0020
      8  N         48.6680   -3.2990    8.1820 N.am   28  GLY28      -0.1942
      9  CA        48.3370   -4.5990    7.6180 C.3    28  GLY28       0.2014
     10  C         49.5030   -5.2730    6.9350 C.2    28  GLY28       0.2640
     11  O         50.6580   -4.9170    7.1650 O.2    28  GLY28      -0.2714
     12  N         49.1900   -6.2640    6.1000 N.am   29  SER29      -0.1935
     13  CA        50.1480   -7.0310    5.3130 C.3    29  SER29       0.2055
     14  C         49.9980   -6.6130    3.8570 C.2    29  SER29       0.2643
     15  O         48.8730   -6.5310    3.3430 O.2    29  SER29      -0.2714
     16  CB        49.8990   -8.5310    5.4740 C.3    29  SER29       0.2130
     17  OG        48.5420   -8.8600    5.2240 O.3    29  SER29      -0.2179
     18  N         51.1260   -6.3000    3.2260 N.am   30  GLY30      -0.1954
     19  CA        51.1540   -5.8670    1.8350 C.3    30  GLY30       0.1869
     20  C         52.3600   -6.3640    1.0810 C.2    30  GLY30       0.2309
     21  O         53.4570   -5.8580    1.2950 O.2    30  GLY30      -0.2863
     22  N         53.4200   -4.2100    6.8840 N.3    35  VAL35      -0.1245
     23  CA        53.6530   -2.7870    6.6700 C.3    35  VAL35       0.1561
     24  C         53.2170   -1.9980    7.8940 C.2    35  VAL35       0.2260
     25  O         52.1440   -2.2320    8.4480 O.2    35  VAL35      -0.2867
     26  CB        52.9670   -2.2560    5.3740 C.3    35  VAL35       0.0252
     27  CG1       53.3530   -0.8080    5.0830 C.3    35  VAL35       0.0019
     28  CG2       53.2740   -3.1350    4.1660 C.3    35  VAL35       0.0019
     29  N         55.7190    4.5610    4.8780 N.3    48  ALA48      -0.1231
     30  CA        55.2760    3.1780    4.9900 C.3    48  ALA48       0.1694
     31  C         56.5620    2.3800    5.0490 C.2    48  ALA48       0.2592
     32  O         57.4630    2.5870    4.2240 O.2    48  ALA48      -0.2718
     33  CB        54.4460    2.7670    3.7790 C.3    48  ALA48       0.0304
     34  N         56.6850    1.5380    6.0730 N.am   49  VAL49      -0.1966
     35  CA        57.8680    0.7130    6.2800 C.3    49  VAL49       0.1727
     36  C         57.4070   -0.7250    6.1700 C.2    49  VAL49       0.2616
     37  O         56.4580   -1.1230    6.8510 O.2    49  VAL49      -0.2715
     38  CB        58.5610    0.9840    7.6550 C.3    49  VAL49       0.0290
     39  CG1       59.8360    0.1730    7.8030 C.3    49  VAL49       0.0023
     40  CG2       58.8500    2.4680    7.8700 C.3    49  VAL49       0.0023
     41  N         58.0880   -1.5110    5.3310 N.am   50  LYS50      -0.1977
     42  CA        57.7630   -2.9150    5.1800 C.3    50  LYS50       0.1596
     43  C         58.9100   -3.8060    5.6270 C.2    50  LYS50       0.2287
     44  O         60.0370   -3.6250    5.1840 O.2    50  LYS50      -0.2864
     45  CB        57.3140   -3.2600    3.7460 C.3    50  LYS50       0.0298
     46  CG        57.1240   -4.7800    3.5230 C.3    50  LYS50       0.0038
     47  CD        56.3180   -5.0970    2.2910 C.3    50  LYS50       0.0206
     48  CE        57.0960   -5.0130    1.0050 C.3    50  LYS50       0.1093
     49  NZ        56.1910   -5.1830   -0.1620 N.3    50  LYS50      -0.1314
     50  N         62.0790   -7.4980   -5.9320 N.3    68  GLU68      -0.1245
     51  CA        61.4290   -6.3310   -5.3420 C.3    68  GLU68       0.1567
     52  C         62.3880   -5.1730   -5.1220 C.2    68  GLU68       0.2260
     53  O         62.0790   -4.0490   -5.5390 O.2    68  GLU68      -0.2867
     54  CB        60.6720   -6.7000   -4.0600 C.3    68  GLU68       0.0388
     55  CG        59.9430   -5.5260   -3.4380 C.3    68  GLU68       0.1160
     56  CD        58.9220   -5.8230   -2.3570 C.2    68  GLU68       0.3649
     57  OE1       58.9120   -6.9420   -1.7990 O.co2  68  GLU68      -0.2457
     58  OE2       58.1150   -4.9180   -2.0680 O.co2  68  GLU68      -0.2457
     59  N         63.4860   -3.6310   -8.5010 N.3    71  LEU71      -0.1231
     60  CA        62.3440   -2.8780   -9.0270 C.3    71  LEU71       0.1693
     61  C         62.2300   -1.5140   -8.3500 C.2    71  LEU71       0.2591
     62  O         62.2210   -0.5000   -9.0460 O.2    71  LEU71      -0.2718
     63  CB        61.0370   -3.6520   -8.7800 C.3    71  LEU71       0.0284
     64  CG        60.3850   -4.3190   -9.9660 C.3    71  LEU71       0.0019
     65  CD1       59.1570   -5.0710   -9.5290 C.3    71  LEU71       0.0001
     66  CD2       60.0210   -3.3170  -11.0390 C.3    71  LEU71       0.0001
     67  N         62.1500   -1.4930   -7.0050 N.am   72  LEU72      -0.1980
     68  CA        62.0550   -0.2600   -6.2040 C.3    72  LEU72       0.1596
     69  C         63.1890    0.7260   -6.4680 C.2    72  LEU72       0.2287
     70  O         62.9520    1.9270   -6.5050 O.2    72  LEU72      -0.2864
     71  CB        61.9310   -0.5650   -4.7020 C.3    72  LEU72       0.0297
     72  CG        60.6030   -1.2050   -4.2850 C.3    72  LEU72       0.0022
     73  CD1       60.6880   -1.8180   -2.9200 C.3    72  LEU72       0.0001
     74  CD2       59.4500   -0.2100   -4.3880 C.3    72  LEU72       0.0001
     75  N         55.2190    3.9690   -6.9480 N.3    81  ILE81      -0.1245
     76  CA        55.8740    4.0310   -5.6500 C.3    81  ILE81       0.1561
     77  C         57.4050    3.9660   -5.8060 C.2    81  ILE81       0.2260
     78  O         57.9220    3.2300   -6.6550 O.2    81  ILE81      -0.2867
     79  CB        55.2950    3.0040   -4.6400 C.3    81  ILE81       0.0252
     80  CG1       55.4610    3.4960   -3.1930 C.3    81  ILE81       0.0019
     81  CG2       55.8530    1.5860   -4.8400 C.3    81  ILE81       0.0019
     82  CD1       54.5500    4.6280   -2.7300 C.3    81  ILE81       0.0001
     83  N         61.9800   -1.9430    3.8020 N.3   101  LEU101     -0.1245
     84  CA        61.8250   -1.0150    2.6840 C.3   101  LEU101      0.1561
     85  C         60.9510    0.1260    3.1220 C.2   101  LEU101      0.2260
     86  O         59.9200   -0.1060    3.7520 O.2   101  LEU101     -0.2867
     87  CB        61.1980   -1.7350    1.4620 C.3   101  LEU101      0.0270
     88  CG        61.9400   -2.9800    0.9440 C.3   101  LEU101      0.0019
     89  CD1       61.0200   -3.8590    0.1580 C.3   101  LEU101      0.0001
     90  CD2       63.2040   -2.6020    0.1470 C.3   101  LEU101      0.0001
     91  N         58.8740    3.6430    1.8440 N.3   103  THR103     -0.1203
     92  CA        58.2330    4.4110    0.7700 C.3   103  THR103      0.1994
     93  C         57.3540    5.4800    1.4230 C.2   103  THR103      0.2618
     94  O         57.1810    5.4680    2.6420 O.2   103  THR103     -0.2717
     95  CB        57.3450    3.4990   -0.1330 C.3   103  THR103      0.1784
     96  OG1       56.1730    3.0610    0.5730 O.3   103  THR103     -0.2211
     97  CG2       58.0900    2.3160   -0.7450 C.3   103  THR103      0.0376
     98  N         56.7660    6.3670    0.6080 N.am  104  HIS104     -0.1961
     99  CA        55.7970    7.3600    1.0630 C.3   104  HIS104      0.1787
    100  C         54.5380    6.5810    1.4720 C.2   104  HIS104      0.2620
    101  O         54.2540    5.5250    0.8980 O.2   104  HIS104     -0.2715
    102  CB        55.4120    8.3090   -0.0810 C.3   104  HIS104      0.0785
    103  CG        56.4360    9.3430   -0.4240 C.ar  104  HIS104      0.0821
    104  ND1       56.8770   10.3990    0.2970 N.ar  104  HIS104     -0.2267
    105  CD2       57.0540    9.3610   -1.6650 C.ar  104  HIS104      0.1154
    106  CE1       57.7950   11.0580   -0.4840 C.ar  104  HIS104      0.1986
    107  NE2       57.8650   10.4070   -1.6450 N.ar  104  HIS104     -0.2212
    108  N         53.7900    7.0970    2.4510 N.am  105  LEU105     -0.1977
    109  CA        52.5440    6.4820    2.9230 C.3   105  LEU105      0.1596
    110  C         51.3900    7.0720    2.1390 C.2   105  LEU105      0.2287
    111  O         50.4180    6.3720    1.8910 O.2   105  LEU105     -0.2864
    112  CB        52.3740    6.7660    4.4200 C.3   105  LEU105      0.0297
    113  CG        51.1920    6.1630    5.1860 C.3   105  LEU105      0.0022
    114  CD1       51.3090    4.6450    5.2920 C.3   105  LEU105      0.0001
    115  CD2       51.1130    6.7540    6.5830 C.3   105  LEU105      0.0001
    116  N         48.7400    8.6270    2.5670 N.3   107  GLY107     -0.1210
    117  CA        47.6400    8.8460    3.4860 C.3   107  GLY107      0.1956
    118  C         46.7910    7.6070    3.6000 C.2   107  GLY107      0.2612
    119  O         46.6870    7.0250    4.6810 O.2   107  GLY107     -0.2717
    120  N         46.1880    7.1880    2.4800 N.am  108  ALA108     -0.1965
    121  CA        45.3140    6.0180    2.4280 C.3   108  ALA108      0.1728
    122  C         45.3470    5.3550    1.0590 C.2   108  ALA108      0.2616
    123  O         45.9700    5.8630    0.1250 O.2   108  ALA108     -0.2715
    124  CB        43.8810    6.4280    2.7690 C.3   108  ALA108      0.0334
    125  N         44.6930    4.1980    0.9550 N.am  109  ASP109     -0.1971
    126  CA        44.5740    3.4900   -0.3060 C.3   109  ASP109      0.1709
    127  C         43.2430    3.8770   -0.9670 C.2   109  ASP109      0.2293
    128  O         42.4730    4.6430   -0.3750 O.2   109  ASP109     -0.2864
    129  CB        44.8190    1.9690   -0.1700 C.3   109  ASP109      0.1436
    130  CG        43.8400    1.1690    0.6710 C.2   109  ASP109      0.3671
    131  OD1       42.6190    1.3010    0.4490 O.co2 109  ASP109     -0.2456
    132  OD2       44.2970    0.3020    1.4350 O.co2 109  ASP109     -0.2456
    133  N         43.1700   -1.3960   -3.4450 N.3   151  SER151     -0.1217
    134  CA        44.0550   -1.4330   -2.2800 C.3   151  SER151      0.1889
    135  C         45.5450   -1.2220   -2.6050 C.2   151  SER151      0.2288
    136  O         46.3140   -0.9760   -1.6830 O.2   151  SER151     -0.2866
    137  CB        43.8520   -2.7090   -1.4720 C.3   151  SER151      0.2089
    138  OG        44.2270   -3.8550   -2.2170 O.3   151  SER151     -0.2183
    139  N         47.8650    4.0130   -3.6710 N.3   154  ALA154     -0.1245
    140  CA        48.0570    4.8940   -2.5160 C.3   154  ALA154      0.1562
    141  C         47.7650    6.3150   -2.9600 C.2   154  ALA154      0.2260
    142  O         48.3300    6.8020   -3.9470 O.2   154  ALA154     -0.2867
    143  CB        49.4810    4.7720   -1.9820 C.3   154  ALA154      0.0290
    144  N         51.2620    0.6660   -6.1620 N.3   164  LEU164     -0.1231
    145  CA        52.0310   -0.2060   -5.2840 C.3   164  LEU164      0.1693
    146  C         51.9420   -1.6290   -5.7900 C.2   164  LEU164      0.2592
    147  O         50.9810   -1.9850   -6.4530 O.2   164  LEU164     -0.2718
    148  CB        51.4420   -0.2370   -3.8490 C.3   164  LEU164      0.0284
    149  CG        51.0110    1.0380   -3.1350 C.3   164  LEU164      0.0019
    150  CD1       50.3390    0.7030   -1.8400 C.3   164  LEU164      0.0001
    151  CD2       52.1720    1.9240   -2.8460 C.3   164  LEU164      0.0001
    152  N         52.9000   -2.4590   -5.3650 N.am  165  ASP165     -0.1960
    153  CA        52.9900   -3.9090   -5.4970 C.3   165  ASP165      0.1840
    154  C         52.9480   -4.4750   -6.9240 C.2   165  ASP165      0.2622
    155  O         52.5470   -5.6200   -7.1020 O.2   165  ASP165     -0.2715
    156  CB        51.9090   -4.5690   -4.6070 C.3   165  ASP165      0.1450
    157  CG        52.0310   -4.1920   -3.1400 C.2   165  ASP165      0.3671
    158  OD1       53.1610   -3.8600   -2.6970 O.co2 165  ASP165     -0.2456
    159  OD2       51.0130   -4.2670   -2.4240 O.co2 165  ASP165     -0.2456
    160  N         53.4590   -3.7330   -7.9080 N.am  166  PHE166     -0.1974
    161  CA        53.5760   -4.1870   -9.3070 C.3   166  PHE166      0.1639
    162  C         54.8030   -5.0920   -9.4190 C.2   166  PHE166      0.2290
    163  O         55.6950   -5.0110   -8.5680 O.2   166  PHE166     -0.2864
    164  CB        53.7680   -2.9770  -10.2480 C.3   166  PHE166      0.0560
    165  CG        54.8080   -1.9880   -9.7690 C.ar  166  PHE166     -0.0200
    166  CD1       54.4650   -0.9540   -8.9000 C.ar  166  PHE166     -0.0042
    167  CD2       56.1370   -2.1140  -10.1480 C.ar  166  PHE166     -0.0042
    168  CE1       55.4390   -0.0900   -8.3960 C.ar  166  PHE166     -0.0003
    169  CE2       57.1040   -1.2310   -9.6620 C.ar  166  PHE166     -0.0003
    170  CZ        56.7490   -0.2260   -8.7870 C.ar  166  PHE166     -0.0000
    171  N         55.3980   -8.2470   -8.9490 N.3   168  LEU168     -0.1245
    172  CA        55.6140   -9.3270   -7.9850 C.3   168  LEU168      0.1561
    173  C         54.7570  -10.5660   -8.2410 C.2   168  LEU168      0.2260
    174  O         55.2690  -11.6790   -8.1360 O.2   168  LEU168     -0.2867
    175  CB        55.4510   -8.8310   -6.5330 C.3   168  LEU168      0.0270
    176  CG        56.3920   -7.7080   -6.0580 C.3   168  LEU168      0.0019
    177  CD1       56.1510   -7.3780   -4.5950 C.3   168  LEU168      0.0001
    178  CD2       57.8750   -8.0480   -6.3020 C.3   168  LEU168      0.0001
@<TRIPOS>BOND
     1    66    64    1
     2   164   165    1
     3   164   161    1
     4   167   165   ar
     5   167   169   ar
     6    64    65    1
     7    64    63    1
     8   165   166   ar
     9   169   170   ar
    10   162   161    1
    11   162   163    2
    12   161   160    1
    13    62    61    2
    14    60    63    1
    15    60    59    1
    16    60    61    1
    17   171   172    1
    18   166   168   ar
    19   170   168   ar
    20    61    67   am
    21   173   174    2
    22   173   172    1
    23   172   175    1
    24   160   154   am
    25   155   154    2
    26    67    68    1
    27    75    76    1
    28   154   153    1
    29    78    77    2
    30   175   176    1
    31    70    69    2
    32    69    68    1
    33   147   146    2
    34   178   176    1
    35    68    71    1
    36   144   145    1
    37   176   177    1
    38    50    51    1
    39    77    76    1
    40   146   152   am
    41   146   145    1
    42    76    79    1
    43    53    52    2
    44   153   152    1
    45   153   156    1
    46    51    52    1
    47    51    54    1
    48   145   148    1
    49    81    79    1
    50    71    72    1
    51    79    80    1
    52   156   157    1
    53    74    72    1
    54    72    73    1
    55    54    55    1
    56   142   141    2
    57   148   149    1
    58   139   140    1
    59   133   134    1
    60    55    56    1
    61    80    82    1
    62   157   158   ar
    63   157   159   ar
    64   149   151    1
    65   149   150    1
    66   141   140    1
    67   135   134    1
    68   135   136    2
    69   140   143    1
    70    56    58   ar
    71    56    57   ar
    72   134   137    1
    73   138   137    1
    74   105   107   ar
    75   105   103   ar
    76   107   106   ar
    77   127   128    2
    78   127   126    1
    79    97    95    1
    80   106   104   ar
    81   103   102    1
    82   103   104   ar
    83   126   129    1
    84   126   125    1
    85   129   130    1
    86    49    48    1
    87    95    96    1
    88    95    92    1
    89   102    99    1
    90   123   122    2
    91    90    88    1
    92    89    88    1
    93   131   130   ar
    94    98    99    1
    95    98    93   am
    96   130   132   ar
    97    92    93    1
    98    92    91    1
    99   101   100    2
   100    88    87    1
   101   125   122   am
   102    48    47    1
   103   122   121    1
   104    99   100    1
   105    20    21    2
   106    20    19    1
   107    93    94    2
   108    87    84    1
   109   100   108   am
   110    19    18    1
   111   111   110    2
   112   110   109    1
   113    47    46    1
   114   121   120    1
   115   121   124    1
   116   108   109    1
   117   120   118   am
   118   116   117    1
   119    84    85    1
   120    84    83    1
   121   109   112    1
   122    85    86    2
   123    18    14   am
   124    15    14    2
   125   117   118    1
   126    46    45    1
   127   118   119    2
   128    45    42    1
   129    33    30    1
   130    14    13    1
   131    28    26    1
   132    32    31    2
   133   112   113    1
   134    29    30    1
   135    30    31    1
   136    31    34   am
   137    27    26    1
   138    42    41    1
   139    42    43    1
   140    44    43    2
   141   113   114    1
   142   113   115    1
   143    17    16    1
   144    13    16    1
   145    13    12    1
   146    41    36   am
   147    26    23    1
   148    34    35    1
   149    12    10   am
   150    36    35    1
   151    36    37    2
   152    35    38    1
   153    23    22    1
   154    23    24    1
   155     7     5    1
   156    10    11    2
   157    10     9    1
   158     4     3    2
   159     9     8    1
   160    38    39    1
   161    38    40    1
   162     5     6    1
   163     5     2    1
   164     3     8   am
   165     3     2    1
   166    24    25    2
   167     2     1    1
