@<TRIPOS>MOLECULE
tmp/4kiuO00.pdb
 157 150 0 0 0
SMALL
GASTEIGER

@<TRIPOS>ATOM
      1  N         57.0250  -37.1670   -4.4070 N.3     9  PRO9       -0.2102
      2  CA        57.5330  -38.4420   -3.8720 C.3     9  PRO9        0.1504
      3  C         56.7000  -39.6380   -4.2780 C.2     9  PRO9        0.2576
      4  O         55.4790  -39.5210   -4.3970 O.2     9  PRO9       -0.2718
      5  CB        57.4480  -38.2510   -2.3660 C.3     9  PRO9        0.0282
      6  CG        57.4740  -36.7950   -2.1830 C.3     9  PRO9        0.0208
      7  CD        56.6380  -36.2720   -3.3170 C.3     9  PRO9        0.0893
      8  N         57.3770  -40.7590   -4.5370 N.am   10  ASN10      -0.1961
      9  CA        56.7610  -42.0280   -4.9410 C.3    10  ASN10       0.1819
     10  C         56.2110  -42.0480   -6.3650 C.2    10  ASN10       0.2621
     11  O         55.8890  -43.1330   -6.8820 O.2    10  ASN10      -0.2715
     12  CB        55.6760  -42.4360   -3.9420 C.3    10  ASN10       0.1195
     13  CG        56.2040  -42.4860   -2.5200 C.2    10  ASN10       0.2630
     14  OD1       57.0790  -43.2920   -2.2050 O.2    10  ASN10      -0.2716
     15  ND2       55.6990  -41.5910   -1.6640 N.am   10  ASN10      -0.0877
     16  N         56.1140  -40.8750   -7.0120 N.am   11  LEU11      -0.1977
     17  CA        55.5660  -40.8400   -8.3620 C.3    11  LEU11       0.1596
     18  C         56.5040  -41.4600   -9.3960 C.2    11  LEU11       0.2287
     19  O         56.0700  -41.8520  -10.4880 O.2    11  LEU11      -0.2864
     20  CB        55.0690  -39.4470   -8.7540 C.3    11  LEU11       0.0297
     21  CG        53.6450  -39.3120   -8.1960 C.3    11  LEU11       0.0022
     22  CD1       53.2540  -37.8480   -7.9750 C.3    11  LEU11       0.0001
     23  CD2       52.5900  -40.0810   -8.9980 C.3    11  LEU11       0.0001
     24  N         57.6630  -44.2160   -9.1170 N.3    13  ARG13      -0.1231
     25  CA        57.3090  -45.6460   -9.0800 C.3    13  ARG13       0.1694
     26  C         55.9940  -45.9550   -9.7770 C.2    13  ARG13       0.2592
     27  O         55.5000  -47.0850   -9.7130 O.2    13  ARG13      -0.2718
     28  CB        57.1700  -46.1290   -7.6450 C.3    13  ARG13       0.0321
     29  CG        58.2070  -45.5870   -6.6820 C.3    13  ARG13       0.0489
     30  CD        59.4690  -46.3930   -6.7730 C.3    13  ARG13       0.2205
     31  NE        59.1390  -47.7820   -6.4960 N.pl3  13  ARG13      -0.0865
     32  CZ        59.9860  -48.7860   -6.6460 C.cat  13  ARG13       0.5346
     33  NH1       61.2260  -48.5520   -7.0600 N.pl3  13  ARG13       0.1354
     34  NH2       59.5940  -50.0140   -6.3520 N.pl3  13  ARG13       0.1354
     35  N         55.3930  -44.9450  -10.3880 N.am   14  LEU14      -0.1966
     36  CA        54.2420  -45.1510  -11.2410 C.3    14  LEU14       0.1728
     37  C         54.4210  -46.5160  -11.8920 C.2    14  LEU14       0.2616
     38  O         55.3730  -46.7780  -12.6640 O.2    14  LEU14      -0.2715
     39  CB        54.1720  -44.0600  -12.2970 C.3    14  LEU14       0.0311
     40  CG        52.9220  -43.2100  -12.3630 C.3    14  LEU14       0.0022
     41  CD1       52.6230  -42.9340  -13.8270 C.3    14  LEU14       0.0001
     42  CD2       51.7720  -43.9130  -11.6510 C.3    14  LEU14       0.0001
     43  N         53.4810  -47.3770  -11.5710 N.am   15  GLY15      -0.1955
     44  CA        53.8300  -48.7440  -11.3500 C.3    15  GLY15       0.1869
     45  C         53.7330  -49.6960  -12.4890 C.2    15  GLY15       0.2309
     46  O         52.8500  -49.5680  -13.3220 O.2    15  GLY15      -0.2863
     47  N         55.2720  -51.0410   -9.3870 N.3    17  ARG17      -0.1231
     48  CA        53.9720  -51.6940   -9.5750 C.3    17  ARG17       0.1694
     49  C         52.9310  -50.9770   -8.6600 C.2    17  ARG17       0.2591
     50  O         53.1660  -49.8370   -8.2580 O.2    17  ARG17      -0.2718
     51  CB        54.0620  -53.1980   -9.2300 C.3    17  ARG17       0.0321
     52  CG        54.5220  -54.1500  -10.3470 C.3    17  ARG17       0.0489
     53  CD        55.9820  -54.6000  -10.1990 C.3    17  ARG17       0.2205
     54  NE        56.9160  -53.7390  -10.9420 N.pl3  17  ARG17      -0.0865
     55  CZ        58.2500  -53.8470  -10.9410 C.cat  17  ARG17       0.5346
     56  NH1       58.8620  -54.7870  -10.2270 N.pl3  17  ARG17       0.1354
     57  NH2       58.9800  -53.0040  -11.6650 N.pl3  17  ARG17       0.1354
     58  N         51.8140  -51.6540   -8.3340 N.am   18  GLU18      -0.1979
     59  CA        50.6300  -51.1260   -7.5600 C.3    18  GLU18       0.1602
     60  C         49.3730  -50.8620   -8.4390 C.2    18  GLU18       0.2287
     61  O         48.5590  -49.9760   -8.1260 O.2    18  GLU18      -0.2864
     62  CB        50.9690  -49.8550   -6.7510 C.3    18  GLU18       0.0415
     63  CG        51.7390  -50.0590   -5.4410 C.3    18  GLU18       0.1163
     64  CD        52.6900  -48.8990   -5.1070 C.2    18  GLU18       0.3649
     65  OE1       53.5480  -48.5550   -5.9610 O.co2  18  GLU18      -0.2457
     66  OE2       52.5970  -48.3400   -3.9830 O.co2  18  GLU18      -0.2457
     67  N         46.6930  -46.7710   -9.2960 N.3    22  TYR22      -0.1241
     68  CA        47.4410  -45.7980  -10.0870 C.3    22  TYR22       0.1605
     69  C         47.6100  -46.1580  -11.5760 C.2    22  TYR22       0.2264
     70  O         48.1000  -45.3240  -12.3680 O.2    22  TYR22      -0.2867
     71  CB        48.7950  -45.5160   -9.4420 C.3    22  TYR22       0.0534
     72  CG        48.7130  -45.1710   -7.9680 C.ar   22  TYR22      -0.0201
     73  CD1       48.9330  -46.1490   -6.9860 C.ar   22  TYR22      -0.0009
     74  CD2       48.4150  -43.8690   -7.5490 C.ar   22  TYR22      -0.0009
     75  CE1       48.8620  -45.8400   -5.6410 C.ar   22  TYR22       0.0417
     76  CE2       48.3450  -43.5480   -6.2040 C.ar   22  TYR22       0.0417
     77  CZ        48.5670  -44.5400   -5.2530 C.ar   22  TYR22       0.1957
     78  OH        48.4930  -44.2320   -3.9100 O.3    22  TYR22      -0.2866
     79  N         51.3260  -32.7380   -9.1210 N.3    73  ASN73      -0.1240
     80  CA        50.9520  -33.8530   -8.2660 C.3    73  ASN73       0.1653
     81  C         51.9940  -33.9890   -7.1570 C.2    73  ASN73       0.2266
     82  O         53.0330  -34.6170   -7.3550 O.2    73  ASN73      -0.2867
     83  CB        50.8470  -35.1560   -9.0380 C.3    73  ASN73       0.1155
     84  CG        50.1920  -36.2340   -8.2200 C.2    73  ASN73       0.2627
     85  OD1       50.2410  -36.2070   -6.9930 O.2    73  ASN73      -0.2716
     86  ND2       49.5580  -37.1780   -8.8810 N.am   73  ASN73      -0.0877
     87  N         52.1380  -35.6910   -4.5970 N.3    75  GLY75      -0.1210
     88  CA        52.1800  -36.9660   -3.8580 C.3    75  GLY75       0.1956
     89  C         51.7840  -36.7660   -2.4140 C.2    75  GLY75       0.2612
     90  O         50.8160  -36.0540   -2.1470 O.2    75  GLY75      -0.2717
     91  N         52.5370  -37.3660   -1.4840 N.am   76  GLY76      -0.1956
     92  CA        52.2800  -37.2580   -0.0260 C.3    76  GLY76       0.1869
     93  C         52.3920  -35.8280    0.5220 C.2    76  GLY76       0.2309
     94  O         51.6680  -35.4280    1.4440 O.2    76  GLY76      -0.2863
     95  N         49.2800  -33.5040    1.4800 N.3    79  HIS79      -0.1241
     96  CA        48.6370  -33.4830    2.8000 C.3    79  HIS79       0.1621
     97  C         49.4990  -33.0370    3.9550 C.2    79  HIS79       0.2264
     98  O         49.0840  -33.1610    5.1030 O.2    79  HIS79      -0.2867
     99  CB        48.1500  -34.8770    3.1520 C.3    79  HIS79       0.0745
    100  CG        47.6960  -35.6550    1.9740 C.ar   79  HIS79       0.0817
    101  ND1       46.5740  -35.3540    1.3100 N.ar   79  HIS79      -0.2268
    102  CD2       48.2780  -36.7220    1.3090 C.ar   79  HIS79       0.1154
    103  CE1       46.4370  -36.1900    0.2730 C.ar   79  HIS79       0.1986
    104  NE2       47.4780  -37.0290    0.2760 N.ar   79  HIS79      -0.2212
    105  N         45.6070  -35.3820   -8.8790 N.3    99  HIS99      -0.1226
    106  CA        45.8770  -36.6580   -8.2610 C.3    99  HIS99       0.1752
    107  C         45.2950  -37.7090   -9.1790 C.2    99  HIS99       0.2596
    108  O         44.2620  -37.4910   -9.8270 O.2    99  HIS99      -0.2718
    109  CB        45.2660  -36.7460   -6.8800 C.3    99  HIS99       0.0759
    110  CG        45.6530  -35.6400   -5.9700 C.ar   99  HIS99       0.0818
    111  ND1       46.9360  -35.3600   -5.6750 N.ar   99  HIS99      -0.2268
    112  CD2       44.8640  -34.7190   -5.2430 C.ar   99  HIS99       0.1154
    113  CE1       46.9760  -34.2860   -4.8370 C.ar   99  HIS99       0.1986
    114  NE2       45.7020  -33.9030   -4.5750 N.ar   99  HIS99      -0.2212
    115  N         45.9680  -38.8530   -9.2560 N.am  100  ILE100     -0.1966
    116  CA        45.6060  -39.9170  -10.1770 C.3   100  ILE100      0.1727
    117  C         44.4690  -40.7390   -9.6040 C.2   100  ILE100      0.2616
    118  O         43.5390  -41.0330  -10.3010 O.2   100  ILE100     -0.2715
    119  CB        46.8150  -40.8080  -10.4270 C.3   100  ILE100      0.0290
    120  CG1       47.8670  -40.0160  -11.2130 C.3   100  ILE100      0.0022
    121  CG2       46.4180  -42.1720  -11.0420 C.3   100  ILE100      0.0023
    122  CD1       49.2880  -40.5440  -11.0720 C.3   100  ILE100      0.0001
    123  N         44.5480  -41.1060   -8.3310 N.am  101  SER101     -0.1950
    124  CA        43.4690  -41.8370   -7.6230 C.3   101  SER101      0.1924
    125  C         42.4220  -40.8750   -7.0910 C.2   101  SER101      0.2314
    126  O         42.6590  -39.6610   -7.0010 O.2   101  SER101     -0.2863
    127  CB        44.0610  -42.5670   -6.4190 C.3   101  SER101      0.2116
    128  OG        44.5950  -41.6490   -5.4480 O.3   101  SER101     -0.2180
    129  N         41.2780  -39.4890   -4.1630 N.3   103  VAL103     -0.1245
    130  CA        41.7980  -39.3690   -2.8330 C.3   103  VAL103      0.1561
    131  C         40.6680  -39.2530   -1.8090 C.2   103  VAL103      0.2260
    132  O         40.9370  -39.3380   -0.5980 O.2   103  VAL103     -0.2867
    133  CB        42.7270  -38.1360   -2.7070 C.3   103  VAL103      0.0252
    134  CG1       43.8710  -38.2180   -3.7160 C.3   103  VAL103      0.0019
    135  CG2       41.9380  -36.8260   -2.8850 C.3   103  VAL103      0.0019
    136  N         39.5500  -42.8580   -0.3170 N.3   106  ARG106     -0.1245
    137  CA        40.6590  -43.4840    0.4290 C.3   106  ARG106      0.1563
    138  C         40.6530  -43.1380    1.9380 C.2   106  ARG106      0.2260
    139  O         39.6320  -42.7770    2.4630 O.2   106  ARG106     -0.2867
    140  CB        41.9840  -43.2010   -0.2990 C.3   106  ARG106      0.0307
    141  CG        42.0290  -43.9360   -1.6340 C.3   106  ARG106      0.0489
    142  CD        43.2580  -43.6700   -2.5000 C.3   106  ARG106      0.2205
    143  NE        44.4800  -44.1190   -1.8420 N.pl3 106  ARG106     -0.0865
    144  CZ        45.7220  -43.8470   -2.2330 C.cat 106  ARG106      0.5346
    145  NH1       45.9850  -43.1390   -3.3360 N.pl3 106  ARG106      0.1354
    146  NH2       46.7280  -44.3090   -1.5000 N.pl3 106  ARG106      0.1354
    147  N         43.7810  -38.2240    3.4930 N.3   110  ARG110     -0.1245
    148  CA        44.1390  -37.8080    2.1220 C.3   110  ARG110      0.1563
    149  C         43.1250  -36.8230    1.5560 C.2   110  ARG110      0.2260
    150  O         43.3500  -36.2080    0.5130 O.2   110  ARG110     -0.2867
    151  CB        44.2830  -39.0090    1.1850 C.3   110  ARG110      0.0307
    152  CG        45.2750  -40.0720    1.6450 C.3   110  ARG110      0.0489
    153  CD        45.4300  -41.1320    0.5740 C.3   110  ARG110      0.2205
    154  NE        46.1170  -42.3650    0.9930 N.pl3 110  ARG110     -0.0865
    155  CZ        47.4380  -42.5450    0.9880 C.cat 110  ARG110      0.5346
    156  NH1       48.2470  -41.5700    0.6240 N.pl3 110  ARG110      0.1354
    157  NH2       47.9550  -43.7030    1.3640 N.pl3 110  ARG110      0.1354
@<TRIPOS>BOND
     1    41    40    1
     2    46    45    2
     3    38    37    2
     4    45    44    1
     5    70    69    2
     6    40    39    1
     7    40    42    1
     8    39    36    1
     9    37    43   am
    10    37    36    1
    11    57    55    1
    12    69    68    1
    13    43    44    1
    14    36    35    1
    15   120   122    1
    16   120   119    1
    17   121   119    1
    18    54    55    2
    19    54    53    1
    20    55    56    1
    21    19    18    2
    22   119   116    1
    23    35    26   am
    24    52    53    1
    25    52    51    1
    26   118   117    2
    27   116   117    1
    28   116   115    1
    29    68    71    1
    30    68    67    1
    31   108   107    2
    32    26    27    2
    33    26    25    1
    34   117   123   am
    35    48    47    1
    36    48    51    1
    37    48    49    1
    38    71    72    1
    39    18    17    1
    40   115   107   am
    41   107   106    1
    42    79    80    1
    43    24    25    1
    44    25    28    1
    45    83    80    1
    46    83    84    1
    47    23    21    1
    48    86    84   am
    49   105   106    1
    50    20    17    1
    51    20    21    1
    52    49    58   am
    53    49    50    2
    54    60    61    2
    55    60    59    1
    56    17    16    1
    57    58    59    1
    58   123   124    1
    59    80    81    1
    60   106   109    1
    61    84    85    2
    62    21    22    1
    63    72    74   ar
    64    72    73   ar
    65    28    29    1
    66   124   125    1
    67   124   127    1
    68    59    62    1
    69    74    76   ar
    70    82    81    2
    71   125   126    2
    72    33    32    1
    73    16    10   am
    74    73    75   ar
    75    11    10    2
    76   109   110    1
    77    30    29    1
    78    30    31    1
    79    62    63    1
    80    32    31    2
    81    32    34    1
    82   127   128    1
    83    10     9    1
    84    76    77   ar
    85   110   111   ar
    86   110   112   ar
    87    65    64   ar
    88   111   113   ar
    89    75    77   ar
    90    63    64    1
    91    77    78    1
    92   112   114   ar
    93    64    66   ar
    94     9     8    1
    95     9    12    1
    96   113   114   ar
    97    87    88    1
    98     8     3   am
    99     1     2    1
   100     1     7    1
   101     4     3    2
   102     3     2    1
   103   129   130    1
   104    12    13    1
   105     2     5    1
   106    88    89    1
   107   134   133    1
   108   145   144    1
   109     7     6    1
   110   135   133    1
   111   130   133    1
   112   130   131    1
   113    13    14    2
   114    13    15   am
   115   142   143    1
   116   142   141    1
   117    89    90    2
   118    89    91   am
   119     5     6    1
   120   144   143    2
   121   144   146    1
   122   131   132    2
   123   141   140    1
   124    91    92    1
   125   136   137    1
   126   140   137    1
   127    92    93    1
   128   103   104   ar
   129   103   101   ar
   130   104   102   ar
   131   137   138    1
   132   150   149    2
   133    93    94    2
   134   153   154    1
   135   153   152    1
   136   156   155    1
   137   155   154    2
   138   155   157    1
   139   151   152    1
   140   151   148    1
   141   102   100   ar
   142   101   100   ar
   143    95    96    1
   144   149   148    1
   145   138   139    2
   146   100    99    1
   147   148   147    1
   148    96    99    1
   149    96    97    1
   150    97    98    2
