@<TRIPOS>MOLECULE
tmp/4kiwE00.pdb
 154 148 0 0 0
SMALL
GASTEIGER

@<TRIPOS>ATOM
      1  N        -19.0520   -4.3520   41.7340 N.3     9  PRO9       -0.2102
      2  CA       -19.0550   -5.8100   41.7830 C.3     9  PRO9        0.1504
      3  C        -19.6530   -6.3860   43.0660 C.2     9  PRO9        0.2576
      4  O        -19.4050   -5.8620   44.1580 O.2     9  PRO9       -0.2718
      5  CB       -17.5730   -6.1540   41.6700 C.3     9  PRO9        0.0282
      6  CG       -17.0100   -5.0480   40.8560 C.3     9  PRO9        0.0208
      7  CD       -17.7650   -3.8210   41.2560 C.3     9  PRO9        0.0893
      8  N        -20.4310   -7.4610   42.9100 N.am   10  ASN10      -0.1961
      9  CA       -21.0250   -8.1870   44.0250 C.3    10  ASN10       0.1819
     10  C        -22.2550   -7.5310   44.6460 C.2    10  ASN10       0.2621
     11  O        -23.0250   -8.2020   45.3340 O.2    10  ASN10      -0.2715
     12  CB       -20.0000   -8.4650   45.1130 C.3    10  ASN10       0.1195
     13  CG       -18.8560   -9.3220   44.6270 C.2    10  ASN10       0.2630
     14  OD1      -19.0570  -10.4430   44.1610 O.2    10  ASN10      -0.2716
     15  ND2      -17.6430   -8.8030   44.7440 N.am   10  ASN10      -0.0877
     16  N        -22.4590   -6.2380   44.4130 N.am   11  LEU11      -0.1977
     17  CA       -23.5840   -5.5660   45.0440 C.3    11  LEU11       0.1596
     18  C        -24.9420   -5.9470   44.4490 C.2    11  LEU11       0.2287
     19  O        -25.9850   -5.7030   45.0680 O.2    11  LEU11      -0.2864
     20  CB       -23.3790   -4.0610   45.0780 C.3    11  LEU11       0.0297
     21  CG       -22.3180   -3.6640   46.1020 C.3    11  LEU11       0.0022
     22  CD1      -21.6090   -2.4020   45.6250 C.3    11  LEU11       0.0001
     23  CD2      -22.9250   -3.5070   47.4860 C.3    11  LEU11       0.0001
     24  N        -25.7570   -8.7560   44.5550 N.3    13  ARG13      -0.1231
     25  CA       -26.0330   -9.9110   45.4030 C.3    13  ARG13       0.1694
     26  C        -26.7600   -9.5590   46.7130 C.2    13  ARG13       0.2592
     27  O        -27.0340  -10.4450   47.5220 O.2    13  ARG13      -0.2718
     28  CB       -24.7210  -10.6680   45.7030 C.3    13  ARG13       0.0321
     29  CG       -23.9890  -11.2630   44.4990 C.3    13  ARG13       0.0489
     30  CD       -24.5680  -12.6160   44.0910 C.3    13  ARG13       0.2205
     31  NE       -24.3540  -13.6550   45.1110 N.pl3  13  ARG13      -0.0865
     32  CZ       -24.9030  -14.8720   45.0820 C.cat  13  ARG13       0.5346
     33  NH1      -25.7110  -15.2230   44.0910 N.pl3  13  ARG13       0.1354
     34  NH2      -24.6600  -15.7450   46.0530 N.pl3  13  ARG13       0.1354
     35  N        -27.0870   -8.2820   46.9110 N.am   14  LEU14      -0.1966
     36  CA       -27.5680   -7.7760   48.2110 C.3    14  LEU14       0.1728
     37  C        -28.7590   -8.4760   48.7920 C.2    14  LEU14       0.2617
     38  O        -29.6100   -8.9360   48.0560 O.2    14  LEU14      -0.2715
     39  CB       -27.9240   -6.3010   48.1120 C.3    14  LEU14       0.0311
     40  CG       -26.8830   -5.2640   48.5070 C.3    14  LEU14       0.0022
     41  CD1      -27.5710   -3.9180   48.4120 C.3    14  LEU14       0.0001
     42  CD2      -26.3330   -5.5110   49.9030 C.3    14  LEU14       0.0001
     43  N        -28.8230   -8.5240   50.1200 N.am   15  GLY15      -0.1940
     44  CA       -29.9630   -9.1080   50.8480 C.3    15  GLY15       0.2014
     45  C        -29.9070  -10.6230   50.9540 C.2    15  GLY15       0.2639
     46  O        -30.6400  -11.2410   51.7460 O.2    15  GLY15      -0.2714
     47  N        -29.0290  -11.2070   50.1380 N.am   16  ARG16      -0.1963
     48  CA       -28.7950  -12.6430   50.0860 C.3    16  ARG16       0.1729
     49  C        -27.4650  -12.9020   50.7730 C.2    16  ARG16       0.2616
     50  O        -26.4100  -12.5030   50.2750 O.2    16  ARG16      -0.2715
     51  CB       -28.7760  -13.1310   48.6310 C.3    16  ARG16       0.0348
     52  CG       -30.0380  -12.7720   47.8470 C.3    16  ARG16       0.0492
     53  CD       -29.8060  -12.7150   46.3400 C.3    16  ARG16       0.2205
     54  NE       -30.8490  -11.9540   45.6450 N.pl3  16  ARG16      -0.0865
     55  CZ       -30.8760  -11.7100   44.3340 C.cat  16  ARG16       0.5346
     56  NH1      -29.9200  -12.1710   43.5320 N.pl3  16  ARG16       0.1354
     57  NH2      -31.8740  -10.9980   43.8200 N.pl3  16  ARG16       0.1354
     58  N        -27.5460  -13.5340   51.9440 N.am   17  ARG17      -0.1977
     59  CA       -26.3980  -13.7890   52.8200 C.3    17  ARG17       0.1597
     60  C        -25.2930  -12.7220   52.7380 C.2    17  ARG17       0.2287
     61  O        -25.5440  -11.5310   52.9320 O.2    17  ARG17      -0.2864
     62  CB       -25.8270  -15.1870   52.5570 C.3    17  ARG17       0.0334
     63  CG       -26.6690  -16.3260   53.1080 C.3    17  ARG17       0.0492
     64  CD       -26.1540  -17.6710   52.6100 C.3    17  ARG17       0.2205
     65  NE       -26.3180  -17.8120   51.1630 N.pl3  17  ARG17      -0.0865
     66  CZ       -25.3740  -17.5500   50.2600 C.cat  17  ARG17       0.5346
     67  NH1      -24.1750  -17.1220   50.6400 N.pl3  17  ARG17       0.1354
     68  NH2      -25.6370  -17.6970   48.9680 N.pl3  17  ARG17       0.1354
     69  N        -20.7420    3.1690   44.9820 N.3    68  ASN68      -0.1240
     70  CA       -20.2240    2.0510   45.7800 C.3    68  ASN68       0.1653
     71  C        -19.5330    1.0780   44.8300 C.2    68  ASN68       0.2266
     72  O        -20.1290    0.1080   44.3800 O.2    68  ASN68      -0.2867
     73  CB       -21.3390    1.3560   46.5740 C.3    68  ASN68       0.1155
     74  CG       -20.8020    0.4630   47.7020 C.2    68  ASN68       0.2627
     75  OD1      -19.6050    0.1600   47.7650 O.2    68  ASN68      -0.2716
     76  ND2      -21.6950    0.0510   48.6090 N.am   68  ASN68      -0.0877
     77  N        -17.7030   -1.2200   45.0810 N.3    70  GLY70      -0.1210
     78  CA       -17.2870   -2.5030   45.6660 C.3    70  GLY70       0.1956
     79  C        -15.7650   -2.6180   45.8180 C.2    70  GLY70       0.2612
     80  O        -15.0820   -1.6170   46.0550 O.2    70  GLY70      -0.2717
     81  N        -15.2230   -3.8230   45.6530 N.am   71  GLY71      -0.1956
     82  CA       -13.7810   -4.0220   45.7130 C.3    71  GLY71       0.1869
     83  C        -12.9960   -3.0870   44.8040 C.2    71  GLY71       0.2309
     84  O        -11.8380   -2.7530   45.0940 O.2    71  GLY71      -0.2863
     85  N        -12.7440   -0.2260   44.5420 N.3    73  THR73      -0.1203
     86  CA       -12.3160    0.9490   45.3170 C.3    73  THR73       0.1994
     87  C        -10.8160    0.9300   45.5970 C.2    73  THR73       0.2617
     88  O        -10.1900    1.9860   45.6330 O.2    73  THR73      -0.2717
     89  CB       -13.0460    0.9620   46.6890 C.3    73  THR73       0.1784
     90  OG1      -14.4420    0.6750   46.5080 O.3    73  THR73      -0.2211
     91  CG2      -12.8820    2.2840   47.4130 C.3    73  THR73       0.0376
     92  N        -10.2720   -0.2820   45.8040 N.am   74  HIS74      -0.1975
     93  CA        -8.9020   -0.5160   46.2900 C.3    74  HIS74       0.1656
     94  C         -7.9450   -1.0500   45.2010 C.2    74  HIS74       0.2291
     95  O         -6.7400   -1.2400   45.4470 O.2    74  HIS74      -0.2864
     96  CB        -8.9140   -1.4960   47.4610 C.3    74  HIS74       0.0771
     97  CG       -10.0850   -1.3400   48.3850 C.ar   74  HIS74       0.0820
     98  ND1      -10.2200   -0.2700   49.2460 N.ar   74  HIS74      -0.2267
     99  CD2      -11.1720   -2.1230   48.5880 C.ar   74  HIS74       0.1154
    100  CE1      -11.3430   -0.3950   49.9270 C.ar   74  HIS74       0.1986
    101  NE2      -11.9420   -1.5080   49.5430 N.ar   74  HIS74      -0.2212
    102  N        -19.9280    3.4730   51.0530 N.3    94  HIS94      -0.1226
    103  CA       -19.8480    2.0750   51.4050 C.3    94  HIS94       0.1752
    104  C        -20.8840    1.7750   52.4810 C.2    94  HIS94       0.2596
    105  O        -21.0530    2.5600   53.4180 O.2    94  HIS94      -0.2718
    106  CB       -18.4400    1.7130   51.8330 C.3    94  HIS94       0.0759
    107  CG       -17.4080    2.0150   50.7910 C.ar   94  HIS94       0.0818
    108  ND1      -17.3890    1.3940   49.5580 N.ar   94  HIS94      -0.2268
    109  CD2      -16.3610    2.8730   50.7930 C.ar   94  HIS94       0.1154
    110  CE1      -16.3730    1.8500   48.8500 C.ar   94  HIS94       0.1986
    111  NE2      -15.7320    2.7470   49.5770 N.ar   94  HIS94      -0.2212
    112  N        -21.5980    0.6620   52.3070 N.am   95  ILE95      -0.1966
    113  CA       -22.6180    0.1870   53.2450 C.3    95  ILE95       0.1727
    114  C        -22.0010   -0.1900   54.6130 C.2    95  ILE95       0.2616
    115  O        -22.5600    0.1260   55.6510 O.2    95  ILE95      -0.2715
    116  CB       -23.3960   -1.0300   52.6480 C.3    95  ILE95       0.0290
    117  CG1      -23.8700   -0.7540   51.2300 C.3    95  ILE95       0.0022
    118  CG2      -24.6170   -1.4170   53.4750 C.3    95  ILE95       0.0023
    119  CD1      -24.4630   -1.9710   50.5670 C.3    95  ILE95       0.0001
    120  N        -20.8530   -0.8640   54.6110 N.am   96  SER96      -0.1950
    121  CA       -20.1990   -1.2740   55.8530 C.3    96  SER96       0.1924
    122  C        -19.0800   -0.3100   56.2090 C.2    96  SER96       0.2314
    123  O        -18.6360    0.4640   55.3480 O.2    96  SER96      -0.2863
    124  CB       -19.6060   -2.6690   55.6870 C.3    96  SER96       0.2116
    125  OG       -18.5850   -2.6510   54.7010 O.3    96  SER96      -0.2180
    126  N        -15.6970    0.1870   56.2920 N.3    98  VAL98      -0.1245
    127  CA       -14.5190   -0.4100   55.6600 C.3    98  VAL98       0.1561
    128  C        -13.2230   -0.2570   56.4900 C.2    98  VAL98       0.2260
    129  O        -12.2410   -0.9960   56.2880 O.2    98  VAL98      -0.2867
    130  CB       -14.3690    0.1020   54.2080 C.3    98  VAL98       0.0252
    131  CG1      -15.5110   -0.4180   53.3510 C.3    98  VAL98       0.0019
    132  CG2      -14.3270    1.6210   54.1710 C.3    98  VAL98       0.0019
    133  N        -12.4010   -3.1660   59.0800 N.3   101  ARG101     -0.1245
    134  CA       -12.3140   -4.4250   58.3730 C.3   101  ARG101      0.1563
    135  C        -10.8540   -4.7920   58.0850 C.2   101  ARG101      0.2260
    136  O         -9.9920   -4.5040   58.9220 O.2   101  ARG101     -0.2867
    137  CB       -13.2250   -4.3900   57.1540 C.3   101  ARG101      0.0307
    138  CG       -14.6770   -4.4870   57.5770 C.3   101  ARG101      0.0489
    139  CD       -15.6160   -4.5840   56.3960 C.3   101  ARG101      0.2205
    140  NE       -15.4630   -5.8130   55.6260 N.pl3 101  ARG101     -0.0865
    141  CZ       -15.8840   -5.9530   54.3730 C.cat 101  ARG101      0.5346
    142  NH1      -16.4570   -4.9200   53.7430 N.pl3 101  ARG101      0.1354
    143  NH2      -15.7270   -7.1210   53.7430 N.pl3 101  ARG101      0.1354
    144  N         -8.7950   -2.7110   52.8780 N.3   105  ARG105     -0.1245
    145  CA       -10.0310   -1.9400   52.7150 C.3   105  ARG105      0.1563
    146  C         -9.9630   -0.5210   53.3080 C.2   105  ARG105      0.2260
    147  O        -10.8430    0.3000   53.0610 O.2   105  ARG105     -0.2867
    148  CB       -11.2300   -2.7120   53.2580 C.3   105  ARG105      0.0307
    149  CG       -11.6620   -3.8700   52.3770 C.3   105  ARG105      0.0489
    150  CD       -12.9440   -4.5110   52.8970 C.3   105  ARG105      0.2205
    151  NE       -12.8670   -5.9680   52.8230 N.pl3 105  ARG105     -0.0865
    152  CZ       -13.2300   -6.6990   51.7720 C.cat 105  ARG105      0.5346
    153  NH1      -13.7190   -6.1380   50.6660 N.pl3 105  ARG105      0.1354
    154  NH2      -13.0930   -8.0110   51.8360 N.pl3 105  ARG105      0.1354
@<TRIPOS>BOND
     1     6     7    1
     2     6     5    1
     3     7     1    1
     4     5     2    1
     5     1     2    1
     6     2     3    1
     7     8     3   am
     8     8     9    1
     9     3     4    2
    10    56    55    1
    11    57    55    1
    12     9    10    1
    13     9    12    1
    14    33    32    1
    15    30    29    1
    16    30    31    1
    17    14    13    2
    18    55    54    2
    19    72    71    2
    20    16    10   am
    21    16    17    1
    22    18    17    1
    23    18    19    2
    24    29    28    1
    25    85    86    1
    26    24    25    1
    27    13    15   am
    28    13    12    1
    29    10    11    2
    30    83    84    2
    31    83    82    1
    32    71    70    1
    33    69    70    1
    34    17    20    1
    35    20    21    1
    36    77    78    1
    37    32    31    2
    38    32    34    1
    39    94    95    2
    40    94    93    1
    41    86    87    1
    42    86    89    1
    43    25    28    1
    44    25    26    1
    45    87    88    2
    46    87    92   am
    47    22    21    1
    48    54    53    1
    49    81    82    1
    50    81    79   am
    51    78    79    1
    52    70    73    1
    53    92    93    1
    54    79    80    2
    55    21    23    1
    56    93    96    1
    57    53    52    1
    58    90    89    1
    59    73    74    1
    60    89    91    1
    61    26    35   am
    62    26    27    2
    63    35    36    1
    64    96    97    1
    65    74    75    2
    66    74    76   am
    67    52    51    1
    68    38    37    2
    69    39    36    1
    70    39    40    1
    71    36    37    1
    72    97    99   ar
    73    97    98   ar
    74    41    40    1
    75    40    42    1
    76    99   101   ar
    77    51    48    1
    78    37    43   am
    79   110   108   ar
    80   110   111   ar
    81    68    66    1
    82    98   100   ar
    83   101   100   ar
    84   108   107   ar
    85   111   109   ar
    86    48    47    1
    87    48    49    1
    88    43    44    1
    89    47    45   am
    90    66    67    1
    91    66    65    2
    92    50    49    2
    93   119   117    1
    94   153   152    1
    95    49    58   am
    96   107   109   ar
    97   107   106    1
    98    44    45    1
    99    45    46    2
   100   102   103    1
   101    65    64    1
   102   117   116    1
   103   103   106    1
   104   103   104    1
   105   152   154    1
   106   152   151    2
   107    58    59    1
   108   112   104   am
   109   112   113    1
   110   149   150    1
   111   149   148    1
   112   104   105    2
   113    62    59    1
   114    62    63    1
   115    64    63    1
   116   116   113    1
   117   116   118    1
   118   145   144    1
   119   145   148    1
   120   145   146    1
   121    60    59    1
   122    60    61    2
   123   151   150    1
   124   147   146    2
   125   113   114    1
   126   131   130    1
   127   143   141    1
   128   142   141    1
   129   132   130    1
   130   130   127    1
   131   141   140    2
   132   120   114   am
   133   120   121    1
   134   114   115    2
   135   125   124    1
   136   123   122    2
   137   140   139    1
   138   127   126    1
   139   127   128    1
   140   124   121    1
   141   121   122    1
   142   129   128    2
   143   139   138    1
   144   137   138    1
   145   137   134    1
   146   135   134    1
   147   135   136    2
   148   134   133    1
