@<TRIPOS>MOLECULE
tmp/4kjgA00.pdb
 97 93 0 0 0
SMALL
GASTEIGER

@<TRIPOS>ATOM
      1  N         13.7240  -23.2470  -20.3540 N.3    91  ASP91      -0.1225
      2  CA        12.8140  -22.2370  -19.8170 C.3    91  ASP91       0.1805
      3  C         11.5310  -22.1830  -20.6890 C.2    91  ASP91       0.2598
      4  O         11.4310  -22.9160  -21.6730 O.2    91  ASP91      -0.2718
      5  CB        13.5130  -20.8570  -19.7070 C.3    91  ASP91       0.1424
      6  CG        13.4240  -19.9280  -20.9000 C.2    91  ASP91       0.3668
      7  OD1       13.7910  -20.3540  -22.0240 O.co2  91  ASP91      -0.2456
      8  OD2       13.0380  -18.7610  -20.7060 O.co2  91  ASP91      -0.2456
      9  N         10.5580  -21.3240  -20.3130 N.am   92  SER92      -0.1952
     10  CA         9.2930  -21.1490  -21.0310 C.3    92  SER92       0.1924
     11  C          9.4460  -20.4240  -22.3570 C.2    92  SER92       0.2314
     12  O          8.6900  -20.7170  -23.2720 O.2    92  SER92      -0.2863
     13  CB         8.2970  -20.4000  -20.1640 C.3    92  SER92       0.2116
     14  OG         8.0740  -21.1120  -18.9610 O.3    92  SER92      -0.2180
     15  N         17.5130  -20.1000  -24.4880 N.3   107  TYR107     -0.1227
     16  CA        16.9620  -19.8360  -23.1670 C.3   107  TYR107      0.1736
     17  C         16.6990  -18.3060  -22.9800 C.2   107  TYR107      0.2595
     18  O         17.5790  -17.4760  -23.2760 O.2   107  TYR107     -0.2718
     19  CB        18.0510  -20.3220  -22.1980 C.3   107  TYR107      0.0548
     20  CG        17.8220  -20.1390  -20.7210 C.ar  107  TYR107     -0.0200
     21  CD1       17.0430  -21.0390  -20.0020 C.ar  107  TYR107     -0.0009
     22  CD2       18.5280  -19.1780  -20.0040 C.ar  107  TYR107     -0.0009
     23  CE1       16.8960  -20.9260  -18.6210 C.ar  107  TYR107      0.0417
     24  CE2       18.3770  -19.0490  -18.6260 C.ar  107  TYR107      0.0417
     25  CZ        17.5680  -19.9310  -17.9390 C.ar  107  TYR107      0.1957
     26  OH        17.3930  -19.8080  -16.5900 O.3   107  TYR107     -0.2866
     27  N         15.4750  -17.9530  -22.5350 N.am  108  LYS108     -0.1980
     28  CA        14.9980  -16.5740  -22.2590 C.3   108  LYS108      0.1596
     29  C         14.6980  -15.6470  -23.4540 C.2   108  LYS108      0.2287
     30  O         14.3550  -14.4790  -23.2510 O.2   108  LYS108     -0.2864
     31  CB        15.8010  -15.8710  -21.1520 C.3   108  LYS108      0.0298
     32  CG        15.6780  -16.5200  -19.7810 C.3   108  LYS108      0.0038
     33  CD        16.6480  -15.8800  -18.8010 C.3   108  LYS108      0.0206
     34  CE        15.9960  -15.4500  -17.5110 C.3   108  LYS108      0.1093
     35  NZ        15.6830  -16.5950  -16.6130 N.3   108  LYS108     -0.1314
     36  N          3.3200  -12.8830  -21.1670 N.3   153  HIS153     -0.1241
     37  CA         4.2280  -13.9210  -20.6630 C.3   153  HIS153      0.1621
     38  C          4.8410  -14.7160  -21.8160 C.2   153  HIS153      0.2264
     39  O          4.3220  -14.6740  -22.9320 O.2   153  HIS153     -0.2867
     40  CB         3.5270  -14.8470  -19.6760 C.3   153  HIS153      0.0745
     41  CG         4.2980  -15.0280  -18.4060 C.ar  153  HIS153      0.0817
     42  ND1        4.7140  -16.2740  -17.9910 N.ar  153  HIS153     -0.2268
     43  CD2        4.7170  -14.1040  -17.5040 C.ar  153  HIS153      0.1154
     44  CE1        5.3610  -16.0760  -16.8520 C.ar  153  HIS153      0.1986
     45  NE2        5.3820  -14.7870  -16.5170 N.ar  153  HIS153     -0.2212
     46  N         12.7780  -12.0540  -22.4500 N.3   166  ARG166     -0.1245
     47  CA        11.3940  -12.3390  -22.0440 C.3   166  ARG166      0.1563
     48  C         10.8680  -11.4500  -20.9090 C.2   166  ARG166      0.2260
     49  O          9.6630  -11.4170  -20.6980 O.2   166  ARG166     -0.2867
     50  CB        11.1950  -13.8400  -21.7320 C.3   166  ARG166      0.0307
     51  CG        12.1100  -14.3940  -20.6370 C.3   166  ARG166      0.0489
     52  CD        11.4250  -14.4330  -19.2970 C.3   166  ARG166      0.2205
     53  NE        10.7850  -15.7240  -19.0680 N.pl3 166  ARG166     -0.0865
     54  CZ         9.4760  -15.8990  -18.9390 C.cat 166  ARG166      0.5346
     55  NH1        8.9830  -17.1100  -18.7110 N.pl3 166  ARG166      0.1354
     56  NH2        8.6440  -14.8620  -19.0370 N.pl3 166  ARG166      0.1354
     57  N          2.7430  -24.2740  -13.8530 N.3   316  ASP316     -0.1239
     58  CA         4.1550  -23.9470  -13.7200 C.3   316  ASP316      0.1674
     59  C          4.4340  -23.1620  -12.4120 C.2   316  ASP316      0.2266
     60  O          5.2800  -23.5720  -11.6090 O.2   316  ASP316     -0.2867
     61  CB         4.5960  -23.1310  -14.9420 C.3   316  ASP316      0.1410
     62  CG         6.0850  -22.9840  -15.0410 C.2   316  ASP316      0.3668
     63  OD1        6.7760  -24.0140  -15.1060 O.co2 316  ASP316     -0.2456
     64  OD2        6.5580  -21.8490  -15.0650 O.co2 316  ASP316     -0.2456
     65  N          6.6460  -23.8180   -9.1590 N.3   320  HIS320     -0.1241
     66  CA         7.7340  -22.8940   -8.7830 C.3   320  HIS320      0.1621
     67  C          7.6540  -22.5010   -7.2920 C.2   320  HIS320      0.2264
     68  O          8.6830  -22.4130   -6.6410 O.2   320  HIS320     -0.2867
     69  CB         7.7510  -21.6310   -9.6560 C.3   320  HIS320      0.0745
     70  CG         8.3740  -21.8510  -11.0000 C.ar  320  HIS320      0.0817
     71  ND1        9.6340  -22.3870  -11.1260 N.ar  320  HIS320     -0.2268
     72  CD2        7.8740  -21.6130  -12.2330 C.ar  320  HIS320      0.1154
     73  CE1        9.8680  -22.4600  -12.4250 C.ar  320  HIS320      0.1986
     74  NE2        8.8410  -21.9950  -13.1310 N.ar  320  HIS320     -0.2212
     75  N         12.6780  -20.2480   -5.9090 N.3   429  SER429     -0.1217
     76  CA        11.7150  -20.8420   -6.8250 C.3   429  SER429      0.1889
     77  C         12.2240  -22.2160   -7.2580 C.2   429  SER429      0.2288
     78  O         13.3940  -22.3490   -7.6170 O.2   429  SER429     -0.2866
     79  CB        11.5160  -19.9170   -8.0300 C.3   429  SER429      0.2089
     80  OG        10.8340  -20.5330   -9.1110 O.3   429  SER429     -0.2183
     81  N         12.9230  -25.4450   -9.6760 N.3   431  THR431     -0.1203
     82  CA        13.3300  -25.4050  -11.0770 C.3   431  THR431      0.1994
     83  C         12.5590  -26.3490  -11.9970 C.2   431  THR431      0.2617
     84  O         12.0310  -27.3780  -11.5540 O.2   431  THR431     -0.2717
     85  CB        14.8330  -25.7030  -11.2320 C.3   431  THR431      0.1784
     86  OG1       15.0820  -27.1030  -11.0860 O.3   431  THR431     -0.2211
     87  CG2       15.7080  -24.8780  -10.2940 C.3   431  THR431      0.0376
     88  N         12.6090  -26.0510  -13.3190 N.am  432  HIS432     -0.1975
     89  CA        12.0810  -26.9360  -14.3510 C.3   432  HIS432      0.1656
     90  C         12.8710  -28.2600  -14.3380 C.2   432  HIS432      0.2291
     91  O         13.9410  -28.3280  -13.7460 O.2   432  HIS432     -0.2864
     92  CB        12.2440  -26.2770  -15.7350 C.3   432  HIS432      0.0771
     93  CG        11.4530  -25.0180  -15.9250 C.ar  432  HIS432      0.0820
     94  ND1       11.6500  -24.2090  -17.0320 N.ar  432  HIS432     -0.2267
     95  CD2       10.4910  -24.4670  -15.1510 C.ar  432  HIS432      0.1154
     96  CE1       10.8390  -23.1830  -16.8820 C.ar  432  HIS432      0.1986
     97  NE2       10.1110  -23.2970  -15.7750 N.ar  432  HIS432     -0.2212
@<TRIPOS>BOND
     1    15    16    1
     2    29    30    2
     3    29    28    1
     4    18    17    2
     5    12    11    2
     6    16    17    1
     7    16    19    1
     8    17    27   am
     9    39    38    2
    10    27    28    1
    11    46    47    1
    12    11    10    1
    13    28    31    1
    14    19    20    1
    15    47    50    1
    16    47    48    1
    17     7     6   ar
    18    38    37    1
    19    50    51    1
    20     4     3    2
    21    36    37    1
    22    31    32    1
    23    10     9    1
    24    10    13    1
    25    48    49    2
    26     6     8   ar
    27     6     5    1
    28    20    22   ar
    29    20    21   ar
    30     3     9   am
    31     3     2    1
    32    37    40    1
    33    51    52    1
    34     1     2    1
    35    13    14    1
    36    22    24   ar
    37    21    23   ar
    38     2     5    1
    39    32    33    1
    40    40    41    1
    41    52    53    1
    42    53    54    2
    43    56    54    1
    44    54    55    1
    45    33    34    1
    46    24    25   ar
    47    23    25   ar
    48    41    42   ar
    49    41    43   ar
    50    42    44   ar
    51    25    26    1
    52    34    35    1
    53    43    45   ar
    54    94    96   ar
    55    94    93   ar
    56    96    97   ar
    57    44    45   ar
    58    93    92    1
    59    93    95   ar
    60    97    95   ar
    61    92    89    1
    62    63    62   ar
    63    64    62   ar
    64    62    61    1
    65    61    58    1
    66    89    90    1
    67    89    88    1
    68    90    91    2
    69    57    58    1
    70    58    59    1
    71    88    83   am
    72    74    73   ar
    73    74    72   ar
    74    73    71   ar
    75    59    60    2
    76    72    70   ar
    77    83    84    2
    78    83    82    1
    79    85    86    1
    80    85    82    1
    81    85    87    1
    82    71    70   ar
    83    82    81    1
    84    70    69    1
    85    69    66    1
    86    65    66    1
    87    80    79    1
    88    66    67    1
    89    79    76    1
    90    78    77    2
    91    67    68    2
    92    77    76    1
    93    76    75    1
