@<TRIPOS>MOLECULE
tmp/4kjuA00.pdb
 115 114 0 0 0
SMALL
GASTEIGER

@<TRIPOS>ATOM
      1  N         24.9570   41.1510   17.9730 N.3    47  GLN47      -0.1245
      2  CA        24.9930   39.6640   17.9950 C.3    47  GLN47       0.1566
      3  C         23.7210   39.1410   18.6380 C.2    47  GLN47       0.2260
      4  O         23.4020   39.4930   19.7720 O.2    47  GLN47      -0.2867
      5  CB        26.1690   39.1800   18.7930 C.3    47  GLN47       0.0367
      6  CG        26.2910   37.6430   18.8770 C.3    47  GLN47       0.0905
      7  CD        27.5240   37.3210   19.7180 C.2    47  GLN47       0.2608
      8  OE1       27.5100   37.3860   20.9640 O.2    47  GLN47      -0.2717
      9  NE2       28.5790   37.0330   19.0450 N.am   47  GLN47      -0.0878
     10  N         24.8660   31.7180   16.5060 N.3    56  LYS56      -0.1231
     11  CA        24.9340   33.1510   16.6370 C.3    56  LYS56       0.1693
     12  C         25.0800   33.7960   15.2840 C.2    56  LYS56       0.2592
     13  O         25.6450   33.2230   14.3070 O.2    56  LYS56      -0.2718
     14  CB        26.1270   33.5650   17.5380 C.3    56  LYS56       0.0285
     15  CG        26.0060   33.2080   18.9840 C.3    56  LYS56       0.0035
     16  CD        27.3090   33.3990   19.7410 C.3    56  LYS56       0.0206
     17  CE        27.1060   32.8880   21.1470 C.3    56  LYS56       0.1093
     18  NZ        28.2590   33.3960   21.9050 N.3    56  LYS56      -0.1314
     19  N         24.6480   35.0800   15.2260 N.am   57  LEU57      -0.1966
     20  CA        24.6870   35.8220   14.0200 C.3    57  LEU57       0.1728
     21  C         25.0090   37.2410   14.4100 C.2    57  LEU57       0.2616
     22  O         24.4060   37.7600   15.3600 O.2    57  LEU57      -0.2715
     23  CB        23.3470   35.8440   13.3060 C.3    57  LEU57       0.0311
     24  CG        22.8010   34.4640   12.8150 C.3    57  LEU57       0.0022
     25  CD1       21.3620   34.6460   12.4550 C.3    57  LEU57       0.0001
     26  CD2       23.6220   34.0340   11.6270 C.3    57  LEU57       0.0001
     27  N         25.9520   37.8700   13.7120 N.am   58  LYS58      -0.1963
     28  CA        26.2850   39.2780   14.0150 C.3    58  LYS58       0.1728
     29  C         26.8470   39.9180   12.7290 C.2    58  LYS58       0.2616
     30  O         26.9430   39.2760   11.6970 O.2    58  LYS58      -0.2715
     31  CB        27.2920   39.3790   15.1530 C.3    58  LYS58       0.0311
     32  CG        28.6980   38.8100   14.7730 C.3    58  LYS58       0.0038
     33  CD        29.6520   38.7160   15.9600 C.3    58  LYS58       0.0206
     34  CE        31.0450   38.3370   15.5000 C.3    58  LYS58       0.1093
     35  NZ        32.0380   38.3690   16.6100 N.3    58  LYS58      -0.1314
     36  N         27.1990   41.2010   12.8070 N.am   59  ASN59      -0.1958
     37  CA        27.7270   41.9430   11.6760 C.3    59  ASN59       0.1819
     38  C         26.8220   41.8930   10.4990 C.2    59  ASN59       0.2621
     39  O         27.1380   41.4890    9.3740 O.2    59  ASN59      -0.2715
     40  CB        29.1800   41.5450   11.3680 C.3    59  ASN59       0.1195
     41  CG        30.1410   41.8350   12.5480 C.2    59  ASN59       0.2630
     42  OD1       29.8880   42.6630   13.4030 O.2    59  ASN59      -0.2716
     43  ND2       31.2000   41.0770   12.6240 N.am   59  ASN59      -0.0877
     44  N         25.5940   42.3010   10.7850 N.am   60  TRP60      -0.1960
     45  CA        24.5270   42.2980    9.8130 C.3    60  TRP60       0.1771
     46  C         24.8250   43.3520    8.7280 C.2    60  TRP60       0.2619
     47  O         25.2780   44.4060    9.0510 O.2    60  TRP60      -0.2715
     48  CB        23.1720   42.5800   10.4540 C.3    60  TRP60       0.0590
     49  CG        22.7250   41.5600   11.4500 C.ar   60  TRP60       0.0006
     50  CD1       23.0290   41.5180   12.8060 C.ar   60  TRP60       0.0946
     51  CD2       21.9840   40.4170   11.1750 C.ar   60  TRP60       0.0152
     52  NE1       22.5080   40.3920   13.3650 N.ar   60  TRP60      -0.2442
     53  CE2       21.7990   39.7250   12.4000 C.ar   60  TRP60       0.0810
     54  CE3       21.3600   39.9250   10.0230 C.ar   60  TRP60       0.0012
     55  CZ2       21.0760   38.5460   12.4750 C.ar   60  TRP60       0.0191
     56  CZ3       20.6350   38.7330   10.1050 C.ar   60  TRP60       0.0001
     57  CH2       20.4910   38.0730   11.3480 C.ar   60  TRP60       0.0015
     58  N         24.5510   43.0060    7.4900 N.am   61  GLU61      -0.1977
     59  CA        24.7500   43.8490    6.3090 C.3    61  GLU61       0.1602
     60  C         23.4410   44.2570    5.7050 C.2    61  GLU61       0.2287
     61  O         22.4350   43.5620    5.8290 O.2    61  GLU61      -0.2864
     62  CB        25.5650   43.0610    5.2850 C.3    61  GLU61       0.0415
     63  CG        27.0240   42.9710    5.6600 C.3    61  GLU61       0.1163
     64  CD        27.7700   41.9480    4.8140 C.2    61  GLU61       0.3649
     65  OE1       27.1990   41.4300    3.8390 O.co2  61  GLU61      -0.2457
     66  OE2       28.9070   41.6200    5.1590 O.co2  61  GLU61      -0.2457
     67  N         20.4300   41.9770    4.3520 N.3    64  ASP64      -0.1239
     68  CA        20.2740   40.7260    5.1340 C.3    64  ASP64       0.1674
     69  C         18.8100   40.5540    5.5560 C.2    64  ASP64       0.2266
     70  O         18.1120   41.4940    5.9330 O.2    64  ASP64      -0.2867
     71  CB        21.1610   40.7240    6.3730 C.3    64  ASP64       0.1410
     72  CG        22.5660   40.3600    6.1010 C.2    64  ASP64       0.3668
     73  OD1       22.8970   39.9680    4.9460 O.co2  64  ASP64      -0.2456
     74  OD2       23.3960   40.4330    7.0500 O.co2  64  ASP64      -0.2456
     75  N         19.6560   34.4670    6.6730 N.3    69  GLU69      -0.1245
     76  CA        20.9410   34.3360    7.3280 C.3    69  GLU69       0.1567
     77  C         20.9690   33.1610    8.3540 C.2    69  GLU69       0.2260
     78  O         21.9430   32.4290    8.4850 O.2    69  GLU69      -0.2867
     79  CB        21.3710   35.6340    7.9760 C.3    69  GLU69       0.0388
     80  CG        21.6380   36.7290    6.9500 C.3    69  GLU69       0.1160
     81  CD        22.6980   36.3120    5.9540 C.2    69  GLU69       0.3649
     82  OE1       23.8610   36.1890    6.3380 O.co2  69  GLU69      -0.2457
     83  OE2       22.2870   36.0560    4.8130 O.co2  69  GLU69      -0.2457
     84  N         21.1970   30.0760    6.2460 N.3    72  ARG72      -0.1231
     85  CA        22.4730   29.9360    5.5710 C.3    72  ARG72       0.1694
     86  C         23.5630   29.3980    6.4780 C.2    72  ARG72       0.2592
     87  O         24.3720   28.5110    6.0750 O.2    72  ARG72      -0.2718
     88  CB        22.9170   31.3190    5.0390 C.3    72  ARG72       0.0321
     89  CG        24.2140   31.3050    4.2330 C.3    72  ARG72       0.0489
     90  CD        24.2740   32.5700    3.3650 C.3    72  ARG72       0.2205
     91  NE        24.7040   33.7060    4.1670 N.pl3  72  ARG72      -0.0865
     92  CZ        25.9630   33.9680    4.4950 C.cat  72  ARG72       0.5346
     93  NH1       26.9460   33.1820    4.0950 N.pl3  72  ARG72       0.1354
     94  NH2       26.2510   35.0310    5.2300 N.pl3  72  ARG72       0.1354
     95  N         23.6440   29.9300    7.6890 N.am   73  HIS73      -0.1962
     96  CA        24.6650   29.5210    8.5980 C.3    73  HIS73       0.1787
     97  C         24.3130   28.2430    9.3540 C.2    73  HIS73       0.2620
     98  O         25.2250   27.4770    9.7280 O.2    73  HIS73      -0.2715
     99  CB        25.0320   30.6320    9.5940 C.3    73  HIS73       0.0785
    100  CG        25.7310   31.7840    8.9510 C.ar   73  HIS73       0.0821
    101  ND1       26.9820   31.6600    8.3650 N.ar   73  HIS73      -0.2267
    102  CD2       25.3140   33.0570    8.7100 C.ar   73  HIS73       0.1154
    103  CE1       27.3230   32.8310    7.8440 C.ar   73  HIS73       0.1986
    104  NE2       26.3370   33.6920    8.0420 N.ar   73  HIS73      -0.2212
    105  N         23.0340   28.0210    9.5900 N.am   74  PHE74      -0.1974
    106  CA        22.5910   26.9550   10.4920 C.3    74  PHE74       0.1639
    107  C         21.4320   26.1810    9.8540 C.2    74  PHE74       0.2290
    108  O         20.3490   26.0620   10.4020 O.2    74  PHE74      -0.2864
    109  CB        22.2310   27.5330   11.8940 C.3    74  PHE74       0.0560
    110  CG        23.2700   28.4090   12.4560 C.ar   74  PHE74      -0.0200
    111  CD1       24.5110   27.9040   12.8590 C.ar   74  PHE74      -0.0042
    112  CD2       23.0450   29.7420   12.6100 C.ar   74  PHE74      -0.0042
    113  CE1       25.4970   28.7450   13.3360 C.ar   74  PHE74      -0.0003
    114  CE2       23.9950   30.5910   13.0750 C.ar   74  PHE74      -0.0003
    115  CZ        25.2200   30.1280   13.4780 C.ar   74  PHE74      -0.0000
@<TRIPOS>BOND
     1    90    91    1
     2    90    89    1
     3    65    64   ar
     4    93    92    1
     5    91    92    2
     6    89    88    1
     7    67    68    1
     8    92    94    1
     9    83    81   ar
    10    64    66   ar
    11    64    63    1
    12    73    72   ar
    13    88    85    1
    14    68    69    1
    15    68    71    1
    16    62    63    1
    17    62    59    1
    18    69    70    2
    19    85    84    1
    20    85    86    1
    21    60    61    2
    22    60    59    1
    23    81    82   ar
    24    81    80    1
    25    87    86    2
    26    72    71    1
    27    72    74   ar
    28    59    58    1
    29    86    95   am
    30    75    76    1
    31    80    79    1
    32    76    79    1
    33    76    77    1
    34    58    46   am
    35    95    96    1
    36   103   104   ar
    37   103   101   ar
    38   104   102   ar
    39    77    78    2
    40   101   100   ar
    41    96    97    1
    42    96    99    1
    43   102   100   ar
    44    46    47    2
    45    46    45    1
    46   100    99    1
    47    97   105   am
    48    97    98    2
    49    39    38    2
    50   105   106    1
    51    45    48    1
    52    45    44    1
    53   107   108    2
    54   107   106    1
    55    54    56   ar
    56    54    51   ar
    57    56    57   ar
    58    48    49    1
    59   106   109    1
    60    38    44   am
    61    38    37    1
    62    51    49   ar
    63    51    53   ar
    64    57    55   ar
    65    40    37    1
    66    40    41    1
    67    49    50   ar
    68    26    24    1
    69    37    36    1
    70    30    29    2
    71   109   110    1
    72    53    55   ar
    73    53    52   ar
    74    25    24    1
    75   110   112   ar
    76   110   111   ar
    77    41    43   am
    78    41    42    2
    79   112   114   ar
    80    29    36   am
    81    29    28    1
    82    50    52   ar
    83    24    23    1
    84   111   113   ar
    85   114   115   ar
    86    23    20    1
    87   113   115   ar
    88    27    28    1
    89    27    21   am
    90    28    31    1
    91    20    21    1
    92    20    19    1
    93    13    12    2
    94    21    22    2
    95    32    31    1
    96    32    33    1
    97    19    12   am
    98    12    11    1
    99    34    33    1
   100    34    35    1
   101    10    11    1
   102    11    14    1
   103    14    15    1
   104     1     2    1
   105     2     3    1
   106     2     5    1
   107     3     4    2
   108     5     6    1
   109     6     7    1
   110    15    16    1
   111     9     7   am
   112     7     8    2
   113    16    17    1
   114    17    18    1
