@<TRIPOS>MOLECULE
tmp/4kjvA00.pdb
 115 114 0 0 0
SMALL
GASTEIGER

@<TRIPOS>ATOM
      1  N         24.7560   40.3900   17.9810 N.3    47  GLN47      -0.1245
      2  CA        24.8360   38.9300   17.9830 C.3    47  GLN47       0.1566
      3  C         23.5410   38.3690   18.5800 C.2    47  GLN47       0.2260
      4  O         23.1120   38.7510   19.6900 O.2    47  GLN47      -0.2867
      5  CB        26.0330   38.4510   18.8130 C.3    47  GLN47       0.0367
      6  CG        26.0200   36.9010   18.9830 C.3    47  GLN47       0.0905
      7  CD        27.1900   36.4460   19.8380 C.2    47  GLN47       0.2608
      8  OE1       27.1280   36.4630   21.0450 O.2    47  GLN47      -0.2717
      9  NE2       28.2560   36.0500   19.1900 N.am   47  GLN47      -0.0878
     10  N         24.6410   30.9440   16.3700 N.3    56  LYS56      -0.1231
     11  CA        24.7890   32.3770   16.5290 C.3    56  LYS56       0.1693
     12  C         25.0030   33.0970   15.2070 C.2    56  LYS56       0.2592
     13  O         25.5990   32.5740   14.2610 O.2    56  LYS56      -0.2718
     14  CB        26.0260   32.6910   17.4020 C.3    56  LYS56       0.0285
     15  CG        25.7580   32.3690   18.8710 C.3    56  LYS56       0.0035
     16  CD        27.1180   32.4960   19.6040 C.3    56  LYS56       0.0206
     17  CE        27.0450   31.9780   21.0250 C.3    56  LYS56       0.1093
     18  NZ        28.1770   32.5200   21.8100 N.3    56  LYS56      -0.1314
     19  N         24.4450   34.2940   15.1460 N.am   57  LEU57      -0.1966
     20  CA        24.5520   35.1260   13.9480 C.3    57  LEU57       0.1728
     21  C         24.9360   36.5060   14.3990 C.2    57  LEU57       0.2616
     22  O         24.2840   37.0530   15.3150 O.2    57  LEU57      -0.2715
     23  CB        23.2260   35.1840   13.2240 C.3    57  LEU57       0.0311
     24  CG        22.7590   33.8500   12.6290 C.3    57  LEU57       0.0022
     25  CD1       21.2820   33.8510   12.3250 C.3    57  LEU57       0.0001
     26  CD2       23.5980   33.4380   11.4340 C.3    57  LEU57       0.0001
     27  N         25.9290   37.1190   13.7370 N.am   58  LYS58      -0.1963
     28  CA        26.3170   38.4710   14.1040 C.3    58  LYS58       0.1728
     29  C         26.9520   39.1350   12.9020 C.2    58  LYS58       0.2616
     30  O         27.0430   38.4900   11.8670 O.2    58  LYS58      -0.2715
     31  CB        27.3190   38.4830   15.2650 C.3    58  LYS58       0.0311
     32  CG        28.5590   37.6600   15.0030 C.3    58  LYS58       0.0038
     33  CD        29.4660   37.6150   16.2210 C.3    58  LYS58       0.0206
     34  CE        30.8360   37.0620   15.8630 C.3    58  LYS58       0.1093
     35  NZ        31.5690   36.9130   17.1460 N.3    58  LYS58      -0.1314
     36  N         27.3650   40.3860   13.0730 N.am   59  ASN59      -0.1958
     37  CA        27.8990   41.2410   11.9680 C.3    59  ASN59       0.1819
     38  C         26.9570   41.1580   10.7660 C.2    59  ASN59       0.2621
     39  O         27.3480   40.7780    9.6440 O.2    59  ASN59      -0.2715
     40  CB        29.3330   40.8460   11.6100 C.3    59  ASN59       0.1195
     41  CG        30.3490   41.1980   12.6890 C.2    59  ASN59       0.2630
     42  OD1       31.3740   41.8270   12.3990 O.2    59  ASN59      -0.2716
     43  ND2       30.1550   40.7110   13.8830 N.am   59  ASN59      -0.0877
     44  N         25.7010   41.5420   11.0210 N.am   60  TRP60      -0.1960
     45  CA        24.6360   41.6090    9.9810 C.3    60  TRP60       0.1771
     46  C         24.9550   42.6420    8.9050 C.2    60  TRP60       0.2619
     47  O         25.5700   43.6830    9.2000 O.2    60  TRP60      -0.2715
     48  CB        23.2990   41.9790   10.6300 C.3    60  TRP60       0.0590
     49  CG        22.7780   40.9330   11.5690 C.ar   60  TRP60       0.0006
     50  CD1       22.9940   40.8570   12.8800 C.ar   60  TRP60       0.0946
     51  CD2       21.9630   39.7950   11.2280 C.ar   60  TRP60       0.0152
     52  NE1       22.4270   39.6950   13.4130 N.ar   60  TRP60      -0.2442
     53  CE2       21.7680   39.0500   12.4150 C.ar   60  TRP60       0.0810
     54  CE3       21.3840   39.3390   10.0490 C.ar   60  TRP60       0.0012
     55  CZ2       20.9580   37.8950   12.4610 C.ar   60  TRP60       0.0191
     56  CZ3       20.6460   38.1440   10.0900 C.ar   60  TRP60       0.0001
     57  CH2       20.4080   37.4960   11.2820 C.ar   60  TRP60       0.0015
     58  N         24.5640   42.3340    7.6750 N.am   61  GLU61      -0.1977
     59  CA        24.9110   43.1840    6.4870 C.3    61  GLU61       0.1602
     60  C         23.6660   43.6050    5.7650 C.2    61  GLU61       0.2287
     61  O         22.6480   42.9220    5.8250 O.2    61  GLU61      -0.2864
     62  CB        25.7360   42.4280    5.4690 C.3    61  GLU61       0.0415
     63  CG        27.0640   41.9460    5.9860 C.3    61  GLU61       0.1163
     64  CD        27.8550   41.2350    4.9210 C.2    61  GLU61       0.3649
     65  OE1       27.2540   40.7560    3.9220 O.co2  61  GLU61      -0.2457
     66  OE2       29.0790   41.1340    5.1320 O.co2  61  GLU61      -0.2457
     67  N         20.6120   41.3460    4.4050 N.3    64  ASP64      -0.1239
     68  CA        20.4810   40.1000    5.1620 C.3    64  ASP64       0.1674
     69  C         19.0050   40.0280    5.5920 C.2    64  ASP64       0.2266
     70  O         18.4300   41.0220    5.9970 O.2    64  ASP64      -0.2867
     71  CB        21.3420   40.1350    6.4380 C.3    64  ASP64       0.1410
     72  CG        22.8010   39.7220    6.2210 C.2    64  ASP64       0.3668
     73  OD1       23.1760   39.3470    5.0860 O.co2  64  ASP64      -0.2456
     74  OD2       23.5610   39.8000    7.2180 O.co2  64  ASP64      -0.2456
     75  N         19.4970   33.9380    6.6300 N.3    69  GLU69      -0.1245
     76  CA        20.8160   33.7640    7.2460 C.3    69  GLU69       0.1567
     77  C         20.7990   32.5520    8.2020 C.2    69  GLU69       0.2260
     78  O         21.7340   31.7430    8.2540 O.2    69  GLU69      -0.2867
     79  CB        21.2770   35.0170    8.0110 C.3    69  GLU69       0.0388
     80  CG        21.7010   36.1990    7.1050 C.3    69  GLU69       0.1160
     81  CD        22.8180   35.7580    6.1970 C.2    69  GLU69       0.3649
     82  OE1       23.9950   35.5780    6.6140 O.co2  69  GLU69      -0.2457
     83  OE2       22.5010   35.5360    5.0440 O.co2  69  GLU69      -0.2457
     84  N         20.8310   29.4080    6.0040 N.3    72  ARG72      -0.1231
     85  CA        22.0940   29.2910    5.2970 C.3    72  ARG72       0.1694
     86  C         23.1850   28.7000    6.1670 C.2    72  ARG72       0.2592
     87  O         23.9060   27.8080    5.7650 O.2    72  ARG72      -0.2718
     88  CB        22.5390   30.7060    4.8240 C.3    72  ARG72       0.0321
     89  CG        23.7940   30.7520    4.0210 C.3    72  ARG72       0.0489
     90  CD        23.8550   32.0980    3.2840 C.3    72  ARG72       0.2205
     91  NE        24.3550   33.1880    4.1110 N.pl3  72  ARG72      -0.0865
     92  CZ        25.6500   33.5030    4.2490 C.cat  72  ARG72       0.5346
     93  NH1       26.5760   32.7520    3.6820 N.pl3  72  ARG72       0.1354
     94  NH2       26.0340   34.5650    4.9660 N.pl3  72  ARG72       0.1354
     95  N         23.3070   29.2250    7.3740 N.am   73  HIS73      -0.1962
     96  CA        24.3330   28.7970    8.3040 C.3    73  HIS73       0.1787
     97  C         23.9640   27.5570    9.0830 C.2    73  HIS73       0.2620
     98  O         24.8170   26.7720    9.4050 O.2    73  HIS73      -0.2715
     99  CB        24.7010   29.9780    9.2480 C.3    73  HIS73       0.0785
    100  CG        25.4100   31.1000    8.5330 C.ar   73  HIS73       0.0821
    101  ND1       26.5760   30.8870    7.8380 N.ar   73  HIS73      -0.2267
    102  CD2       25.0860   32.4020    8.3330 C.ar   73  HIS73       0.1154
    103  CE1       26.9670   32.0240    7.2680 C.ar   73  HIS73       0.1986
    104  NE2       26.0950   32.9660    7.5730 N.ar   73  HIS73      -0.2212
    105  N         22.6750   27.3740    9.3960 N.am   74  PHE74      -0.1974
    106  CA        22.1860   26.3430   10.2910 C.3    74  PHE74       0.1639
    107  C         21.0190   25.5920    9.6690 C.2    74  PHE74       0.2290
    108  O         19.9270   25.5270   10.2190 O.2    74  PHE74      -0.2864
    109  CB        21.8290   26.9400   11.6550 C.3    74  PHE74       0.0560
    110  CG        22.8940   27.8530   12.1820 C.ar   74  PHE74      -0.0200
    111  CD1       24.1700   27.3950   12.4690 C.ar   74  PHE74      -0.0042
    112  CD2       22.6190   29.1600   12.4150 C.ar   74  PHE74      -0.0042
    113  CE1       25.1790   28.2590   12.9380 C.ar   74  PHE74      -0.0003
    114  CE2       23.6080   30.0430   12.9070 C.ar   74  PHE74      -0.0003
    115  CZ        24.8870   29.5860   13.1680 C.ar   74  PHE74      -0.0000
@<TRIPOS>BOND
     1    90    89    1
     2    90    91    1
     3    93    92    1
     4    65    64   ar
     5    89    88    1
     6    91    92    2
     7    92    94    1
     8    67    68    1
     9    88    85    1
    10    64    66   ar
    11    64    63    1
    12    83    81   ar
    13    73    72   ar
    14    68    69    1
    15    68    71    1
    16    85    84    1
    17    85    86    1
    18    62    63    1
    19    62    59    1
    20    69    70    2
    21    60    61    2
    22    60    59    1
    23    87    86    2
    24    86    95   am
    25    81    82   ar
    26    81    80    1
    27    72    71    1
    28    72    74   ar
    29    59    58    1
    30    75    76    1
    31    80    79    1
    32    76    79    1
    33    76    77    1
    34   103   104   ar
    35   103   101   ar
    36    95    96    1
    37   104   102   ar
    38    58    46   am
    39   101   100   ar
    40    77    78    2
    41    96    97    1
    42    96    99    1
    43   102   100   ar
    44   100    99    1
    45    46    47    2
    46    46    45    1
    47    97   105   am
    48    97    98    2
    49   105   106    1
    50    39    38    2
    51   107   108    2
    52   107   106    1
    53    45    48    1
    54    45    44    1
    55    54    56   ar
    56    54    51   ar
    57    56    57   ar
    58   106   109    1
    59    48    49    1
    60    38    44   am
    61    38    37    1
    62    51    49   ar
    63    51    53   ar
    64    57    55   ar
    65    26    24    1
    66    49    50   ar
    67    40    37    1
    68    40    41    1
    69   109   110    1
    70    30    29    2
    71    37    36    1
    72   110   112   ar
    73   110   111   ar
    74    25    24    1
    75    42    41    2
    76    53    55   ar
    77    53    52   ar
    78   112   114   ar
    79   111   113   ar
    80    24    23    1
    81    41    43   am
    82    50    52   ar
    83    29    36   am
    84    29    28    1
    85   114   115   ar
    86   113   115   ar
    87    23    20    1
    88    27    28    1
    89    27    21   am
    90    20    21    1
    91    20    19    1
    92    28    31    1
    93    13    12    2
    94    21    22    2
    95    32    31    1
    96    32    33    1
    97    19    12   am
    98    12    11    1
    99    34    33    1
   100    34    35    1
   101    10    11    1
   102    11    14    1
   103    14    15    1
   104     1     2    1
   105     2     3    1
   106     2     5    1
   107     3     4    2
   108     5     6    1
   109    15    16    1
   110     6     7    1
   111     9     7   am
   112    16    17    1
   113     7     8    2
   114    17    18    1
