@<TRIPOS>MOLECULE
tmp/4kjxB02.pdb
 139 133 0 0 0
SMALL
GASTEIGER

@<TRIPOS>ATOM
      1  N        -19.8270  -31.1160  -19.4110 N.3    57  ASP57      -0.1239
      2  CA       -19.9080  -29.6570  -19.4640 C.3    57  ASP57       0.1674
      3  C        -19.9220  -29.1850  -20.9050 C.2    57  ASP57       0.2266
      4  O        -19.1040  -28.3530  -21.3180 O.2    57  ASP57      -0.2867
      5  CB       -18.7060  -29.0060  -18.7500 C.3    57  ASP57       0.1410
      6  CG       -18.5980  -29.3940  -17.2690 C.2    57  ASP57       0.3668
      7  OD1      -17.4720  -29.6450  -16.7900 O.co2  57  ASP57      -0.2456
      8  OD2      -19.6330  -29.4190  -16.5850 O.co2  57  ASP57      -0.2456
      9  N        -25.2990  -24.7840  -21.3540 N.3    61  GLY61      -0.1210
     10  CA       -25.6600  -25.1820  -19.9640 C.3    61  GLY61       0.1956
     11  C        -24.8350  -26.2930  -19.3420 C.2    61  GLY61       0.2611
     12  O        -25.3750  -27.1130  -18.6120 O.2    61  GLY61      -0.2717
     13  N        -23.5210  -26.3030  -19.6050 N.am   62  ASP62      -0.1973
     14  CA       -22.5970  -27.3800  -19.1720 C.3    62  ASP62       0.1709
     15  C        -23.2620  -28.7680  -19.1430 C.2    62  ASP62       0.2293
     16  O        -23.4360  -29.3390  -18.0820 O.2    62  ASP62      -0.2864
     17  CB       -22.0120  -27.1060  -17.7650 C.3    62  ASP62       0.1436
     18  CG       -20.9730  -25.9760  -17.7340 C.2    62  ASP62       0.3671
     19  OD1      -20.3320  -25.7990  -16.6600 O.co2  62  ASP62      -0.2456
     20  OD2      -20.7960  -25.2670  -18.7530 O.co2  62  ASP62      -0.2456
     21  N        -27.0040  -36.5950  -17.1820 N.3    81  ARG81      -0.1245
     22  CA       -26.7850  -36.3110  -15.8000 C.3    81  ARG81       0.1563
     23  C        -27.4830  -35.1010  -15.2540 C.2    81  ARG81       0.2260
     24  O        -27.4680  -34.0460  -15.8570 O.2    81  ARG81      -0.2867
     25  CB       -25.3390  -36.0830  -15.5990 C.3    81  ARG81       0.0307
     26  CG       -24.9520  -36.2880  -14.1270 C.3    81  ARG81       0.0489
     27  CD       -24.2960  -35.0410  -13.6120 C.3    81  ARG81       0.2205
     28  NE       -22.8640  -35.1960  -13.6010 N.pl3  81  ARG81      -0.0865
     29  CZ       -22.0170  -34.1920  -13.7450 C.cat  81  ARG81       0.5346
     30  NH1      -22.4400  -32.9430  -13.9480 N.pl3  81  ARG81       0.1354
     31  NH2      -20.7280  -34.4710  -13.7030 N.pl3  81  ARG81       0.1354
     32  N        -27.8050  -32.2540  -11.9280 N.3    83  SER83      -0.1202
     33  CA       -26.8150  -31.3760  -11.3440 C.3    83  SER83       0.2020
     34  C        -25.9220  -32.0840  -10.3210 C.2    83  SER83       0.2619
     35  O        -26.3360  -33.0270   -9.6290 O.2    83  SER83      -0.2717
     36  CB       -27.5180  -30.1900  -10.6920 C.3    83  SER83       0.2103
     37  OG       -26.6760  -29.5270   -9.7830 O.3    83  SER83      -0.2182
     38  N        -24.6860  -31.6210  -10.2560 N.am   84  ARG84      -0.1965
     39  CA       -23.7300  -32.0740   -9.2350 C.3    84  ARG84       0.1729
     40  C        -24.1030  -31.7130   -7.8070 C.2    84  ARG84       0.2616
     41  O        -23.6230  -32.3350   -6.8920 O.2    84  ARG84      -0.2715
     42  CB       -22.3580  -31.4830   -9.5310 C.3    84  ARG84       0.0348
     43  CG       -21.4610  -32.3700  -10.3470 C.3    84  ARG84       0.0492
     44  CD       -20.2950  -31.5430  -10.8420 C.3    84  ARG84       0.2205
     45  NE       -19.0670  -32.3250  -10.9530 N.pl3  84  ARG84      -0.0865
     46  CZ       -17.8810  -31.7950  -11.2320 C.cat  84  ARG84       0.5346
     47  NH1      -17.7590  -30.4810  -11.4220 N.pl3  84  ARG84       0.1354
     48  NH2      -16.8050  -32.5710  -11.3190 N.pl3  84  ARG84       0.1354
     49  N        -24.9180  -30.6770   -7.6260 N.am   85  SER85      -0.1950
     50  CA       -25.4310  -30.2810   -6.3120 C.3    85  SER85       0.1924
     51  C        -26.8680  -29.9100   -6.5220 C.2    85  SER85       0.2314
     52  O        -27.1590  -28.7970   -6.9650 O.2    85  SER85      -0.2863
     53  CB       -24.7020  -29.0290   -5.7310 C.3    85  SER85       0.2116
     54  OG       -23.4070  -28.8480   -6.2640 O.3    85  SER85      -0.2180
     55  N        -28.3830  -26.5830   -4.4430 N.3    88  ASN88      -0.1225
     56  CA       -28.0820  -25.2830   -5.0810 C.3    88  ASN88       0.1785
     57  C        -28.7570  -25.0990   -6.4150 C.2    88  ASN88       0.2597
     58  O        -29.3280  -24.0460   -6.7060 O.2    88  ASN88      -0.2718
     59  CB       -26.5710  -25.1200   -5.3030 C.3    88  ASN88       0.1169
     60  CG       -25.7700  -25.0970   -4.0050 C.2    88  ASN88       0.2627
     61  OD1      -24.5390  -25.0830   -4.0450 O.2    88  ASN88      -0.2716
     62  ND2      -26.4530  -25.1030   -2.8500 N.am   88  ASN88      -0.0877
     63  N        -28.6920  -26.1300   -7.2540 N.am   89  TRP89      -0.1976
     64  CA       -29.4820  -26.1320   -8.4880 C.3    89  TRP89       0.1640
     65  C        -30.9470  -25.7540   -8.2260 C.2    89  TRP89       0.2290
     66  O        -31.4410  -24.8260   -8.8470 O.2    89  TRP89      -0.2864
     67  CB       -29.3120  -27.4520   -9.2570 C.3    89  TRP89       0.0576
     68  CG       -30.2270  -27.5520  -10.4440 C.ar   89  TRP89       0.0006
     69  CD1      -30.0230  -26.9730  -11.6960 C.ar   89  TRP89       0.0946
     70  CD2      -31.5720  -28.2090  -10.5370 C.ar   89  TRP89       0.0152
     71  NE1      -31.1070  -27.2330  -12.5170 N.ar   89  TRP89      -0.2442
     72  CE2      -32.0600  -27.9500  -11.8810 C.ar   89  TRP89       0.0810
     73  CE3      -32.3540  -28.9470   -9.6810 C.ar   89  TRP89       0.0012
     74  CZ2      -33.2870  -28.4270  -12.3370 C.ar   89  TRP89       0.0191
     75  CZ3      -33.5870  -29.4320  -10.1350 C.ar   89  TRP89       0.0001
     76  CH2      -34.0410  -29.1800  -11.4440 C.ar   89  TRP89       0.0015
     77  N        -31.2680  -21.9550   -7.1860 N.3    92  ASN92      -0.1225
     78  CA       -31.0650  -20.9920   -8.2590 C.3    92  ASN92       0.1785
     79  C        -31.9230  -21.2500   -9.4540 C.2    92  ASN92       0.2597
     80  O        -31.6660  -20.6980  -10.5320 O.2    92  ASN92      -0.2718
     81  CB       -29.6240  -21.0450   -8.7000 C.3    92  ASN92       0.1169
     82  CG       -28.7060  -20.7400   -7.5800 C.2    92  ASN92       0.2627
     83  OD1      -27.5800  -21.2470   -7.5220 O.2    92  ASN92      -0.2716
     84  ND2      -29.1990  -19.9190   -6.6380 N.am   92  ASN92      -0.0877
     85  N        -32.9300  -22.1000   -9.3150 N.am   93  LEU93      -0.1966
     86  CA       -33.7320  -22.4160  -10.4940 C.3    93  LEU93       0.1728
     87  C        -34.5250  -21.1420  -10.8180 C.2    93  LEU93       0.2616
     88  O        -35.1630  -20.5380   -9.9520 O.2    93  LEU93      -0.2715
     89  CB       -34.6140  -23.6360  -10.2890 C.3    93  LEU93       0.0311
     90  CG       -35.3290  -24.2730  -11.4830 C.3    93  LEU93       0.0022
     91  CD1      -34.3940  -25.0510  -12.4000 C.3    93  LEU93       0.0001
     92  CD2      -36.4800  -25.1600  -11.0270 C.3    93  LEU93       0.0001
     93  N        -34.4120  -20.7440  -12.0730 N.am   94  ASN94      -0.1972
     94  CA       -35.0630  -19.5800  -12.6760 C.3    94  ASN94       0.1688
     95  C        -36.3440  -20.1120  -13.3240 C.2    94  ASN94       0.2292
     96  O        -36.2800  -21.1930  -13.8840 O.2    94  ASN94      -0.2864
     97  CB       -34.0360  -19.0860  -13.7240 C.3    94  ASN94       0.1181
     98  CG       -34.5380  -17.9780  -14.6070 C.2    94  ASN94       0.2629
     99  OD1      -35.6330  -18.0370  -15.1660 O.2    94  ASN94      -0.2716
    100  ND2      -33.6910  -16.9880  -14.8050 N.am   94  ASN94      -0.0877
    101  N        -39.1330  -24.2450  -20.4170 N.3   110  HIS110     -0.1241
    102  CA       -38.1610  -23.6760  -19.5540 C.3   110  HIS110      0.1621
    103  C        -36.9380  -23.2610  -20.3630 C.2   110  HIS110      0.2264
    104  O        -36.4170  -24.0050  -21.2410 O.2   110  HIS110     -0.2867
    105  CB       -37.8260  -24.6680  -18.4330 C.3   110  HIS110      0.0745
    106  CG       -36.8580  -24.1420  -17.4440 C.ar  110  HIS110      0.0817
    107  ND1      -35.5230  -24.1960  -17.6590 N.ar  110  HIS110     -0.2268
    108  CD2      -37.0400  -23.4970  -16.2120 C.ar  110  HIS110      0.1154
    109  CE1      -34.8610  -23.6430  -16.5930 C.ar  110  HIS110      0.1986
    110  NE2      -35.7860  -23.2160  -15.7060 N.ar  110  HIS110     -0.2212
    111  N        -33.6160  -22.1610  -19.6180 N.3   112  GLY112     -0.1210
    112  CA       -32.2990  -22.8280  -19.4270 C.3   112  GLY112      0.1956
    113  C        -32.2930  -24.2800  -19.9440 C.2   112  GLY112      0.2611
    114  O        -31.2980  -24.7160  -20.5170 O.2   112  GLY112     -0.2717
    115  N        -33.3830  -25.0390  -19.7910 N.am  113  PHE113     -0.1976
    116  CA       -33.3090  -26.4590  -20.2310 C.3   113  PHE113      0.1639
    117  C        -33.2180  -26.4730  -21.7880 C.2   113  PHE113      0.2290
    118  O        -32.4150  -27.2030  -22.4000 O.2   113  PHE113     -0.2864
    119  CB       -34.5260  -27.2800  -19.7960 C.3   113  PHE113      0.0560
    120  CG       -34.8230  -27.2550  -18.2850 C.ar  113  PHE113     -0.0200
    121  CD1      -33.8330  -26.9610  -17.3430 C.ar  113  PHE113     -0.0042
    122  CD2      -36.1090  -27.5190  -17.8510 C.ar  113  PHE113     -0.0042
    123  CE1      -34.1680  -26.9320  -15.9810 C.ar  113  PHE113     -0.0003
    124  CE2      -36.4610  -27.4540  -16.5100 C.ar  113  PHE113     -0.0003
    125  CZ       -35.4980  -27.1840  -15.5800 C.ar  113  PHE113     -0.0000
    126  N        -29.7890  -25.1710  -23.0400 N.3   116  SER116     -0.1217
    127  CA       -28.6920  -26.1380  -22.8100 C.3   116  SER116      0.1889
    128  C        -28.7870  -27.2760  -23.8870 C.2   116  SER116      0.2288
    129  O        -27.7690  -27.6890  -24.4630 O.2   116  SER116     -0.2866
    130  CB       -28.7950  -26.7710  -21.4020 C.3   116  SER116      0.2089
    131  OG       -28.6540  -25.8050  -20.3670 O.3   116  SER116     -0.2183
    132  N        -32.5500  -32.7270  -13.4400 N.3   147  LEU147     -0.1245
    133  CA       -32.2940  -31.8500  -14.6010 C.3   147  LEU147      0.1561
    134  C        -32.0120  -32.7240  -15.8120 C.2   147  LEU147      0.2260
    135  O        -32.4660  -32.4300  -16.8960 O.2   147  LEU147     -0.2867
    136  CB       -31.0610  -30.9530  -14.3600 C.3   147  LEU147      0.0270
    137  CG       -30.2750  -30.2610  -15.5550 C.3   147  LEU147      0.0019
    138  CD1      -30.9860  -29.0510  -16.1360 C.3   147  LEU147      0.0001
    139  CD2      -28.8020  -29.8720  -15.2550 C.3   147  LEU147      0.0001
@<TRIPOS>BOND
     1   129   128    2
     2   128   127    1
     3   126   127    1
     4   127   130    1
     5   118   117    2
     6   117   116    1
     7   130   131    1
     8     9    10    1
     9     4     3    2
    10   104   103    2
    11     3     2    1
    12   114   113    2
    13   101   102    1
    14   103   102    1
    15   116   119    1
    16   116   115    1
    17    10    11    1
    18   113   115   am
    19   113   112    1
    20   119   120    1
    21   111   112    1
    22    13    11   am
    23    13    14    1
    24   102   105    1
    25     2     1    1
    26     2     5    1
    27    11    12    2
    28    14    15    1
    29    14    17    1
    30    15    16    2
    31    20    18   ar
    32     5     6    1
    33   105   106    1
    34   120   122   ar
    35   120   121   ar
    36   122   124   ar
    37    17    18    1
    38    18    19   ar
    39   107   106   ar
    40   107   109   ar
    41   106   108   ar
    42   121   123   ar
    43     6     7   ar
    44     6     8   ar
    45    21    22    1
    46   135   134    2
    47   109   110   ar
    48   124   125   ar
    49   108   110   ar
    50   138   137    1
    51   123   125   ar
    52    24    23    2
    53   134   133    1
    54    22    25    1
    55    22    23    1
    56    25    26    1
    57   137   139    1
    58   137   136    1
    59    99    98    2
    60   100    98   am
    61    98    97    1
    62   133   136    1
    63   133   132    1
    64    26    27    1
    65    30    29    1
    66    96    95    2
    67    29    31    1
    68    29    28    2
    69    97    94    1
    70    27    28    1
    71    95    94    1
    72    94    93    1
    73    71    72   ar
    74    71    69   ar
    75    91    90    1
    76    74    72   ar
    77    74    76   ar
    78    93    87   am
    79    32    33    1
    80    72    70   ar
    81    69    68   ar
    82    90    92    1
    83    90    89    1
    84    76    75   ar
    85    47    46    1
    86    33    36    1
    87    33    34    1
    88    48    46    1
    89    46    45    2
    90    45    44    1
    91    44    43    1
    92    87    86    1
    93    87    88    2
    94    36    37    1
    95    70    68   ar
    96    70    73   ar
    97    80    79    2
    98    86    89    1
    99    86    85    1
   100    68    67    1
   101    43    42    1
   102    34    38   am
   103    34    35    2
   104    38    39    1
   105    75    73   ar
   106    42    39    1
   107    79    85   am
   108    79    78    1
   109    67    64    1
   110    39    40    1
   111    66    65    2
   112    81    78    1
   113    81    82    1
   114    64    65    1
   115    64    63    1
   116    78    77    1
   117    40    49   am
   118    40    41    2
   119    49    50    1
   120    82    83    2
   121    82    84   am
   122    63    57   am
   123    52    51    2
   124    58    57    2
   125    51    50    1
   126    57    56    1
   127    50    53    1
   128    54    53    1
   129    59    56    1
   130    59    60    1
   131    56    55    1
   132    61    60    2
   133    60    62   am
