@<TRIPOS>MOLECULE
tmp/4kjzD00.pdb
 86 80 0 0 0
SMALL
GASTEIGER

@<TRIPOS>ATOM
      1  N         63.4790   -4.9540  -14.7620 N.3    80  VAL80      -0.1231
      2  CA        64.7230   -5.0360  -15.5060 C.3    80  VAL80       0.1692
      3  C         65.5150   -3.7530  -15.3100 C.2    80  VAL80       0.2592
      4  O         64.9720   -2.6510  -15.3790 O.2    80  VAL80      -0.2718
      5  CB        64.4710   -5.2510  -17.0090 C.3    80  VAL80       0.0266
      6  CG1       65.2520   -4.2350  -17.8290 C.3    80  VAL80       0.0020
      7  CG2       64.8430   -6.6700  -17.4110 C.3    80  VAL80       0.0020
      8  N         66.8090   -3.9150  -15.0580 N.am   81  ASP81      -0.1974
      9  CA        67.6910   -2.7890  -14.7820 C.3    81  ASP81       0.1709
     10  C         67.5960   -2.3850  -13.3150 C.2    81  ASP81       0.2293
     11  O         68.2490   -1.4380  -12.8790 O.2    81  ASP81      -0.2864
     12  CB        67.3420   -1.6010  -15.6800 C.3    81  ASP81       0.1436
     13  CG        68.0200   -1.6750  -17.0340 C.2    81  ASP81       0.3671
     14  OD1       69.0590   -2.3600  -17.1440 O.co2  81  ASP81      -0.2456
     15  OD2       67.5140   -1.0480  -17.9890 O.co2  81  ASP81      -0.2456
     16  N         68.6210   -4.2460  -10.9780 N.3    83  GLY83      -0.1225
     17  CA        69.9510   -4.6390  -10.5350 C.3    83  GLY83       0.1811
     18  C         70.0870   -6.0090   -9.9440 C.2    83  GLY83       0.2280
     19  O         71.0740   -6.2920   -9.2750 O.2    83  GLY83      -0.2866
     20  N         70.4620   -8.7200  -11.5490 N.3    85  THR85      -0.1203
     21  CA        71.5460   -9.2390  -12.2940 C.3    85  THR85       0.1994
     22  C         72.8810   -8.8240  -11.7700 C.2    85  THR85       0.2618
     23  O         73.7320   -9.6170  -11.5230 O.2    85  THR85      -0.2717
     24  CB        71.3860   -8.7300  -13.6970 C.3    85  THR85       0.1784
     25  OG1       71.2640   -7.3140  -13.6800 O.3    85  THR85      -0.2211
     26  CG2       70.1740   -9.3420  -14.3740 C.3    85  THR85       0.0376
     27  N         73.0200   -7.5530  -11.5180 N.am   86  THR86      -0.1952
     28  CA        74.2730   -6.9960  -11.1540 C.3    86  THR86       0.1897
     29  C         74.7100   -7.5980   -9.8510 C.2    86  THR86       0.2313
     30  O         75.8390   -7.8790   -9.6340 O.2    86  THR86      -0.2863
     31  CB        74.1140   -5.4880  -11.0690 C.3    86  THR86       0.1794
     32  OG1       73.6940   -5.0040  -12.3270 O.3    86  THR86      -0.2208
     33  CG2       75.3650   -4.8490  -10.7070 C.3    86  THR86       0.0378
     34  N         68.1980   -1.2450   -4.3630 N.3   168  ASN168     -0.1225
     35  CA        69.4710   -1.1910   -4.9710 C.3   168  ASN168      0.1785
     36  C         70.3140    0.0150   -5.0870 C.2   168  ASN168      0.2597
     37  O         71.5000   -0.0430   -4.9530 O.2   168  ASN168     -0.2718
     38  CB        69.4900   -1.9230   -6.2730 C.3   168  ASN168      0.1169
     39  CG        70.8240   -2.4910   -6.5520 C.2   168  ASN168      0.2627
     40  OD1       71.7950   -1.8320   -6.3610 O.2   168  ASN168     -0.2716
     41  ND2       70.8710   -3.7150   -6.9220 N.am  168  ASN168     -0.0877
     42  N         69.7120    1.1090   -5.4280 N.am  169  LYS169     -0.1980
     43  CA        70.5180    2.1990   -5.8190 C.3   169  LYS169      0.1596
     44  C         70.9060    3.0970   -4.6760 C.2   169  LYS169      0.2287
     45  O         70.5770    4.2530   -4.6160 O.2   169  LYS169     -0.2864
     46  CB        69.8330    2.8960   -6.9680 C.3   169  LYS169      0.0298
     47  CG        69.4140    1.9030   -8.0070 C.3   169  LYS169      0.0038
     48  CD        70.5940    1.5260   -8.8530 C.3   169  LYS169      0.0206
     49  CE        70.2700    0.5060   -9.9050 C.3   169  LYS169      0.1093
     50  NZ        70.5630    0.9080  -11.2910 N.3   169  LYS169     -0.1314
     51  N         73.9530    4.2400   -3.7380 N.3   171  ASP171     -0.1225
     52  CA        75.0420    5.1780   -3.9870 C.3   171  ASP171      0.1805
     53  C         74.6950    6.4830   -4.5900 C.2   171  ASP171      0.2597
     54  O         75.2090    7.5030   -4.2140 O.2   171  ASP171     -0.2718
     55  CB        76.0470    4.5420   -4.9000 C.3   171  ASP171      0.1424
     56  CG        75.4700    4.1870   -6.1970 C.2   171  ASP171      0.3668
     57  OD1       74.2630    4.3130   -6.3290 O.co2 171  ASP171     -0.2456
     58  OD2       76.2070    3.7750   -7.0810 O.co2 171  ASP171     -0.2456
     59  N         73.8260    6.4350   -5.5690 N.am  172  LEU172     -0.1979
     60  CA        73.4830    7.5960   -6.3380 C.3   172  LEU172      0.1596
     61  C         72.8000    8.6180   -5.4840 C.2   172  LEU172      0.2287
     62  O         72.0990    8.2940   -4.5880 O.2   172  LEU172     -0.2864
     63  CB        72.6420    7.1920   -7.5340 C.3   172  LEU172      0.0297
     64  CG        73.2550    6.2650   -8.5670 C.3   172  LEU172      0.0022
     65  CD1       72.2140    5.5290   -9.3410 C.3   172  LEU172      0.0001
     66  CD2       74.1280    6.9770   -9.5450 C.3   172  LEU172      0.0001
     67  N         74.0540   -1.4130   -2.3430 N.3   204  SER204     -0.1202
     68  CA        74.5110   -1.0020   -3.6450 C.3   204  SER204      0.2020
     69  C         75.1200   -2.2450   -4.2560 C.2   204  SER204      0.2619
     70  O         76.0620   -2.8030   -3.6940 O.2   204  SER204     -0.2717
     71  CB        75.5600    0.1030   -3.5270 C.3   204  SER204      0.2103
     72  OG        75.5480    0.9420   -4.6690 O.3   204  SER204     -0.2182
     73  N         74.6260   -2.6860   -5.4080 N.am  205  ALA205     -0.1965
     74  CA        75.3450   -3.6980   -6.0650 C.3   205  ALA205      0.1728
     75  C         76.6870   -3.1500   -6.4930 C.2   205  ALA205      0.2616
     76  O         77.7060   -3.7430   -6.3250 O.2   205  ALA205     -0.2715
     77  CB        74.5580   -4.2050   -7.2350 C.3   205  ALA205      0.0334
     78  N         76.6480   -1.9590   -7.0820 N.am  206  LYS206     -0.1977
     79  CA        77.8250   -1.3790   -7.7210 C.3   206  LYS206      0.1596
     80  C         78.9590   -1.1720   -6.7160 C.2   206  LYS206      0.2287
     81  O         80.1310   -1.3690   -7.0600 O.2   206  LYS206     -0.2864
     82  CB        77.4780   -0.0460   -8.3980 C.3   206  LYS206      0.0298
     83  CG        76.9490   -0.1680   -9.8120 C.3   206  LYS206      0.0038
     84  CD        78.0730   -0.3840  -10.8090 C.3   206  LYS206      0.0206
     85  CE        78.0810   -1.8100  -11.3300 C.3   206  LYS206      0.1093
     86  NZ        79.4340   -2.2250  -11.7950 N.3   206  LYS206     -0.1314
@<TRIPOS>BOND
     1    15    13   ar
     2     6     5    1
     3     7     5    1
     4    14    13   ar
     5    13    12    1
     6     5     2    1
     7    12     9    1
     8     2     3    1
     9     2     1    1
    10     4     3    2
    11     3     8   am
    12     8     9    1
    13     9    10    1
    14    26    24    1
    15    24    25    1
    16    24    21    1
    17    10    11    2
    18    32    31    1
    19    21    22    1
    20    21    20    1
    21    86    85    1
    22    22    23    2
    23    22    27   am
    24    27    28    1
    25    85    84    1
    26    50    49    1
    27    28    31    1
    28    28    29    1
    29    31    33    1
    30    16    17    1
    31    84    83    1
    32    17    18    1
    33    18    19    2
    34    49    48    1
    35    29    30    2
    36    83    82    1
    37    66    64    1
    38    65    64    1
    39    48    47    1
    40    64    63    1
    41    82    79    1
    42    47    46    1
    43    79    78    1
    44    79    80    1
    45    63    60    1
    46    77    74    1
    47    78    75   am
    48    58    56   ar
    49    81    80    2
    50    46    43    1
    51    41    39   am
    52    39    40    2
    53    39    38    1
    54    75    76    2
    55    75    74    1
    56    60    59    1
    57    60    61    1
    58    57    56   ar
    59    38    35    1
    60    56    55    1
    61    74    73    1
    62    43    42    1
    63    43    44    1
    64    59    53   am
    65    61    62    2
    66    42    36   am
    67    73    69   am
    68    36    35    1
    69    36    37    2
    70    35    34    1
    71    55    52    1
    72    44    45    2
    73    72    71    1
    74    53    54    2
    75    53    52    1
    76    69    70    2
    77    69    68    1
    78    52    51    1
    79    68    71    1
    80    68    67    1
