@<TRIPOS>MOLECULE
tmp/4kkeA00.pdb
 157 147 0 0 0
SMALL
GASTEIGER

@<TRIPOS>ATOM
      1  N         -1.7720   28.6460   35.4790 N.3    26  ILE26      -0.1231
      2  CA        -1.3350   29.2310   34.2120 C.3    26  ILE26       0.1692
      3  C         -1.3960   28.2340   33.0510 C.2    26  ILE26       0.2593
      4  O         -1.4370   28.6340   31.8950 O.2    26  ILE26      -0.2718
      5  CB         0.0910   29.8180   34.2940 C.3    26  ILE26       0.0266
      6  CG1        1.0830   28.7960   34.8430 C.3    26  ILE26       0.0019
      7  CG2        0.1040   31.0860   35.1420 C.3    26  ILE26       0.0020
      8  CD1        2.5190   29.2610   34.7560 C.3    26  ILE26       0.0001
      9  N         -1.3850   26.9410   33.3440 N.am   27  GLY27      -0.1942
     10  CA        -1.5280   25.9570   32.2900 C.3    27  GLY27       0.2014
     11  C         -1.7990   24.5730   32.8180 C.2    27  GLY27       0.2640
     12  O         -1.8650   24.3650   34.0280 O.2    27  GLY27      -0.2714
     13  N         -1.9630   23.6360   31.8930 N.am   28  SER28      -0.1935
     14  CA        -2.2350   22.2420   32.2200 C.3    28  SER28       0.2055
     15  C         -1.6080   21.3570   31.1620 C.2    28  SER28       0.2644
     16  O         -1.4910   21.7530   29.9940 O.2    28  SER28      -0.2714
     17  CB        -3.7340   21.9770   32.2720 C.3    28  SER28       0.2130
     18  OG        -3.9850   20.7170   32.8700 O.3    28  SER28      -0.2179
     19  N         -1.2010   20.1640   31.5760 N.am   29  GLY29      -0.1939
     20  CA        -0.5440   19.2310   30.6750 C.3    29  GLY29       0.2014
     21  C         -0.7500   17.7980   31.0970 C.2    29  GLY29       0.2639
     22  O         -1.6510   17.4960   31.8760 O.2    29  GLY29      -0.2714
     23  N          0.0970   16.9180   30.5730 N.am   30  ALA30      -0.1963
     24  CA        -0.0350   15.4830   30.7930 C.3    30  ALA30       0.1728
     25  C          0.2090   15.0800   32.2590 C.2    30  ALA30       0.2616
     26  O         -0.3560   14.0980   32.7270 O.2    30  ALA30      -0.2715
     27  CB         0.9030   14.7240   29.8590 C.3    30  ALA30       0.0334
     28  N          1.0430   15.8230   32.9830 N.am   31  GLN31      -0.1977
     29  CA         1.1950   15.5830   34.4280 C.3    31  GLN31       0.1601
     30  C          0.6590   16.7360   35.2720 C.2    31  GLN31       0.2287
     31  O          1.3040   17.1930   36.2120 O.2    31  GLN31      -0.2864
     32  CB         2.6370   15.2180   34.8180 C.3    31  GLN31       0.0394
     33  CG         3.7140   16.1270   34.2790 C.3    31  GLN31       0.0908
     34  CD         4.3360   15.6080   33.0050 C.2    31  GLN31       0.2608
     35  OE1        3.6790   14.9420   32.2030 O.2    31  GLN31      -0.2717
     36  NE2        5.6100   15.9160   32.8060 N.am   31  GLN31      -0.0878
     37  N         -0.0290   23.5350   36.1370 N.3    34  VAL34      -0.1245
     38  CA         1.0920   24.3870   36.4530 C.3    34  VAL34       0.1561
     39  C          0.5180   25.7020   36.9720 C.2    34  VAL34       0.2260
     40  O         -0.4680   26.2030   36.4260 O.2    34  VAL34      -0.2867
     41  CB         1.9770   24.6120   35.2200 C.3    34  VAL34       0.0252
     42  CG1        3.2280   25.3970   35.5880 C.3    34  VAL34       0.0019
     43  CG2        2.3490   23.2740   34.6050 C.3    34  VAL34       0.0019
     44  N          7.0840   29.6020   38.4870 N.3    47  ALA47      -0.1245
     45  CA         6.0780   28.6330   38.0810 C.3    47  ALA47       0.1562
     46  C          6.2550   27.3610   38.9100 C.2    47  ALA47       0.2260
     47  O          7.3800   26.9610   39.2200 O.2    47  ALA47      -0.2867
     48  CB         6.2040   28.3210   36.5990 C.3    47  ALA47       0.0290
     49  N          4.9650   23.3310   39.2520 N.3    49  LYS49      -0.1245
     50  CA         4.2770   22.1780   38.6610 C.3    49  LYS49       0.1561
     51  C          4.1410   21.0460   39.6750 C.2    49  LYS49       0.2260
     52  O          5.1260   20.6350   40.2680 O.2    49  LYS49      -0.2867
     53  CB         5.0880   21.6870   37.4600 C.3    49  LYS49       0.0271
     54  CG         4.3970   20.6360   36.6060 C.3    49  LYS49       0.0035
     55  CD         5.3380   20.1440   35.5140 C.3    49  LYS49       0.0206
     56  CE         4.5560   19.5400   34.3700 C.3    49  LYS49       0.1093
     57  NZ         5.4550   18.8210   33.4220 N.3    49  LYS49      -0.1314
     58  N         14.6100   25.2690   30.1640 N.3    80  ILE80      -0.1245
     59  CA        14.0310   25.7180   31.4160 C.3    80  ILE80       0.1561
     60  C         14.8430   25.1770   32.5920 C.2    80  ILE80       0.2260
     61  O         15.3050   24.0350   32.5760 O.2    80  ILE80      -0.2867
     62  CB        12.5480   25.2980   31.5260 C.3    80  ILE80       0.0252
     63  CG1       11.8150   26.1730   32.5420 C.3    80  ILE80       0.0019
     64  CG2       12.4170   23.8110   31.8310 C.3    80  ILE80       0.0019
     65  CD1       11.5700   27.5850   32.0520 C.3    80  ILE80       0.0001
     66  N          9.9860   26.4120   38.7790 N.3   102  MET102     -0.1230
     67  CA        10.7910   26.9170   37.6620 C.3   102  MET102      0.1702
     68  C         10.6140   28.4120   37.5520 C.2   102  MET102      0.2592
     69  O          9.6150   28.9550   37.9940 O.2   102  MET102     -0.2718
     70  CB        10.3100   26.3050   36.3400 C.3   102  MET102      0.0401
     71  CG        10.2960   24.7890   36.2630 C.3   102  MET102      0.0596
     72  SD         9.1020   24.2370   35.0080 S.3   102  MET102     -0.1393
     73  CE         7.5680   24.2250   35.9220 C.3   102  MET102      0.0692
     74  N         11.5610   29.0690   36.9070 N.am  103  GLU103     -0.1966
     75  CA        11.3700   30.4550   36.4690 C.3   103  GLU103      0.1733
     76  C         10.0790   30.5750   35.6730 C.2   103  GLU103      0.2616
     77  O          9.7430   29.6750   34.9080 O.2   103  GLU103     -0.2715
     78  CB        12.5380   30.8980   35.6070 C.3   103  GLU103      0.0429
     79  CG        12.6780   30.1120   34.3180 C.3   103  GLU103      0.1163
     80  CD        14.1090   30.0550   33.8350 C.2   103  GLU103      0.3649
     81  OE1       14.6570   31.1460   33.5580 O.co2 103  GLU103     -0.2457
     82  OE2       14.6770   28.9330   33.7400 O.co2 103  GLU103     -0.2457
     83  N          9.3530   31.6700   35.8820 N.am  104  LEU104     -0.1963
     84  CA         8.0630   31.8860   35.2560 C.3   104  LEU104      0.1728
     85  C          8.2130   32.5620   33.8950 C.2   104  LEU104      0.2616
     86  O          8.8650   33.5910   33.7690 O.2   104  LEU104     -0.2715
     87  CB         7.1620   32.7590   36.1360 C.3   104  LEU104      0.0311
     88  CG         5.7680   33.0320   35.5540 C.3   104  LEU104      0.0022
     89  CD1        5.0060   31.7220   35.4060 C.3   104  LEU104      0.0001
     90  CD2        4.9870   34.0310   36.3940 C.3   104  LEU104      0.0001
     91  N          7.5950   31.9720   32.8780 N.am  105  MET105     -0.1963
     92  CA         7.5830   32.5520   31.5470 C.3   105  MET105      0.1736
     93  C          6.1700   33.0510   31.3320 C.2   105  MET105      0.2616
     94  O          5.2980   32.7820   32.1540 O.2   105  MET105     -0.2715
     95  CB         7.9890   31.5050   30.5150 C.3   105  MET105      0.0427
     96  CG         9.3570   30.9060   30.7820 C.3   105  MET105      0.0599
     97  SD        10.7070   32.0790   30.5180 S.3   105  MET105     -0.1393
     98  CE        10.6910   32.1580   28.7220 C.3   105  MET105      0.0692
     99  N          5.9390   33.7810   30.2450 N.am  106  ASP106     -0.1957
    100  CA         4.6620   34.4540   30.0510 C.3   106  ASP106      0.1840
    101  C          3.6600   33.6610   29.2390 C.2   106  ASP106      0.2622
    102  O          2.4560   33.8390   29.4110 O.2   106  ASP106     -0.2715
    103  CB         4.8800   35.8190   29.4010 C.3   106  ASP106      0.1450
    104  CG         5.8200   36.6990   30.2010 C.2   106  ASP106      0.3671
    105  OD1        5.6910   36.7260   31.4430 O.co2 106  ASP106     -0.2456
    106  OD2        6.6900   37.3620   29.5990 O.co2 106  ASP106     -0.2456
    107  N          4.1350   32.7920   28.3480 N.am  107  ALA107     -0.1963
    108  CA         3.2220   32.0520   27.4770 C.3   107  ALA107      0.1728
    109  C          3.9120   30.8600   26.8580 C.2   107  ALA107      0.2616
    110  O          5.1460   30.7820   26.8570 O.2   107  ALA107     -0.2715
    111  CB         2.7030   32.9760   26.3810 C.3   107  ALA107      0.0334
    112  N          3.1160   29.9330   26.3370 N.am  108  ASN108     -0.1972
    113  CA         3.6500   28.8460   25.5200 C.3   108  ASN108      0.1688
    114  C          3.5760   29.2110   24.0390 C.2   108  ASN108      0.2292
    115  O          2.9590   30.2100   23.6700 O.2   108  ASN108     -0.2864
    116  CB         2.9540   27.5080   25.8090 C.3   108  ASN108      0.1181
    117  CG         1.5160   27.4740   25.3550 C.2   108  ASN108      0.2629
    118  OD1        1.1910   27.8230   24.2190 O.2   108  ASN108     -0.2716
    119  ND2        0.6330   27.0310   26.2470 N.am  108  ASN108     -0.0877
    120  N          0.3730   29.9970   21.7850 N.3   111  GLN111     -0.1245
    121  CA        -0.2160   31.3410   21.8510 C.3   111  GLN111      0.1566
    122  C          0.5090   32.2680   20.8920 C.2   111  GLN111      0.2260
    123  O         -0.1060   33.1160   20.2640 O.2   111  GLN111     -0.2867
    124  CB        -0.1550   31.9160   23.2680 C.3   111  GLN111      0.0367
    125  CG        -0.7750   31.0350   24.3500 C.3   111  GLN111      0.0905
    126  CD        -0.4480   31.5580   25.7430 C.2   111  GLN111      0.2608
    127  OE1        0.3690   30.9750   26.4620 O.2   111  GLN111     -0.2717
    128  NE2       -1.0520   32.6890   26.1090 N.am  111  GLN111     -0.0878
    129  N          3.3790   23.3740   22.7900 N.3   149  SER149     -0.1202
    130  CA         2.8270   23.4030   24.1330 C.3   149  SER149      0.2020
    131  C          3.9250   23.2050   25.1670 C.2   149  SER149      0.2618
    132  O          3.7980   23.6940   26.2810 O.2   149  SER149     -0.2717
    133  CB         1.7440   22.3390   24.2810 C.3   149  SER149      0.2103
    134  OG         2.3010   21.0430   24.1060 O.3   149  SER149     -0.2182
    135  N          5.0160   22.5330   24.7940 N.am  150  ASN150     -0.1974
    136  CA         6.1610   22.3380   25.7070 C.3   150  ASN150      0.1688
    137  C          7.3170   23.3190   25.4480 C.2   150  ASN150      0.2292
    138  O          8.4640   23.0330   25.7640 O.2   150  ASN150     -0.2864
    139  CB         6.7010   20.9060   25.6370 C.3   150  ASN150      0.1181
    140  CG         5.6300   19.8420   25.8370 C.2   150  ASN150      0.2629
    141  OD1        5.7840   18.7120   25.3480 O.2   150  ASN150     -0.2716
    142  ND2        4.5580   20.1750   26.5490 N.am  150  ASN150     -0.0877
    143  N          8.1280   27.6190   25.8520 N.3   152  VAL152     -0.1245
    144  CA         7.6030   28.8270   26.4690 C.3   152  VAL152      0.1561
    145  C          8.4490   30.0470   26.1250 C.2   152  VAL152      0.2260
    146  O          9.6540   29.9410   25.8650 O.2   152  VAL152     -0.2867
    147  CB         7.4470   28.7050   28.0100 C.3   152  VAL152      0.0252
    148  CG1        6.2260   27.8850   28.3530 C.3   152  VAL152      0.0019
    149  CG2        8.6830   28.1110   28.6500 C.3   152  VAL152      0.0019
    150  N         10.6910   23.2670   27.5760 N.3   162  LEU162     -0.1245
    151  CA        10.2760   22.7790   28.9080 C.3   162  LEU162      0.1561
    152  C         10.7490   21.3800   29.2810 C.2   162  LEU162      0.2260
    153  O         10.9960   21.1400   30.4610 O.2   162  LEU162     -0.2867
    154  CB         8.7540   22.8010   29.0800 C.3   162  LEU162      0.0270
    155  CG         8.0610   24.1490   29.2540 C.3   162  LEU162      0.0019
    156  CD1        6.5880   23.9250   29.5480 C.3   162  LEU162      0.0001
    157  CD2        8.7040   24.9910   30.3460 C.3   162  LEU162      0.0001
@<TRIPOS>BOND
     1   123   122    2
     2   122   121    1
     3   120   121    1
     4   121   124    1
     5   129   130    1
     6   124   125    1
     7   115   114    2
     8   114   113    1
     9   134   133    1
    10   130   133    1
    11   130   131    1
    12   118   117    2
    13   125   126    1
    14   135   131   am
    15   135   136    1
    16   131   132    2
    17   141   140    2
    18   117   116    1
    19   117   119   am
    20   137   136    1
    21   137   138    2
    22   113   116    1
    23   113   112    1
    24   139   136    1
    25   139   140    1
    26   126   128   am
    27   126   127    2
    28   140   142   am
    29   143   144    1
    30   146   145    2
    31   145   144    1
    32   112   109   am
    33   111   108    1
    34   144   147    1
    35   110   109    2
    36   109   108    1
    37   108   107    1
    38   150   151    1
    39   147   148    1
    40   147   149    1
    41   107   101   am
    42    98    97    1
    43   151   154    1
    44   151   152    1
    45   154   155    1
    46   101   102    2
    47   101   100    1
    48   155   156    1
    49   155   157    1
    50   152   153    2
    51   103   100    1
    52   103   104    1
    53   106   104   ar
    54    27    24    1
    55    16    15    2
    56   100    99    1
    57    58    59    1
    58   104   105   ar
    59    99    93   am
    60    95    96    1
    61    95    92    1
    62    97    96    1
    63    23    24    1
    64    23    21   am
    65    20    21    1
    66    20    19    1
    67    24    25    1
    68    21    22    2
    69    15    19   am
    70    15    14    1
    71    93    92    1
    72    93    94    2
    73    59    62    1
    74    59    60    1
    75    62    64    1
    76    62    63    1
    77    92    91    1
    78    13    14    1
    79    13    11   am
    80     4     3    2
    81    65    63    1
    82    35    34    2
    83    14    17    1
    84    25    26    2
    85    25    28   am
    86    17    18    1
    87    10    11    1
    88    10     9    1
    89    61    60    2
    90    36    34   am
    91    11    12    2
    92    91    85   am
    93    28    29    1
    94    34    33    1
    95     3     9   am
    96     3     2    1
    97    57    56    1
    98    81    80   ar
    99    82    80   ar
   100    86    85    2
   101    80    79    1
   102    85    84    1
   103     2     5    1
   104     2     1    1
   105    33    32    1
   106     5     6    1
   107     5     7    1
   108    79    78    1
   109    56    55    1
   110    29    32    1
   111    29    30    1
   112    43    41    1
   113     8     6    1
   114    77    76    2
   115    72    73    1
   116    72    71    1
   117    41    42    1
   118    41    38    1
   119    84    83    1
   120    84    87    1
   121    30    31    2
   122    89    88    1
   123    55    54    1
   124    88    87    1
   125    88    90    1
   126    78    75    1
   127    76    83   am
   128    76    75    1
   129    37    38    1
   130    71    70    1
   131    70    67    1
   132    40    39    2
   133    38    39    1
   134    75    74    1
   135    48    45    1
   136    54    53    1
   137    74    68   am
   138    53    50    1
   139    68    67    1
   140    68    69    2
   141    67    66    1
   142    45    44    1
   143    45    46    1
   144    50    49    1
   145    50    51    1
   146    46    47    2
   147    51    52    2
