@<TRIPOS>MOLECULE
tmp/4kkhA00.pdb
 185 173 0 0 0
SMALL
GASTEIGER

@<TRIPOS>ATOM
      1  N         -2.0500   31.0870   40.9300 N.3    24  LYS24      -0.1231
      2  CA        -3.0770   31.2100   39.8890 C.3    24  LYS24       0.1678
      3  C         -2.9360   30.0440   38.9160 C.2    24  LYS24       0.2434
      4  O         -1.8180   29.7190   38.5060 O.2    24  LYS24      -0.2733
      5  CB        -2.9430   32.5340   39.1140 C.3    24  LYS24       0.0284
      6  CG        -2.7800   33.7880   39.9630 C.3    24  LYS24       0.0035
      7  CD        -4.1090   34.4910   40.2170 C.3    24  LYS24       0.0206
      8  CE        -3.9050   35.8230   40.9310 C.3    24  LYS24       0.1093
      9  NZ        -3.0020   36.7490   40.1810 N.3    24  LYS24      -0.1314
     10  N         -4.0620   29.4160   38.5320 N.am   25  PRO25      -0.2718
     11  CA        -3.9680   28.2870   37.6120 C.3    25  PRO25       0.1535
     12  C         -3.4600   28.7180   36.2400 C.2    25  PRO25       0.2598
     13  O         -3.7600   29.8270   35.7840 O.2    25  PRO25      -0.2715
     14  CB        -5.4130   27.7880   37.5150 C.3    25  PRO25       0.0310
     15  CG        -6.2470   28.9800   37.8260 C.3    25  PRO25       0.0237
     16  CD        -5.4620   29.7700   38.8350 C.3    25  PRO25       0.0939
     17  N         -2.6680   27.8480   35.6170 N.am   26  ILE26      -0.1964
     18  CA        -2.2160   28.0270   34.2410 C.3    26  ILE26       0.1727
     19  C         -2.9260   26.9560   33.4120 C.2    26  ILE26       0.2616
     20  O         -3.5630   27.2600   32.4010 O.2    26  ILE26      -0.2715
     21  CB        -0.6720   27.9100   34.1150 C.3    26  ILE26       0.0290
     22  CG1        0.0120   29.0910   34.8250 C.3    26  ILE26       0.0022
     23  CG2       -0.2550   27.8120   32.6490 C.3    26  ILE26       0.0023
     24  CD1        1.5280   29.0100   34.9480 C.3    26  ILE26       0.0001
     25  N         -2.8240   25.7080   33.8650 N.am   27  GLY27      -0.1955
     26  CA        -3.5620   24.5940   33.2760 C.3    27  GLY27       0.1869
     27  C         -3.3360   23.2690   33.9850 C.2    27  GLY27       0.2309
     28  O         -2.6080   23.1950   34.9820 O.2    27  GLY27      -0.2863
     29  N         -0.1860   22.8540   36.5370 N.3    34  VAL34      -0.1245
     30  CA         0.6980   24.0200   36.5690 C.3    34  VAL34       0.1561
     31  C          0.0240   25.2910   37.0960 C.2    34  VAL34       0.2260
     32  O         -1.1430   25.5580   36.7930 O.2    34  VAL34      -0.2867
     33  CB         1.3310   24.2830   35.1790 C.3    34  VAL34       0.0252
     34  CG1        2.4490   23.2850   34.8990 C.3    34  VAL34       0.0019
     35  CG2        0.2880   24.1970   34.0760 C.3    34  VAL34       0.0019
     36  N          0.9310   29.6940   38.3790 N.3    36  ALA36      -0.1245
     37  CA         1.8270   30.8350   38.5500 C.3    36  ALA36       0.1562
     38  C          1.8120   31.1900   40.0220 C.2    36  ALA36       0.2260
     39  O          0.8050   30.9750   40.6930 O.2    36  ALA36      -0.2867
     40  CB         1.3640   32.0290   37.7210 C.3    36  ALA36       0.0290
     41  N          6.7600   29.7380   37.9640 N.3    47  ALA47      -0.1245
     42  CA         5.7660   28.7270   37.6200 C.3    47  ALA47       0.1562
     43  C          6.0750   27.4470   38.3760 C.2    47  ALA47       0.2260
     44  O          7.2420   27.0560   38.5070 O.2    47  ALA47      -0.2867
     45  CB         5.7300   28.4800   36.1160 C.3    47  ALA47       0.0290
     46  N          5.0360   23.3310   38.7660 N.3    49  LYS49      -0.1245
     47  CA         4.3640   22.1250   38.2820 C.3    49  LYS49       0.1561
     48  C          4.2950   21.0540   39.3710 C.2    49  LYS49       0.2260
     49  O          5.3170   20.6670   39.9540 O.2    49  LYS49      -0.2867
     50  CB         5.0330   21.5810   37.0130 C.3    49  LYS49       0.0271
     51  CG         4.4310   20.2780   36.4860 C.3    49  LYS49       0.0035
     52  CD         4.6150   20.1050   34.9790 C.3    49  LYS49       0.0206
     53  CE         6.0280   19.6690   34.6310 C.3    49  LYS49       0.1093
     54  NZ         6.0280   18.9340   33.3320 N.3    49  LYS49      -0.1314
     55  N         17.1680   17.6650   34.1840 N.3    71  MET71      -0.1245
     56  CA        17.0230   19.0650   34.5950 C.3    71  MET71       0.1570
     57  C         18.1930   19.5320   35.4440 C.2    71  MET71       0.2261
     58  O         18.6360   20.6770   35.3270 O.2    71  MET71      -0.2867
     59  CB        15.7200   19.2900   35.3600 C.3    71  MET71       0.0387
     60  CG        14.5110   19.4840   34.4620 C.3    71  MET71       0.0595
     61  SD        12.9530   19.6520   35.3530 S.3    71  MET71      -0.1393
     62  CE        13.0500   18.3530   36.5760 C.3    71  MET71       0.0692
     63  N         14.6320   24.6800   30.0690 N.3    80  ILE80      -0.1245
     64  CA        14.1610   24.8380   31.4350 C.3    80  ILE80       0.1561
     65  C         15.3060   24.6650   32.4360 C.2    80  ILE80       0.2260
     66  O         16.1240   23.7510   32.3090 O.2    80  ILE80      -0.2867
     67  CB        13.0220   23.8590   31.7780 C.3    80  ILE80       0.0252
     68  CG1       12.7180   23.9320   33.2700 C.3    80  ILE80       0.0019
     69  CG2       13.3740   22.4330   31.3670 C.3    80  ILE80       0.0019
     70  CD1       11.3290   23.4950   33.6020 C.3    80  ILE80       0.0001
     71  N         15.7040   24.4900   36.6680 N.3    82  LEU82      -0.1245
     72  CA        14.9210   24.2800   37.8670 C.3    82  LEU82       0.1561
     73  C         15.3580   25.2630   38.9440 C.2    82  LEU82       0.2260
     74  O         16.5380   25.3160   39.2820 O.2    82  LEU82      -0.2867
     75  CB        15.1580   22.8490   38.3310 C.3    82  LEU82       0.0270
     76  CG        14.0910   22.0420   39.0580 C.3    82  LEU82       0.0019
     77  CD1       12.7780   22.0430   38.3000 C.3    82  LEU82       0.0001
     78  CD2       14.6240   20.6260   39.2270 C.3    82  LEU82       0.0001
     79  N          7.8260   21.1550   41.0300 N.3   100  LEU100     -0.1231
     80  CA         8.9490   21.6880   40.2820 C.3   100  LEU100      0.1693
     81  C          8.6940   23.1710   40.0510 C.2   100  LEU100      0.2592
     82  O          7.5690   23.5780   39.7700 O.2   100  LEU100     -0.2718
     83  CB         9.0960   20.9550   38.9420 C.3   100  LEU100      0.0284
     84  CG         9.1420   19.4210   38.9190 C.3   100  LEU100      0.0019
     85  CD1        9.1040   18.9180   37.4810 C.3   100  LEU100      0.0001
     86  CD2       10.3770   18.8770   39.6240 C.3   100  LEU100      0.0001
     87  N          9.7420   23.9730   40.1850 N.am  101  VAL101     -0.1966
     88  CA         9.6010   25.4190   40.1430 C.3   101  VAL101      0.1727
     89  C         10.6000   25.9710   39.1490 C.2   101  VAL101      0.2616
     90  O         11.7920   25.6100   39.1840 O.2   101  VAL101     -0.2715
     91  CB         9.8740   26.0700   41.5210 C.3   101  VAL101      0.0290
     92  CG1        9.5540   27.5610   41.4880 C.3   101  VAL101      0.0023
     93  CG2        9.0830   25.3770   42.6290 C.3   101  VAL101      0.0023
     94  N         10.1050   26.8500   38.2830 N.am  102  MET102     -0.1963
     95  CA        10.9380   27.5550   37.3160 C.3   102  MET102      0.1736
     96  C         10.4670   28.9970   37.1860 C.2   102  MET102      0.2616
     97  O          9.3870   29.3620   37.6750 O.2   102  MET102     -0.2715
     98  CB        10.8880   26.8610   35.9460 C.3   102  MET102      0.0427
     99  CG         9.5620   27.0230   35.2120 C.3   102  MET102      0.0599
    100  SD         9.6000   26.4800   33.4800 S.3   102  MET102     -0.1393
    101  CE        10.7020   27.6720   32.7200 C.3   102  MET102      0.0692
    102  N         11.2830   29.8090   36.5130 N.am  103  GLU103     -0.1963
    103  CA        10.9370   31.1850   36.1640 C.3   103  GLU103      0.1733
    104  C          9.5830   31.2700   35.4430 C.2   103  GLU103      0.2616
    105  O          9.2930   30.4580   34.5590 O.2   103  GLU103     -0.2715
    106  CB        12.0630   31.7650   35.3010 C.3   103  GLU103      0.0429
    107  CG        11.6660   32.9040   34.3920 C.3   103  GLU103      0.1163
    108  CD        12.8550   33.6650   33.8490 C.2   103  GLU103      0.3649
    109  OE1       13.9430   33.0720   33.7060 O.co2 103  GLU103     -0.2457
    110  OE2       12.6920   34.8680   33.5730 O.co2 103  GLU103     -0.2457
    111  N          8.7570   32.2450   35.8210 N.am  104  LEU104     -0.1963
    112  CA         7.4620   32.4230   35.1560 C.3   104  LEU104      0.1728
    113  C          7.6480   33.0070   33.7510 C.2   104  LEU104      0.2616
    114  O          8.2150   34.0760   33.5880 O.2   104  LEU104     -0.2715
    115  CB         6.5290   33.3220   35.9640 C.3   104  LEU104      0.0311
    116  CG         5.1090   33.3920   35.3750 C.3   104  LEU104      0.0022
    117  CD1        4.4770   32.0080   35.2900 C.3   104  LEU104      0.0001
    118  CD2        4.2260   34.3640   36.1530 C.3   104  LEU104      0.0001
    119  N          7.2000   32.2900   32.7350 N.am  105  MET105     -0.1963
    120  CA         7.2700   32.8300   31.3790 C.3   105  MET105      0.1736
    121  C          5.8930   33.4010   31.0180 C.2   105  MET105      0.2616
    122  O          4.9450   33.2290   31.7810 O.2   105  MET105     -0.2715
    123  CB         7.7140   31.7510   30.4030 C.3   105  MET105      0.0427
    124  CG         9.0120   31.0710   30.8110 C.3   105  MET105      0.0599
    125  SD        10.4450   32.1160   30.5020 S.3   105  MET105     -0.1393
    126  CE        10.5600   31.9870   28.7130 C.3   105  MET105      0.0692
    127  N          5.7900   34.0780   29.8760 N.am  106  ASP106     -0.1957
    128  CA         4.5940   34.8690   29.5440 C.3   106  ASP106      0.1840
    129  C          3.5870   34.1530   28.6740 C.2   106  ASP106      0.2622
    130  O          2.3720   34.3840   28.7820 O.2   106  ASP106     -0.2715
    131  CB         5.0020   36.1820   28.8640 C.3   106  ASP106      0.1450
    132  CG         5.7260   37.1160   29.8050 C.2   106  ASP106      0.3671
    133  OD1        5.3260   37.1750   30.9880 O.co2 106  ASP106     -0.2456
    134  OD2        6.6870   37.7830   29.3690 O.co2 106  ASP106     -0.2456
    135  N          4.0800   33.3050   27.7790 N.am  107  ALA107     -0.1963
    136  CA         3.1890   32.6810   26.8230 C.3   107  ALA107      0.1728
    137  C          3.7060   31.3410   26.3740 C.2   107  ALA107      0.2616
    138  O          4.9120   31.0820   26.3740 O.2   107  ALA107     -0.2715
    139  CB         2.9800   33.5990   25.6160 C.3   107  ALA107      0.0334
    140  N          2.7590   30.5060   25.9820 N.am  108  ASN108     -0.1972
    141  CA         3.0120   29.2700   25.2910 C.3   108  ASN108      0.1688
    142  C          3.2770   29.5610   23.8150 C.2   108  ASN108      0.2292
    143  O          2.7630   30.5340   23.2640 O.2   108  ASN108     -0.2864
    144  CB         1.7780   28.3760   25.4600 C.3   108  ASN108      0.1181
    145  CG         2.0440   26.9450   25.0980 C.2   108  ASN108      0.2629
    146  OD1        1.9910   26.5830   23.9290 O.2   108  ASN108     -0.2716
    147  ND2        2.3130   26.1080   26.1050 N.am  108  ASN108     -0.0877
    148  N          0.2510   29.9700   21.4110 N.3   111  GLN111     -0.1245
    149  CA        -0.3010   31.3290   21.3580 C.3   111  GLN111      0.1566
    150  C          0.4920   32.2220   20.4050 C.2   111  GLN111      0.2260
    151  O         -0.0830   32.9510   19.6080 O.2   111  GLN111     -0.2867
    152  CB        -0.3080   31.9750   22.7410 C.3   111  GLN111      0.0367
    153  CG        -0.8810   31.1330   23.8660 C.3   111  GLN111      0.0905
    154  CD        -0.5820   31.7620   25.2130 C.2   111  GLN111      0.2608
    155  OE1        0.2060   31.2350   25.9990 O.2   111  GLN111     -0.2717
    156  NE2       -1.1720   32.9330   25.4630 N.am  111  GLN111     -0.0878
    157  N          3.3770   23.3370   22.2440 N.3   149  SER149     -0.1202
    158  CA         2.7540   23.3340   23.5770 C.3   149  SER149      0.2020
    159  C          3.7380   23.1210   24.7380 C.2   149  SER149      0.2618
    160  O          3.4190   23.4580   25.8750 O.2   149  SER149     -0.2717
    161  CB         1.5840   22.3360   23.6630 C.3   149  SER149      0.2103
    162  OG         2.0480   21.0030   23.5470 O.3   149  SER149     -0.2182
    163  N          4.9280   22.5900   24.4610 N.am  150  ASN150     -0.1974
    164  CA         5.9520   22.4120   25.5000 C.3   150  ASN150      0.1688
    165  C          7.0890   23.4290   25.3830 C.2   150  ASN150      0.2292
    166  O          8.1770   23.2150   25.9160 O.2   150  ASN150     -0.2864
    167  CB         6.5440   20.9970   25.4770 C.3   150  ASN150      0.1181
    168  CG         5.5180   19.9090   25.7570 C.2   150  ASN150      0.2629
    169  OD1        4.5560   20.1070   26.4980 O.2   150  ASN150     -0.2716
    170  ND2        5.7360   18.7380   25.1670 N.am  150  ASN150     -0.0877
    171  N          7.8830   27.6540   25.8580 N.3   152  VAL152     -0.1245
    172  CA         7.3510   28.9040   26.3990 C.3   152  VAL152      0.1561
    173  C          8.2030   30.1050   26.0300 C.2   152  VAL152      0.2260
    174  O          9.4080   29.9830   25.7780 O.2   152  VAL152     -0.2867
    175  CB         7.1160   28.8540   27.9270 C.3   152  VAL152      0.0252
    176  CG1        5.8320   28.0960   28.2480 C.3   152  VAL152      0.0019
    177  CG2        8.3190   28.2540   28.6500 C.3   152  VAL152      0.0019
    178  N         10.6830   23.0990   27.4860 N.3   162  LEU162     -0.1245
    179  CA        10.2950   22.6190   28.8240 C.3   162  LEU162      0.1561
    180  C         10.5000   21.1410   29.1310 C.2   162  LEU162      0.2260
    181  O         10.4310   20.7490   30.2990 O.2   162  LEU162     -0.2867
    182  CB         8.8160   22.9530   29.1070 C.3   162  LEU162      0.0270
    183  CG         8.3690   24.4180   29.1470 C.3   162  LEU162      0.0019
    184  CD1        6.8620   24.4940   29.3490 C.3   162  LEU162      0.0001
    185  CD2        9.0870   25.2210   30.2180 C.3   162  LEU162      0.0001
@<TRIPOS>BOND
     1   151   150    2
     2   150   149    1
     3   149   148    1
     4   149   152    1
     5   157   158    1
     6   152   153    1
     7   143   142    2
     8   162   161    1
     9   158   161    1
    10   158   159    1
    11   142   141    1
    12   153   154    1
    13   146   145    2
    14   163   159   am
    15   163   164    1
    16   159   160    2
    17   145   144    1
    18   145   147   am
    19   170   168   am
    20   154   156   am
    21   154   155    2
    22   141   144    1
    23   141   140    1
    24   165   164    1
    25   165   166    2
    26   167   164    1
    27   167   168    1
    28   139   136    1
    29   168   169    2
    30   174   173    2
    31   171   172    1
    32   140   137   am
    33   173   172    1
    34   138   137    2
    35   137   136    1
    36   172   175    1
    37   136   135    1
    38   178   179    1
    39   135   129   am
    40   175   176    1
    41   175   177    1
    42   129   130    2
    43   129   128    1
    44   126   125    1
    45   179   182    1
    46   179   180    1
    47   131   128    1
    48   131   132    1
    49   182   183    1
    50   180   181    2
    51   183   184    1
    52   183   185    1
    53   134   132   ar
    54   128   127    1
    55   132   133   ar
    56   127   121   am
    57    63    64    1
    58   123   124    1
    59   123   120    1
    60   125   124    1
    61   121   120    1
    62   121   122    2
    63    69    67    1
    64   120   119    1
    65    64    67    1
    66    64    65    1
    67    67    68    1
    68    66    65    2
    69    20    19    2
    70    23    21    1
    71   101   100    1
    72   119   113   am
    73    68    70    1
    74    26    25    1
    75    26    27    1
    76    54    53    1
    77    19    25   am
    78    19    18    1
    79   100    99    1
    80   110   108   ar
    81   114   113    2
    82   109   108   ar
    83   113   112    1
    84   108   107    1
    85    27    28    2
    86    35    33    1
    87    21    18    1
    88    21    22    1
    89    55    56    1
    90    18    17    1
    91   107   106    1
    92    60    61    1
    93    60    59    1
    94   105   104    2
    95    56    59    1
    96    56    57    1
    97    53    52    1
    98    22    24    1
    99    34    33    1
   100    52    51    1
   101   112   111    1
   102   112   115    1
   103    33    30    1
   104    99    98    1
   105   117   116    1
   106   106   103    1
   107    58    57    2
   108    61    62    1
   109   116   115    1
   110   116   118    1
   111   104   111   am
   112   104   103    1
   113    17    12   am
   114    13    12    2
   115    98    95    1
   116    45    42    1
   117   103   102    1
   118    12    11    1
   119    51    50    1
   120   102    96   am
   121    29    30    1
   122    30    31    1
   123    71    72    1
   124    32    31    2
   125    50    47    1
   126    96    95    1
   127    96    97    2
   128    95    94    1
   129    85    84    1
   130    14    11    1
   131    14    15    1
   132    11    10    1
   133    42    41    1
   134    42    43    1
   135    40    37    1
   136    15    16    1
   137    72    75    1
   138    72    73    1
   139    47    46    1
   140    47    48    1
   141    94    89   am
   142    77    76    1
   143    75    76    1
   144    43    44    2
   145    36    37    1
   146     4     3    2
   147    10    16    1
   148    10     3   am
   149    37    38    1
   150     3     2    1
   151    84    83    1
   152    84    86    1
   153    83    80    1
   154    73    74    2
   155    76    78    1
   156     5     2    1
   157     5     6    1
   158    89    90    2
   159    89    88    1
   160    48    49    2
   161    82    81    2
   162     2     1    1
   163     6     7    1
   164    38    39    2
   165    81    87   am
   166    81    80    1
   167    88    87    1
   168    88    91    1
   169     9     8    1
   170     7     8    1
   171    80    79    1
   172    92    91    1
   173    91    93    1
