@<TRIPOS>MOLECULE
tmp/4kkiA10.pdb
 76 71 0 0 0
SMALL
GASTEIGER

@<TRIPOS>ATOM
      1  N        -33.1340   51.4530   -4.5660 N.3    10  TYR10      -0.1241
      2  CA       -32.9500   50.2490   -3.7590 C.3    10  TYR10       0.1605
      3  C        -31.8600   49.3490   -4.3300 C.2    10  TYR10       0.2264
      4  O        -31.2140   48.6000   -3.5970 O.2    10  TYR10      -0.2867
      5  CB       -34.2560   49.4620   -3.6420 C.3    10  TYR10       0.0534
      6  CG       -35.1360   49.8920   -2.4920 C.ar   10  TYR10      -0.0201
      7  CD1      -34.7640   50.9390   -1.6590 C.ar   10  TYR10      -0.0009
      8  CD2      -36.3340   49.2390   -2.2300 C.ar   10  TYR10      -0.0009
      9  CE1      -35.5670   51.3310   -0.6040 C.ar   10  TYR10       0.0417
     10  CE2      -37.1420   49.6230   -1.1780 C.ar   10  TYR10       0.0417
     11  CZ       -36.7540   50.6690   -0.3680 C.ar   10  TYR10       0.1957
     12  OH       -37.5570   51.0540    0.6810 O.3    10  TYR10      -0.2866
     13  N        -28.4380   49.3040   -2.8350 N.3    13  LEU13      -0.1245
     14  CA       -28.2240   48.5770   -1.5870 C.3    13  LEU13       0.1561
     15  C        -27.8780   47.1100   -1.8250 C.2    13  LEU13       0.2260
     16  O        -27.5540   46.3860   -0.8850 O.2    13  LEU13      -0.2867
     17  CB       -29.4530   48.6850   -0.6840 C.3    13  LEU13       0.0270
     18  CG       -29.8270   50.1060   -0.2620 C.3    13  LEU13       0.0019
     19  CD1      -30.9800   50.0860    0.7260 C.3    13  LEU13       0.0001
     20  CD2      -28.6240   50.8180    0.3260 C.3    13  LEU13       0.0001
     21  N        -26.6000   43.6150    0.4440 N.3    17  LEU17      -0.1245
     22  CA       -27.3670   42.3780    0.4850 C.3    17  LEU17       0.1561
     23  C        -26.4870   41.2030    0.0750 C.2    17  LEU17       0.2260
     24  O        -26.4360   40.1870    0.7660 O.2    17  LEU17      -0.2867
     25  CB       -28.5990   42.4760   -0.4250 C.3    17  LEU17       0.0270
     26  CG       -29.5690   43.6320   -0.1460 C.3    17  LEU17       0.0019
     27  CD1      -30.6930   43.6860   -1.1770 C.3    17  LEU17       0.0001
     28  CD2      -30.1390   43.5320    1.2610 C.3    17  LEU17       0.0001
     29  N        -35.0870   45.9600    8.6290 N.3    41  VAL41      -0.1231
     30  CA       -35.5880   46.6110    7.4220 C.3    41  VAL41       0.1692
     31  C        -36.6210   45.7420    6.6980 C.2    41  VAL41       0.2593
     32  O        -36.8980   45.9390    5.5150 O.2    41  VAL41      -0.2718
     33  CB       -34.4400   47.0050    6.4660 C.3    41  VAL41       0.0266
     34  CG1      -33.4690   47.9380    7.1740 C.3    41  VAL41       0.0020
     35  CG2      -33.7110   45.7730    5.9600 C.3    41  VAL41       0.0020
     36  N        -37.1910   44.7840    7.4210 N.am   42  GLY42      -0.1942
     37  CA       -38.2500   43.9500    6.8820 C.3    42  GLY42       0.2014
     38  C        -37.7490   42.9620    5.8510 C.2    42  GLY42       0.2638
     39  O        -38.4070   42.7040    4.8460 O.2    42  GLY42      -0.2714
     40  N        -36.5670   42.4120    6.0950 N.am   43  ILE43      -0.1977
     41  CA       -36.0050   41.4130    5.2010 C.3    43  ILE43       0.1596
     42  C        -35.6930   40.1270    5.9550 C.2    43  ILE43       0.2287
     43  O        -35.0020   40.1410    6.9740 O.2    43  ILE43      -0.2864
     44  CB       -34.7260   41.9150    4.5200 C.3    43  ILE43       0.0276
     45  CG1      -35.0310   43.1110    3.6180 C.3    43  ILE43       0.0022
     46  CG2      -34.0910   40.8010    3.7080 C.3    43  ILE43       0.0022
     47  CD1      -33.8090   43.6540    2.9060 C.3    43  ILE43       0.0001
     48  N        -32.3640   52.7280    5.2690 N.3   272  MET272     -0.1245
     49  CA       -33.7580   52.4110    5.0110 C.3   272  MET272      0.1570
     50  C        -34.6440   53.1780    5.9790 C.2   272  MET272      0.2261
     51  O        -35.8350   52.8980    6.1000 O.2   272  MET272     -0.2867
     52  CB       -33.9980   50.9120    5.1780 C.3   272  MET272      0.0387
     53  CG       -34.9530   50.3330    4.1650 C.3   272  MET272      0.0595
     54  SD       -34.0860   49.8840    2.6580 S.3   272  MET272     -0.1393
     55  CE       -33.1310   48.4920    3.2520 C.3   272  MET272      0.0692
     56  N        -42.2090   39.4210    3.2110 N.3   289  SER289     -0.1202
     57  CA       -41.3200   40.5700    3.0900 C.3   289  SER289      0.2020
     58  C        -39.9860   40.2270    2.4340 C.2   289  SER289      0.2619
     59  O        -39.0730   39.7150    3.0830 O.2   289  SER289     -0.2717
     60  CB       -41.0750   41.1980    4.4630 C.3   289  SER289      0.2103
     61  OG       -42.2470   41.8170    4.9610 O.3   289  SER289     -0.2182
     62  N        -39.8780   40.5250    1.1430 N.am  290  GLY290     -0.1956
     63  CA       -38.6330   40.3400    0.4260 C.3   290  GLY290      0.1869
     64  C        -38.7790   39.5470   -0.8560 C.2   290  GLY290      0.2309
     65  O        -38.9760   38.3330   -0.8260 O.2   290  GLY290     -0.2863
     66  N        -36.4770   38.8710   -4.1330 N.3   292  PHE292     -0.1241
     67  CA       -35.1030   39.0650   -4.5950 C.3   292  PHE292      0.1605
     68  C        -34.8090   38.4710   -5.9720 C.2   292  PHE292      0.2264
     69  O        -34.7260   37.2520   -6.1320 O.2   292  PHE292     -0.2867
     70  CB       -34.1140   38.5150   -3.5640 C.3   292  PHE292      0.0534
     71  CG       -34.2890   39.0990   -2.1950 C.ar  292  PHE292     -0.0203
     72  CD1      -33.7690   40.3450   -1.8890 C.ar  292  PHE292     -0.0042
     73  CD2      -34.9830   38.4080   -1.2160 C.ar  292  PHE292     -0.0042
     74  CE1      -33.9340   40.8900   -0.6310 C.ar  292  PHE292     -0.0003
     75  CE2      -35.1510   38.9470    0.0440 C.ar  292  PHE292     -0.0003
     76  CZ       -34.6250   40.1900    0.3360 C.ar  292  PHE292     -0.0000
@<TRIPOS>BOND
     1    69    68    2
     2    68    67    1
     3    67    66    1
     4    67    70    1
     5     1     2    1
     6     3     2    1
     7     3     4    2
     8     2     5    1
     9     5     6    1
    10    70    71    1
    11    13    14    1
    12     6     8   ar
    13     6     7   ar
    14     8    10   ar
    15    71    72   ar
    16    71    73   ar
    17    72    74   ar
    18    15    14    1
    19    15    16    2
    20     7     9   ar
    21    14    17    1
    22    73    75   ar
    23    10    11   ar
    24    27    26    1
    25    64    65    2
    26    64    63    1
    27    17    18    1
    28    74    76   ar
    29     9    11   ar
    30    25    26    1
    31    25    22    1
    32    11    12    1
    33    18    20    1
    34    18    19    1
    35    26    28    1
    36    75    76   ar
    37    23    22    1
    38    23    24    2
    39    63    62    1
    40    21    22    1
    41    62    58   am
    42    58    59    2
    43    58    57    1
    44    54    55    1
    45    54    53    1
    46    47    45    1
    47    57    56    1
    48    57    60    1
    49    45    44    1
    50    46    44    1
    51    53    52    1
    52    60    61    1
    53    44    41    1
    54    39    38    2
    55    49    52    1
    56    49    48    1
    57    49    50    1
    58    41    42    1
    59    41    40    1
    60    32    31    2
    61    38    40   am
    62    38    37    1
    63    42    43    2
    64    35    33    1
    65    50    51    2
    66    33    34    1
    67    33    30    1
    68    31    36   am
    69    31    30    1
    70    37    36    1
    71    30    29    1
