@<TRIPOS>MOLECULE
tmp/4kkiA11.pdb
 93 85 0 0 0
SMALL
GASTEIGER

@<TRIPOS>ATOM
      1  N        -33.7300   47.6550   27.9800 N.3   132  CYS132     -0.1221
      2  CA       -34.7870   48.6560   27.8950 C.3   132  CYS132      0.1808
      3  C        -35.9030   48.2440   26.9360 C.2   132  CYS132      0.2601
      4  O        -37.0850   48.3390   27.2680 O.2   132  CYS132     -0.2717
      5  CB       -34.2040   50.0040   27.4670 C.3   132  CYS132      0.0970
      6  SG       -35.4390   51.2470   27.0750 S.3   132  CYS132     -0.0800
      7  N        -35.5220   47.7860   25.7460 N.am  133  LEU133     -0.1979
      8  CA       -36.4880   47.3900   24.7220 C.3   133  LEU133      0.1596
      9  C        -37.3120   46.1620   25.1080 C.2   133  LEU133      0.2287
     10  O        -38.4270   45.9810   24.6200 O.2   133  LEU133     -0.2864
     11  CB       -35.7780   47.1250   23.3940 C.3   133  LEU133      0.0297
     12  CG       -35.2800   48.3420   22.6160 C.3   133  LEU133      0.0022
     13  CD1      -34.4210   47.9060   21.4360 C.3   133  LEU133      0.0001
     14  CD2      -36.4610   49.1720   22.1410 C.3   133  LEU133      0.0001
     15  N        -37.9870   45.1510   28.4120 N.3   135  ASN135     -0.1240
     16  CA       -38.4720   45.2550   29.7850 C.3   135  ASN135      0.1653
     17  C        -37.6460   44.4660   30.7940 C.2   135  ASN135      0.2266
     18  O        -38.1900   43.8690   31.7210 O.2   135  ASN135     -0.2867
     19  CB       -39.9420   44.8340   29.8700 C.3   135  ASN135      0.1155
     20  CG       -40.8510   45.7300   29.0550 C.2   135  ASN135      0.2627
     21  OD1      -41.4490   45.2950   28.0710 O.2   135  ASN135     -0.2716
     22  ND2      -40.9610   46.9890   29.4620 N.am  135  ASN135     -0.0877
     23  N        -33.8900   55.2290   24.4270 N.3   174  CYS174     -0.1235
     24  CA       -34.8380   54.1840   24.7880 C.3   174  CYS174      0.1677
     25  C        -35.3000   54.3600   26.2300 C.2   174  CYS174      0.2270
     26  O        -36.4880   54.2420   26.5250 O.2   174  CYS174     -0.2867
     27  CB       -34.2260   52.7950   24.5900 C.3   174  CYS174      0.0956
     28  SG       -35.3350   51.4360   25.0500 S.3   174  CYS174     -0.0801
     29  N        -37.7960   57.2280   26.4230 N.3   177  LYS177     -0.1231
     30  CA       -39.1330   56.8400   25.9880 C.3   177  LYS177      0.1693
     31  C        -39.7890   55.9530   27.0370 C.2   177  LYS177      0.2592
     32  O        -40.9800   56.0830   27.3190 O.2   177  LYS177     -0.2718
     33  CB       -39.0780   56.1140   24.6420 C.3   177  LYS177      0.0285
     34  CG       -38.4050   56.9130   23.5430 C.3   177  LYS177      0.0035
     35  CD       -38.2460   56.1010   22.2720 C.3   177  LYS177      0.0206
     36  CE       -39.5080   56.1290   21.4410 C.3   177  LYS177      0.1093
     37  NZ       -39.8210   57.5160   21.0010 N.3   177  LYS177     -0.1314
     38  N        -38.9930   55.0650   27.6230 N.am  178  SER178     -0.1952
     39  CA       -39.4690   54.1600   28.6600 C.3   178  SER178      0.1924
     40  C        -39.9220   54.9200   29.9070 C.2   178  SER178      0.2314
     41  O        -40.8880   54.5290   30.5610 O.2   178  SER178     -0.2863
     42  CB       -38.3800   53.1480   29.0200 C.3   178  SER178      0.2116
     43  OG       -38.8180   52.2690   30.0390 O.3   178  SER178     -0.2180
     44  N        -43.1940   56.8310   29.0360 N.3   181  ASN181     -0.1240
     45  CA       -44.2430   55.8180   29.1000 C.3   181  ASN181      0.1653
     46  C        -44.3870   55.3080   30.5310 C.2   181  ASN181      0.2266
     47  O        -43.8740   55.9170   31.4690 O.2   181  ASN181     -0.2867
     48  CB       -43.9380   54.6530   28.1550 C.3   181  ASN181      0.1155
     49  CG       -43.8320   55.0850   26.7040 C.2   181  ASN181      0.2627
     50  OD1      -44.3800   56.1120   26.3060 O.2   181  ASN181     -0.2716
     51  ND2      -43.1240   54.2970   25.9040 N.am  181  ASN181     -0.0877
     52  N        -43.3890   52.2130   31.4320 N.3   183  GLN183     -0.1245
     53  CA       -42.5360   51.0320   31.5210 C.3   183  GLN183      0.1566
     54  C        -41.5990   51.0300   32.7260 C.2   183  GLN183      0.2260
     55  O        -41.4510   50.0120   33.4000 O.2   183  GLN183     -0.2867
     56  CB       -41.7240   50.8510   30.2360 C.3   183  GLN183      0.0367
     57  CG       -42.3830   49.9630   29.1930 C.3   183  GLN183      0.0905
     58  CD       -43.5920   50.6080   28.5490 C.2   183  GLN183      0.2608
     59  OE1      -43.4710   51.3140   27.5470 O.2   183  GLN183     -0.2717
     60  NE2      -44.7670   50.3650   29.1180 N.am  183  GLN183     -0.0878
     61  N        -34.3690   51.4330   17.5580 N.3   277  LEU277     -0.1245
     62  CA       -35.5600   51.7350   18.3490 C.3   277  LEU277      0.1561
     63  C        -36.8520   51.2990   17.6630 C.2   277  LEU277      0.2260
     64  O        -37.9290   51.3650   18.2550 O.2   277  LEU277     -0.2867
     65  CB       -35.6240   53.2230   18.6880 C.3   277  LEU277      0.0270
     66  CG       -34.4770   53.7490   19.5500 C.3   277  LEU277      0.0019
     67  CD1      -34.7150   55.2040   19.9010 C.3   277  LEU277      0.0001
     68  CD2      -34.3160   52.9070   20.8060 C.3   277  LEU277      0.0001
     69  N        -37.4120   48.3500   16.9400 N.3   279  ILE279     -0.1245
     70  CA       -37.6310   46.9960   17.4240 C.3   279  ILE279      0.1561
     71  C        -38.8630   46.9330   18.3260 C.2   279  ILE279      0.2260
     72  O        -38.8520   47.4280   19.4550 O.2   279  ILE279     -0.2867
     73  CB       -36.3970   46.4700   18.1800 C.3   279  ILE279      0.0252
     74  CG1      -35.2180   46.3140   17.2170 C.3   279  ILE279      0.0019
     75  CG2      -36.7070   45.1460   18.8550 C.3   279  ILE279      0.0019
     76  CD1      -33.9220   45.9080   17.8850 C.3   279  ILE279      0.0001
     77  N        -41.0130   44.3030   20.1400 N.3   281  LYS281     -0.1231
     78  CA       -41.0340   42.9020   20.5540 C.3   281  LYS281      0.1693
     79  C        -42.4400   42.3070   20.5150 C.2   281  LYS281      0.2592
     80  O        -42.6030   41.0930   20.3890 O.2   281  LYS281     -0.2718
     81  CB       -40.4240   42.7390   21.9500 C.3   281  LYS281      0.0285
     82  CG       -41.3010   43.2350   23.0870 C.3   281  LYS281      0.0035
     83  CD       -40.5850   43.1120   24.4220 C.3   281  LYS281      0.0206
     84  CE       -41.5620   43.1960   25.5810 C.3   281  LYS281      0.1093
     85  NZ       -42.5160   42.0510   25.5730 N.3   281  LYS281     -0.1314
     86  N        -43.4510   43.1640   20.6180 N.am  282  ASP282     -0.1974
     87  CA       -44.8380   42.7170   20.5640 C.3   282  ASP282      0.1709
     88  C        -45.4280   42.8640   19.1630 C.2   282  ASP282      0.2293
     89  O        -46.4030   43.5890   18.9570 O.2   282  ASP282     -0.2864
     90  CB       -45.6910   43.4530   21.6010 C.3   282  ASP282      0.1436
     91  CG       -45.3180   43.0870   23.0270 C.2   282  ASP282      0.3671
     92  OD1      -45.7780   42.0310   23.5110 O.co2 282  ASP282     -0.2456
     93  OD2      -44.5660   43.8540   23.6640 O.co2 282  ASP282     -0.2456
@<TRIPOS>BOND
     1    69    70    1
     2    74    76    1
     3    74    73    1
     4    70    73    1
     5    70    71    1
     6    61    62    1
     7    63    64    2
     8    63    62    1
     9    73    75    1
    10    71    72    2
    11    62    65    1
    12    65    66    1
    13    89    88    2
    14    88    87    1
    15    66    67    1
    16    66    68    1
    17    77    78    1
    18    80    79    2
    19    79    78    1
    20    79    86   am
    21    78    81    1
    22    87    86    1
    23    87    90    1
    24    37    36    1
    25    13    12    1
    26    36    35    1
    27    90    91    1
    28    81    82    1
    29    14    12    1
    30    35    34    1
    31    12    11    1
    32    91    92   ar
    33    91    93   ar
    34    82    83    1
    35    11     8    1
    36    34    33    1
    37    83    84    1
    38    23    24    1
    39    27    24    1
    40    27    28    1
    41    10     9    2
    42    33    30    1
    43     8     9    1
    44     8     7    1
    45    24    25    1
    46    28     6    1
    47    85    84    1
    48     7     3   am
    49    51    49   am
    50    30    29    1
    51    30    31    1
    52    25    26    2
    53    50    49    2
    54    49    48    1
    55     3     4    2
    56     3     2    1
    57    31    32    2
    58    31    38   am
    59     6     5    1
    60     5     2    1
    61    59    58    2
    62    38    39    1
    63     2     1    1
    64    21    20    2
    65    48    45    1
    66    15    16    1
    67    58    60   am
    68    58    57    1
    69    39    42    1
    70    39    40    1
    71    42    43    1
    72    44    45    1
    73    20    22   am
    74    20    19    1
    75    45    46    1
    76    57    56    1
    77    16    19    1
    78    16    17    1
    79    40    41    2
    80    56    53    1
    81    46    47    2
    82    17    18    2
    83    52    53    1
    84    53    54    1
    85    54    55    2
