@<TRIPOS>MOLECULE
tmp/4kkiA09.pdb
 77 70 0 0 0
SMALL
GASTEIGER

@<TRIPOS>ATOM
      1  N        -33.7670   41.9190    9.4530 N.3    39  LYS39      -0.1231
      2  CA       -35.1140   41.8960   10.0180 C.3    39  LYS39       0.1693
      3  C        -35.5880   43.3100   10.3400 C.2    39  LYS39       0.2592
      4  O        -36.7790   43.6150   10.2590 O.2    39  LYS39      -0.2718
      5  CB       -35.1660   41.0030   11.2630 C.3    39  LYS39       0.0285
      6  CG       -34.8510   39.5380   10.9800 C.3    39  LYS39       0.0035
      7  CD       -35.9450   38.6100   11.4840 C.3    39  LYS39       0.0206
      8  CE       -36.0410   38.6240   13.0000 C.3    39  LYS39       0.1093
      9  NZ       -37.1050   37.6990   13.4830 N.3    39  LYS39      -0.1314
     10  N        -34.6380   44.1730   10.6800 N.am   40  LEU40      -0.1966
     11  CA       -34.9300   45.5560   11.0250 C.3    40  LEU40       0.1728
     12  C        -35.4850   46.3450    9.8370 C.2    40  LEU40       0.2616
     13  O        -36.2620   47.2840   10.0140 O.2    40  LEU40      -0.2715
     14  CB       -33.6680   46.2260   11.5630 C.3    40  LEU40       0.0311
     15  CG       -33.8690   47.4300   12.4760 C.3    40  LEU40       0.0022
     16  CD1      -34.8640   47.1050   13.5790 C.3    40  LEU40       0.0001
     17  CD2      -32.5320   47.8300   13.0610 C.3    40  LEU40       0.0001
     18  N        -35.0870   45.9600    8.6290 N.am   41  VAL41      -0.1963
     19  CA       -35.5880   46.6110    7.4220 C.3    41  VAL41       0.1727
     20  C        -36.6210   45.7420    6.6980 C.2    41  VAL41       0.2616
     21  O        -36.8980   45.9390    5.5150 O.2    41  VAL41      -0.2715
     22  CB       -34.4400   47.0050    6.4660 C.3    41  VAL41       0.0290
     23  CG1      -33.4690   47.9380    7.1740 C.3    41  VAL41       0.0023
     24  CG2      -33.7110   45.7730    5.9600 C.3    41  VAL41       0.0023
     25  N        -37.1910   44.7840    7.4210 N.am   42  GLY42      -0.1955
     26  CA       -38.2500   43.9500    6.8820 C.3    42  GLY42       0.1869
     27  C        -37.7490   42.9620    5.8510 C.2    42  GLY42       0.2309
     28  O        -38.4070   42.7040    4.8460 O.2    42  GLY42      -0.2863
     29  N        -36.6620   41.3300   17.1730 N.3    81  VAL81      -0.1231
     30  CA       -36.9550   42.4820   16.3200 C.3    81  VAL81       0.1692
     31  C        -38.4650   42.6120   16.1740 C.2    81  VAL81       0.2592
     32  O        -39.0240   43.7100   16.2180 O.2    81  VAL81      -0.2718
     33  CB       -36.3260   42.3350   14.9190 C.3    81  VAL81       0.0266
     34  CG1      -36.6480   43.5460   14.0560 C.3    81  VAL81       0.0020
     35  CG2      -34.8280   42.1460   15.0240 C.3    81  VAL81       0.0020
     36  N        -39.1150   41.4650   16.0130 N.am   82  CYS82      -0.1970
     37  CA       -40.5660   41.3820   15.9600 C.3    82  CYS82       0.1712
     38  C        -41.0100   40.0370   16.5270 C.2    82  CYS82       0.2296
     39  O        -40.1980   39.1240   16.6850 O.2    82  CYS82      -0.2864
     40  CB       -41.0520   41.5490   14.5210 C.3    82  CYS82       0.0983
     41  SG       -40.0860   40.6250   13.3040 S.3    82  CYS82      -0.0798
     42  N        -34.3840   53.2920    9.2590 N.3   274  LYS274     -0.1245
     43  CA       -34.6680   52.5030   10.4490 C.3   274  LYS274      0.1561
     44  C        -33.5700   52.6600   11.4910 C.2   274  LYS274      0.2260
     45  O        -32.4120   52.9070   11.1530 O.2   274  LYS274     -0.2867
     46  CB       -34.8180   51.0250   10.0780 C.3   274  LYS274      0.0271
     47  CG       -36.0050   50.7220    9.1740 C.3   274  LYS274      0.0035
     48  CD       -37.3170   50.8660    9.9260 C.3   274  LYS274      0.0206
     49  CE       -38.5040   50.5430    9.0370 C.3   274  LYS274      0.1093
     50  NZ       -39.7950   50.7100    9.7620 N.3   274  LYS274     -0.1314
     51  N        -36.7420   50.8520   16.4150 N.3   278  ASP278     -0.1239
     52  CA       -37.9020   50.3580   15.6790 C.3   278  ASP278      0.1674
     53  C        -38.1940   48.9000   16.0170 C.2   278  ASP278      0.2266
     54  O        -39.1020   48.2890   15.4550 O.2   278  ASP278     -0.2867
     55  CB       -37.6930   50.5260   14.1750 C.3   278  ASP278      0.1410
     56  CG       -37.6550   51.9770   13.7610 C.2   278  ASP278      0.3668
     57  OD1      -38.3480   52.7900   14.4050 O.co2 278  ASP278     -0.2456
     58  OD2      -36.9290   52.3070   12.8010 O.co2 278  ASP278     -0.2456
     59  N        -44.4360   42.9140   14.7840 N.3   284  SER284     -0.1217
     60  CA       -44.3130   43.8200   13.6510 C.3   284  SER284      0.1889
     61  C        -43.9370   42.9530   12.4590 C.2   284  SER284      0.2288
     62  O        -43.7980   43.4340   11.3340 O.2   284  SER284     -0.2866
     63  CB       -43.2310   44.8710   13.8980 C.3   284  SER284      0.2089
     64  OG       -43.5980   45.7520   14.9440 O.3   284  SER284     -0.2183
     65  N        -43.9330   41.1610    9.4610 N.3   286  VAL286     -0.1245
     66  CA       -44.6430   40.9350    8.2140 C.3   286  VAL286      0.1561
     67  C        -44.0540   39.6910    7.5590 C.2   286  VAL286      0.2260
     68  O        -42.9460   39.7320    7.0240 O.2   286  VAL286     -0.2867
     69  CB       -44.5070   42.1360    7.2630 C.3   286  VAL286      0.0252
     70  CG1      -45.3550   41.9250    6.0180 C.3   286  VAL286      0.0019
     71  CG2      -44.9040   43.4220    7.9710 C.3   286  VAL286      0.0019
     72  N        -42.2090   39.4210    3.2110 N.3   289  SER289     -0.1217
     73  CA       -41.3200   40.5700    3.0900 C.3   289  SER289      0.1889
     74  C        -39.9860   40.2270    2.4340 C.2   289  SER289      0.2288
     75  O        -39.0730   39.7150    3.0830 O.2   289  SER289     -0.2866
     76  CB       -41.0750   41.1980    4.4630 C.3   289  SER289      0.2089
     77  OG       -42.2470   41.8170    4.9610 O.3   289  SER289     -0.2183
@<TRIPOS>BOND
     1    74    75    2
     2    74    73    1
     3    73    72    1
     4    73    76    1
     5    76    77    1
     6    28    27    2
     7    21    20    2
     8    27    26    1
     9    24    22    1
    10    70    69    1
    11    22    23    1
    12    22    19    1
    13    20    25   am
    14    20    19    1
    15    26    25    1
    16    68    67    2
    17    69    71    1
    18    69    66    1
    19    19    18    1
    20    67    66    1
    21    66    65    1
    22    18    12   am
    23    49    50    1
    24    49    48    1
    25    47    48    1
    26    47    46    1
    27    42    43    1
    28     1     2    1
    29    12    13    2
    30    12    11    1
    31     2     3    1
    32     2     5    1
    33    46    43    1
    34     4     3    2
    35     3    10   am
    36    43    44    1
    37    10    11    1
    38     6     5    1
    39     6     7    1
    40    11    14    1
    41    45    44    2
    42    62    61    2
    43     7     8    1
    44    14    15    1
    45    61    60    1
    46    15    17    1
    47    15    16    1
    48    58    56   ar
    49     8     9    1
    50    41    40    1
    51    60    63    1
    52    60    59    1
    53    56    55    1
    54    56    57   ar
    55    63    64    1
    56    34    33    1
    57    55    52    1
    58    40    37    1
    59    33    35    1
    60    33    30    1
    61    54    53    2
    62    52    53    1
    63    52    51    1
    64    37    36    1
    65    37    38    1
    66    36    31   am
    67    31    32    2
    68    31    30    1
    69    30    29    1
    70    38    39    2
