@<TRIPOS>MOLECULE
tmp/4kkiA00.pdb
 97 96 0 0 0
SMALL
GASTEIGER

@<TRIPOS>ATOM
      1  N        -18.8930   31.7460    5.7250 N.3    26  ASN26      -0.1240
      2  CA       -17.8500   32.1330    6.6670 C.3    26  ASN26       0.1653
      3  C        -18.2460   31.7480    8.0880 C.2    26  ASN26       0.2266
      4  O        -19.0170   32.4490    8.7380 O.2    26  ASN26      -0.2867
      5  CB       -17.5880   33.6400    6.5810 C.3    26  ASN26       0.1155
      6  CG       -16.2910   34.0520    7.2540 C.2    26  ASN26       0.2627
      7  OD1      -15.9360   35.2310    7.2610 O.2    26  ASN26      -0.2716
      8  ND2      -15.5690   33.0860    7.8040 N.am   26  ASN26      -0.0877
      9  N        -16.5060   31.8280   10.6310 N.3    28  GLY28      -0.1210
     10  CA       -15.8540   32.6990   11.5910 C.3    28  GLY28       0.1956
     11  C        -16.6100   33.9900   11.8440 C.2    28  GLY28       0.2612
     12  O        -16.3810   34.6640   12.8480 O.2    28  GLY28      -0.2717
     13  N        -17.5140   34.3390   10.9340 N.am   29  THR29      -0.1952
     14  CA       -18.2720   35.5750   11.0750 C.3    29  THR29       0.1897
     15  C        -19.6520   35.3210   11.6810 C.2    29  THR29       0.2313
     16  O        -20.2150   34.2330   11.5510 O.2    29  THR29      -0.2863
     17  CB       -18.4080   36.3290    9.7340 C.3    29  THR29       0.1794
     18  OG1      -18.7610   37.6950    9.9860 O.3    29  THR29      -0.2208
     19  CG2      -19.4710   35.6870    8.8530 C.3    29  THR29       0.0378
     20  N        -17.5760   45.6760    2.0310 N.3   259  SER259     -0.1202
     21  CA       -17.3890   44.2650    1.7130 C.3   259  SER259      0.2020
     22  C        -17.3700   43.3920    2.9690 C.2   259  SER259      0.2619
     23  O        -17.6020   42.1870    2.9000 O.2   259  SER259     -0.2717
     24  CB       -16.0990   44.0670    0.9150 C.3   259  SER259      0.2103
     25  OG       -14.9840   44.5660    1.6320 O.3   259  SER259     -0.2182
     26  N        -17.0850   44.0020    4.1140 N.am  260  ASN260     -0.1960
     27  CA       -17.1380   43.2900    5.3860 C.3   260  ASN260      0.1804
     28  C        -18.5890   43.1860    5.8730 C.2   260  ASN260      0.2463
     29  O        -19.2520   44.2050    6.0630 O.2   260  ASN260     -0.2730
     30  CB       -16.2620   44.0070    6.4200 C.3   260  ASN260      0.1195
     31  CG       -16.0100   43.1720    7.6630 C.2   260  ASN260      0.2630
     32  OD1      -16.9220   42.5490    8.2090 O.2   260  ASN260     -0.2716
     33  ND2      -14.7610   43.1600    8.1200 N.am  260  ASN260     -0.0877
     34  N        -19.0800   41.9490    6.0720 N.am  261  PRO261     -0.2727
     35  CA       -20.4640   41.6780    6.4890 C.3   261  PRO261      0.1402
     36  C        -20.8740   42.3970    7.7730 C.2   261  PRO261      0.2269
     37  O        -22.0480   42.7370    7.9290 O.2   261  PRO261     -0.2865
     38  CB       -20.4780   40.1540    6.7040 C.3   261  PRO261      0.0296
     39  CG       -19.0420   39.7590    6.8240 C.3   261  PRO261      0.0237
     40  CD       -18.3000   40.7080    5.9390 C.3   261  PRO261      0.0939
     41  N         -8.8760   35.2070   15.3230 N.3   343  GLU343     -0.1231
     42  CA        -9.9600   35.3810   14.3690 C.3   343  GLU343      0.1699
     43  C        -11.2050   35.9120   15.0710 C.2   343  GLU343      0.2592
     44  O        -11.7270   35.2830   15.9920 O.2   343  GLU343     -0.2718
     45  CB       -10.2700   34.0620   13.6610 C.3   343  GLU343      0.0402
     46  CG       -11.0300   34.2280   12.3570 C.3   343  GLU343      0.1161
     47  CD       -10.2060   34.9230   11.2900 C.2   343  GLU343      0.3649
     48  OE1       -9.0040   34.6040   11.1630 O.co2 343  GLU343     -0.2457
     49  OE2      -10.7580   35.7920   10.5840 O.co2 343  GLU343     -0.2457
     50  N        -11.6690   37.0800   14.6420 N.am  344  ARG344     -0.1966
     51  CA       -12.8880   37.6660   15.1830 C.3   344  ARG344      0.1729
     52  C        -13.9590   37.6780   14.1050 C.2   344  ARG344      0.2617
     53  O        -13.7030   37.2900   12.9650 O.2   344  ARG344     -0.2715
     54  CB       -12.6290   39.0910   15.6680 C.3   344  ARG344      0.0348
     55  CG       -11.6780   39.1960   16.8460 C.3   344  ARG344      0.0492
     56  CD       -12.3450   38.7680   18.1410 C.3   344  ARG344      0.2205
     57  NE       -11.5600   39.1710   19.3050 N.pl3 344  ARG344     -0.0865
     58  CZ       -10.6590   38.3990   19.9040 C.cat 344  ARG344      0.5346
     59  NH1      -10.4290   37.1730   19.4550 N.pl3 344  ARG344      0.1354
     60  NH2       -9.9900   38.8530   20.9550 N.pl3 344  ARG344      0.1354
     61  N        -15.1560   38.1260   14.4640 N.am  345  SER345     -0.1936
     62  CA       -16.2410   38.2390   13.4980 C.3   345  SER345      0.2055
     63  C        -15.8880   39.2800   12.4450 C.2   345  SER345      0.2643
     64  O        -16.1940   39.1120   11.2640 O.2   345  SER345     -0.2714
     65  CB       -17.5490   38.6120   14.1970 C.3   345  SER345      0.2130
     66  OG       -18.6050   38.7480   13.2620 O.3   345  SER345     -0.2179
     67  N        -15.2320   40.3520   12.8800 N.am  346  TRP346     -0.1959
     68  CA       -14.8030   41.4100   11.9740 C.3   346  TRP346      0.1771
     69  C        -13.6500   40.9460   11.0920 C.2   346  TRP346      0.2620
     70  O        -13.4350   41.4800   10.0040 O.2   346  TRP346     -0.2715
     71  CB       -14.3910   42.6590   12.7560 C.3   346  TRP346      0.0590
     72  CG       -15.5240   43.5640   13.1260 C.ar  346  TRP346      0.0006
     73  CD1      -16.2110   43.5810   14.3050 C.ar  346  TRP346      0.0946
     74  CD2      -16.0960   44.5970   12.3140 C.ar  346  TRP346      0.0152
     75  NE1      -17.1780   44.5590   14.2760 N.ar  346  TRP346     -0.2442
     76  CE2      -17.1290   45.1970   13.0640 C.ar  346  TRP346      0.0810
     77  CE3      -15.8370   45.0720   11.0240 C.ar  346  TRP346      0.0012
     78  CZ2      -17.9020   46.2440   12.5680 C.ar  346  TRP346      0.0191
     79  CZ3      -16.6070   46.1130   10.5320 C.ar  346  TRP346      0.0001
     80  CH2      -17.6260   46.6870   11.3020 C.ar  346  TRP346      0.0015
     81  N        -12.9110   39.9490   11.5670 N.am  347  GLY347     -0.1940
     82  CA       -11.7710   39.4300   10.8360 C.3   347  GLY347      0.1998
     83  C        -10.5590   39.2630   11.7310 C.2   347  GLY347      0.2480
     84  O        -10.6990   39.1690   12.9500 O.2   347  GLY347     -0.2729
     85  N         -9.3620   39.2190   11.1270 N.am  348  PRO348     -0.2726
     86  CA        -8.0920   39.0780   11.8510 C.3   348  PRO348      0.1402
     87  C         -7.8310   40.2540   12.7850 C.2   348  PRO348      0.2269
     88  O         -7.7640   41.3980   12.3380 O.2   348  PRO348     -0.2865
     89  CB        -7.0480   39.0600   10.7280 C.3   348  PRO348      0.0296
     90  CG        -7.7980   38.6200    9.5180 C.3   348  PRO348      0.0237
     91  CD        -9.1680   39.2060    9.6680 C.3   348  PRO348      0.0939
     92  N         -7.9330   43.5150    5.7600 N.3   381  SER381     -0.1217
     93  CA        -8.7320   44.1470    4.7100 C.3   381  SER381      0.1889
     94  C         -8.0860   45.3810    4.0780 C.2   381  SER381      0.2288
     95  O         -8.3770   45.7150    2.9300 O.2   381  SER381     -0.2866
     96  CB       -10.1240   44.4970    5.2400 C.3   381  SER381      0.2089
     97  OG       -10.8150   43.3320    5.6560 O.3   381  SER381     -0.2183
@<TRIPOS>BOND
     1    24    25    1
     2    24    21    1
     3    21    20    1
     4    21    22    1
     5    23    22    2
     6    95    94    2
     7    22    26   am
     8    94    93    1
     9    26    27    1
    10    93    96    1
    11    93    92    1
    12    96    97    1
    13    27    28    1
    14    27    30    1
    15     1     2    1
    16    28    29    2
    17    28    34   am
    18    40    34    1
    19    40    39    1
    20    34    35    1
    21    30    31    1
    22    35    38    1
    23    35    36    1
    24     5     2    1
    25     5     6    1
    26     2     3    1
    27    38    39    1
    28     6     7    2
    29     6     8   am
    30    31    33   am
    31    31    32    2
    32    36    37    2
    33     3     4    2
    34    19    17    1
    35    90    91    1
    36    90    89    1
    37    91    85    1
    38    17    18    1
    39    17    14    1
    40    70    69    2
    41    79    77   ar
    42    79    80   ar
    43    49    47   ar
    44     9    10    1
    45    89    86    1
    46    82    81    1
    47    82    83    1
    48    13    14    1
    49    13    11   am
    50    77    74   ar
    51    14    15    1
    52    69    81   am
    53    69    68    1
    54    85    83   am
    55    85    86    1
    56    48    47   ar
    57    64    63    2
    58    47    46    1
    59    80    78   ar
    60    16    15    2
    61    10    11    1
    62    83    84    2
    63    11    12    2
    64    86    87    1
    65    68    71    1
    66    68    67    1
    67    74    76   ar
    68    74    72   ar
    69    88    87    2
    70    46    45    1
    71    63    67   am
    72    63    62    1
    73    78    76   ar
    74    71    72    1
    75    53    52    2
    76    76    75   ar
    77    72    73   ar
    78    66    65    1
    79    62    65    1
    80    62    61    1
    81    45    42    1
    82    52    61   am
    83    52    51    1
    84    75    73   ar
    85    42    43    1
    86    42    41    1
    87    50    43   am
    88    50    51    1
    89    43    44    2
    90    51    54    1
    91    54    55    1
    92    55    56    1
    93    56    57    1
    94    57    58    2
    95    59    58    1
    96    58    60    1
