@<TRIPOS>MOLECULE
tmp/4kkiA02.pdb
 89 81 0 0 0
SMALL
GASTEIGER

@<TRIPOS>ATOM
      1  N        -20.1850   36.3350   12.3520 N.3    30  SER30      -0.1217
      2  CA       -21.4610   36.2130   13.0370 C.3    30  SER30       0.1889
      3  C        -22.6330   36.3350   12.0700 C.2    30  SER30       0.2288
      4  O        -22.5410   37.0170   11.0490 O.2    30  SER30      -0.2866
      5  CB       -21.5760   37.2750   14.1330 C.3    30  SER30       0.2089
      6  OG       -22.8450   37.2300   14.7590 O.3    30  SER30      -0.2183
      7  N        -25.6350   36.8620   13.7200 N.3    32  VAL32      -0.1231
      8  CA       -26.5150   37.5920   14.6250 C.3    32  VAL32       0.1692
      9  C        -26.7210   39.0350   14.1740 C.2    32  VAL32       0.2592
     10  O        -27.8540   39.4910   14.0150 O.2    32  VAL32      -0.2718
     11  CB       -25.9620   37.5850   16.0590 C.3    32  VAL32       0.0266
     12  CG1      -26.8290   38.4470   16.9660 C.3    32  VAL32       0.0020
     13  CG2      -25.8730   36.1560   16.5820 C.3    32  VAL32       0.0020
     14  N        -25.6170   39.7490   13.9750 N.am   33  ASN33      -0.1974
     15  CA       -25.6680   41.1300   13.5080 C.3    33  ASN33       0.1688
     16  C        -26.3170   41.2450   12.1300 C.2    33  ASN33       0.2292
     17  O        -27.0710   42.1800   11.8590 O.2    33  ASN33      -0.2864
     18  CB       -24.2610   41.7300   13.4750 C.3    33  ASN33       0.1181
     19  CG       -23.2670   40.8490   12.7390 C.2    33  ASN33       0.2629
     20  OD1      -23.6230   39.7920   12.2120 O.2    33  ASN33      -0.2716
     21  ND2      -22.0120   41.2850   12.6940 N.am   33  ASN33      -0.0877
     22  N        -25.8160   29.1830   15.6590 N.3    55  GLN55      -0.1231
     23  CA       -24.8210   29.8710   16.4760 C.3    55  GLN55       0.1698
     24  C        -25.3520   30.1400   17.8800 C.2    55  GLN55       0.2592
     25  O        -24.6420   29.9510   18.8670 O.2    55  GLN55      -0.2718
     26  CB       -24.3900   31.1870   15.8240 C.3    55  GLN55       0.0381
     27  CG       -23.5500   31.0220   14.5690 C.3    55  GLN55       0.0905
     28  CD       -23.1050   32.3530   13.9890 C.2    55  GLN55       0.2608
     29  OE1      -23.6470   33.4060   14.3300 O.2    55  GLN55      -0.2717
     30  NE2      -22.1110   32.3110   13.1100 N.am   55  GLN55      -0.0878
     31  N        -26.6020   30.5840   17.9610 N.am   56  ILE56      -0.1980
     32  CA       -27.2180   30.9030   19.2430 C.3    56  ILE56       0.1595
     33  C        -27.3590   29.6550   20.1100 C.2    56  ILE56       0.2287
     34  O        -26.9910   29.6630   21.2840 O.2    56  ILE56      -0.2864
     35  CB       -28.5890   31.5890   19.0610 C.3    56  ILE56       0.0276
     36  CG1      -28.4030   32.9860   18.4610 C.3    56  ILE56       0.0022
     37  CG2      -29.3250   31.6790   20.3910 C.3    56  ILE56       0.0022
     38  CD1      -29.7010   33.7040   18.1460 C.3    56  ILE56       0.0001
     39  N        -23.7710   28.5440   21.3150 N.3    59  ASN59      -0.1240
     40  CA       -23.2250   29.3750   22.3810 C.3    59  ASN59       0.1653
     41  C        -23.9790   29.2180   23.6990 C.2    59  ASN59       0.2266
     42  O        -23.3720   29.1890   24.7670 O.2    59  ASN59      -0.2867
     43  CB       -23.1860   30.8460   21.9600 C.3    59  ASN59       0.1155
     44  CG       -22.0850   31.1350   20.9560 C.2    59  ASN59       0.2627
     45  OD1      -20.9280   31.3280   21.3280 O.2    59  ASN59      -0.2716
     46  ND2      -22.4410   31.1690   19.6760 N.am   59  ASN59      -0.0877
     47  N        -21.2860   27.5520   25.8830 N.3    63  ARG63      -0.1245
     48  CA       -20.3420   28.6660   25.9550 C.3    63  ARG63       0.1563
     49  C        -20.9920   29.9410   26.4800 C.2    63  ARG63       0.2260
     50  O        -20.4280   31.0300   26.3550 O.2    63  ARG63      -0.2867
     51  CB       -19.7250   28.9330   24.5790 C.3    63  ARG63       0.0307
     52  CG       -18.2870   29.4240   24.6310 C.3    63  ARG63       0.0489
     53  CD       -17.8660   30.0540   23.3140 C.3    63  ARG63       0.2205
     54  NE       -18.4120   31.3990   23.1510 N.pl3  63  ARG63      -0.0865
     55  CZ       -17.7750   32.5110   23.5030 C.cat  63  ARG63       0.5346
     56  NH1      -16.5640   32.4400   24.0390 N.pl3  63  ARG63       0.1354
     57  NH2      -18.3460   33.6940   23.3190 N.pl3  63  ARG63       0.1354
     58  N        -19.7690   34.1980   26.7410 N.3    67  VAL67      -0.1245
     59  CA       -20.3760   35.1730   25.8410 C.3    67  VAL67       0.1561
     60  C        -20.4080   36.5560   26.4850 C.2    67  VAL67       0.2260
     61  O        -20.8870   36.7120   27.6060 O.2    67  VAL67      -0.2867
     62  CB       -21.8060   34.7540   25.4450 C.3    67  VAL67       0.0252
     63  CG1      -22.5110   35.8780   24.7070 C.3    67  VAL67       0.0019
     64  CG2      -21.7710   33.4920   24.5970 C.3    67  VAL67       0.0019
     65  N        -22.5190   40.7130   23.1620 N.3    71  GLU71      -0.1245
     66  CA       -22.8590   39.6260   22.2490 C.3    71  GLU71       0.1567
     67  C        -24.2430   39.0750   22.5590 C.2    71  GLU71       0.2260
     68  O        -25.0210   38.7790   21.6540 O.2    71  GLU71      -0.2867
     69  CB       -21.8240   38.5010   22.3300 C.3    71  GLU71       0.0388
     70  CG       -20.5070   38.8070   21.6400 C.3    71  GLU71       0.1160
     71  CD       -19.4800   37.7080   21.8370 C.2    71  GLU71       0.3649
     72  OE1      -19.6300   36.9110   22.7890 O.co2  71  GLU71      -0.2457
     73  OE2      -18.5250   37.6390   21.0380 O.co2  71  GLU71      -0.2457
     74  N        -26.9560   41.6040   21.4530 N.3    74  LEU74      -0.1231
     75  CA       -27.2620   41.4930   20.0280 C.3    74  LEU74       0.1693
     76  C        -28.1240   40.2720   19.7330 C.2    74  LEU74       0.2591
     77  O        -28.9920   40.3140   18.8630 O.2    74  LEU74      -0.2718
     78  CB       -25.9810   41.4400   19.1940 C.3    74  LEU74       0.0284
     79  CG       -25.2370   42.7620   18.9960 C.3    74  LEU74       0.0019
     80  CD1      -23.9340   42.5290   18.2510 C.3    74  LEU74       0.0001
     81  CD2      -26.1060   43.7670   18.2520 C.3    74  LEU74       0.0001
     82  N        -27.8750   39.1840   20.4560 N.am   75  ILE75      -0.1980
     83  CA       -28.6590   37.9670   20.2880 C.3    75  ILE75       0.1595
     84  C        -30.1180   38.2350   20.6210 C.2    75  ILE75       0.2287
     85  O        -31.0170   37.8800   19.8590 O.2    75  ILE75      -0.2864
     86  CB       -28.1230   36.8220   21.1630 C.3    75  ILE75       0.0276
     87  CG1      -26.7970   36.3130   20.5990 C.3    75  ILE75       0.0022
     88  CG2      -29.1280   35.6790   21.2370 C.3    75  ILE75       0.0022
     89  CD1      -26.1720   35.2110   21.4140 C.3    75  ILE75       0.0001
@<TRIPOS>BOND
     1     4     3    2
     2    17    16    2
     3     3     2    1
     4    16    15    1
     5    20    19    2
     6     1     2    1
     7    21    19   am
     8    19    18    1
     9     2     5    1
    10    30    28   am
    11    18    15    1
    12    15    14    1
    13     7     8    1
    14    14     9   am
    15    28    29    2
    16    28    27    1
    17    10     9    2
    18     5     6    1
    19     9     8    1
    20    27    26    1
    21     8    11    1
    22    22    23    1
    23    26    23    1
    24    11    13    1
    25    11    12    1
    26    23    24    1
    27    24    31   am
    28    24    25    2
    29    31    32    1
    30    38    36    1
    31    80    79    1
    32    81    79    1
    33    36    35    1
    34    77    76    2
    35    79    78    1
    36    35    32    1
    37    35    37    1
    38    78    75    1
    39    32    33    1
    40    46    44   am
    41    76    75    1
    42    76    82   am
    43    85    84    2
    44    75    74    1
    45    33    34    2
    46    83    82    1
    47    83    84    1
    48    83    86    1
    49    87    86    1
    50    87    89    1
    51    44    45    2
    52    44    43    1
    53    73    71   ar
    54    86    88    1
    55    39    40    1
    56    70    71    1
    57    70    69    1
    58    68    67    2
    59    71    72   ar
    60    43    40    1
    61    66    69    1
    62    66    67    1
    63    66    65    1
    64    40    41    1
    65    54    53    1
    66    54    55    2
    67    53    52    1
    68    57    55    1
    69    55    56    1
    70    41    42    2
    71    51    52    1
    72    51    48    1
    73    64    62    1
    74    63    62    1
    75    62    59    1
    76    59    60    1
    77    59    58    1
    78    47    48    1
    79    48    49    1
    80    50    49    2
    81    60    61    2
