@<TRIPOS>MOLECULE
tmp/4kkoA00.pdb
 190 190 0 0 0
SMALL
GASTEIGER

@<TRIPOS>ATOM
      1  N         26.9340  -18.4010  145.1550 N.3    97  PRO97      -0.2116
      2  CA        27.2690  -18.9030  143.8200 C.3    97  PRO97       0.1372
      3  C         26.0910  -19.5830  143.1450 C.2    97  PRO97       0.2244
      4  O         25.2010  -20.0960  143.8230 O.2    97  PRO97      -0.2868
      5  CB        28.3680  -19.9320  144.1000 C.3    97  PRO97       0.0268
      6  CG        28.9800  -19.4870  145.3700 C.3    97  PRO97       0.0207
      7  CD        27.8550  -18.9170  146.1820 C.3    97  PRO97       0.0892
      8  N         27.7920  -21.7550  137.2240 N.3   101  GLY101     -0.1210
      9  CA        29.0440  -21.0300  137.0960 C.3   101  GLY101      0.1956
     10  C         30.2580  -21.8400  137.5000 C.2   101  GLY101      0.2612
     11  O         31.3820  -21.5310  137.1030 O.2   101  GLY101     -0.2717
     12  N         30.0270  -22.8820  138.2920 N.am  102  LEU102     -0.1965
     13  CA        31.1000  -23.7460  138.7620 C.3   102  LEU102      0.1728
     14  C         31.6810  -24.5740  137.6240 C.2   102  LEU102      0.2616
     15  O         31.0360  -24.7700  136.5940 O.2   102  LEU102     -0.2715
     16  CB        30.5900  -24.6760  139.8630 C.3   102  LEU102      0.0311
     17  CG        29.9720  -24.0120  141.0950 C.3   102  LEU102      0.0022
     18  CD1       29.4800  -25.0600  142.0810 C.3   102  LEU102      0.0001
     19  CD2       30.9650  -23.0730  141.7600 C.3   102  LEU102      0.0001
     20  N         32.9100  -25.0450  137.8100 N.am  103  LYS103     -0.1977
     21  CA        33.4990  -26.0100  136.8930 C.3   103  LYS103      0.1596
     22  C         33.5180  -27.3660  137.5780 C.2   103  LYS103      0.2287
     23  O         33.7300  -27.4460  138.7870 O.2   103  LYS103     -0.2864
     24  CB        34.9170  -25.6030  136.4880 C.3   103  LYS103      0.0298
     25  CG        35.5190  -26.5070  135.4210 C.3   103  LYS103      0.0038
     26  CD        36.9280  -26.0950  135.0370 C.3   103  LYS103      0.0206
     27  CE        37.4880  -27.0280  133.9710 C.3   103  LYS103      0.1093
     28  NZ        38.9100  -26.7320  133.6420 N.3   103  LYS103     -0.1314
     29  N         34.5050  -30.9880  139.0250 N.3   105  LYS105     -0.1245
     30  CA        35.7000  -31.4930  139.6860 C.3   105  LYS105      0.1561
     31  C         35.6260  -33.0070  139.8350 C.2   105  LYS105      0.2260
     32  O         34.5460  -33.5670  140.0350 O.2   105  LYS105     -0.2867
     33  CB        35.8770  -30.8320  141.0550 C.3   105  LYS105      0.0271
     34  CG        36.2010  -29.3510  140.9830 C.3   105  LYS105      0.0035
     35  CD        37.4160  -29.1110  140.1010 C.3   105  LYS105      0.0206
     36  CE        37.5760  -27.6430  139.7520 C.3   105  LYS105      0.1093
     37  NZ        38.5890  -27.4560  138.6770 N.3   105  LYS105     -0.1314
     38  N         35.2280  -33.7650  145.2920 N.3   108  VAL108     -0.1245
     39  CA        34.7550  -32.6520  146.1170 C.3   108  VAL108      0.1561
     40  C         34.4350  -33.1390  147.5320 C.2   108  VAL108      0.2260
     41  O         33.7760  -34.1630  147.7070 O.2   108  VAL108     -0.2867
     42  CB        33.4970  -31.9720  145.5120 C.3   108  VAL108      0.0252
     43  CG1       32.9910  -30.8660  146.4280 C.3   108  VAL108      0.0019
     44  CG2       33.7860  -31.4170  144.1220 C.3   108  VAL108      0.0019
     45  N         40.4460  -25.9910  144.5930 N.3   181  VAL181     -0.1231
     46  CA        39.5600  -24.8410  144.7820 C.3   181  VAL181      0.1692
     47  C         38.7710  -24.9330  146.0890 C.2   181  VAL181      0.2592
     48  O         38.4130  -26.0250  146.5310 O.2   181  VAL181     -0.2718
     49  CB        38.5720  -24.6720  143.6030 C.3   181  VAL181      0.0266
     50  CG1       39.3130  -24.2720  142.3380 C.3   181  VAL181      0.0020
     51  CG2       37.7750  -25.9450  143.3820 C.3   181  VAL181      0.0020
     52  N         38.5060  -23.7810  146.7040 N.am  182  ILE182     -0.1966
     53  CA        37.8060  -23.7330  147.9890 C.3   182  ILE182      0.1727
     54  C         36.6420  -22.7340  147.9830 C.2   182  ILE182      0.2616
     55  O         36.7130  -21.6910  147.3370 O.2   182  ILE182     -0.2715
     56  CB        38.7690  -23.3650  149.1450 C.3   182  ILE182      0.0290
     57  CG1       40.1110  -24.0820  148.9900 C.3   182  ILE182      0.0022
     58  CG2       38.1450  -23.6910  150.4950 C.3   182  ILE182      0.0023
     59  CD1       41.1090  -23.7590  150.0800 C.3   182  ILE182      0.0001
     60  N         35.5690  -23.0690  148.6950 N.am  183  TYR183     -0.1974
     61  CA        34.4420  -22.1570  148.8890 C.3   183  TYR183      0.1639
     62  C         33.8590  -22.3210  150.2920 C.2   183  TYR183      0.2290
     63  O         33.6450  -23.4410  150.7430 O.2   183  TYR183     -0.2864
     64  CB        33.3590  -22.4110  147.8380 C.3   183  TYR183      0.0560
     65  CG        32.0220  -21.7900  148.1770 C.ar  183  TYR183     -0.0198
     66  CD1       31.8360  -20.4150  148.1130 C.ar  183  TYR183     -0.0009
     67  CD2       30.9450  -22.5800  148.5580 C.ar  183  TYR183     -0.0009
     68  CE1       30.6160  -19.8440  148.4260 C.ar  183  TYR183      0.0417
     69  CE2       29.7210  -22.0170  148.8700 C.ar  183  TYR183      0.0417
     70  CZ        29.5620  -20.6500  148.8010 C.ar  183  TYR183      0.1957
     71  OH        28.3450  -20.0880  149.1120 O.3   183  TYR183     -0.2866
     72  N         34.1680  -26.1640  151.4810 N.3   190  TYR190     -0.1241
     73  CA        34.0470  -27.0450  150.3270 C.3   190  TYR190      0.1605
     74  C         35.3250  -27.0030  149.5050 C.2   190  TYR190      0.2264
     75  O         35.6700  -25.9670  148.9340 O.2   190  TYR190     -0.2867
     76  CB        32.8640  -26.6210  149.4540 C.3   190  TYR190      0.0534
     77  CG        31.5060  -26.9910  150.0090 C.ar  190  TYR190     -0.0201
     78  CD1       30.9730  -26.3220  151.1030 C.ar  190  TYR190     -0.0009
     79  CD2       30.7490  -27.9990  149.4250 C.ar  190  TYR190     -0.0009
     80  CE1       29.7280  -26.6560  151.6070 C.ar  190  TYR190      0.0417
     81  CE2       29.5030  -28.3360  149.9180 C.ar  190  TYR190      0.0417
     82  CZ        28.9990  -27.6640  151.0100 C.ar  190  TYR190      0.1957
     83  OH        27.7600  -28.0010  151.5040 O.3   190  TYR190     -0.2866
     84  N         37.7270  -28.8460  146.3690 N.3   192  GLY192     -0.1225
     85  CA        37.6070  -29.7080  145.2100 C.3   192  GLY192      0.1811
     86  C         38.8510  -29.7180  144.3500 C.2   192  GLY192      0.2280
     87  O         39.6440  -28.7760  144.3760 O.2   192  GLY192     -0.2866
     88  N         25.5080  -33.3140  147.2110 N.3   229  PHE229     -0.1241
     89  CA        25.2620  -32.4030  148.3230 C.3   229  PHE229      0.1605
     90  C         23.8920  -31.7550  148.1820 C.2   229  PHE229      0.2264
     91  O         23.5050  -31.3460  147.0880 O.2   229  PHE229     -0.2867
     92  CB        26.3200  -31.2990  148.3730 C.3   229  PHE229      0.0534
     93  CG        27.7300  -31.7940  148.2480 C.ar  229  PHE229     -0.0203
     94  CD1       28.3730  -31.7840  147.0220 C.ar  229  PHE229     -0.0042
     95  CD2       28.4190  -32.2560  149.3550 C.ar  229  PHE229     -0.0042
     96  CE1       29.6720  -32.2320  146.9010 C.ar  229  PHE229     -0.0003
     97  CE2       29.7180  -32.7090  149.2370 C.ar  229  PHE229     -0.0003
     98  CZ        30.3460  -32.6930  148.0100 C.ar  229  PHE229     -0.0000
     99  N         22.3410  -28.4810  148.9300 N.3   231  TRP231     -0.1241
    100  CA        22.7780  -27.1410  149.2960 C.3   231  TRP231      0.1605
    101  C         21.8730  -26.0600  148.7150 C.2   231  TRP231      0.2264
    102  O         21.7710  -25.9150  147.4960 O.2   231  TRP231     -0.2867
    103  CB        24.2260  -26.9300  148.8470 C.3   231  TRP231      0.0550
    104  CG        24.7890  -25.5870  149.1710 C.ar  231  TRP231      0.0003
    105  CD1       25.2730  -25.1710  150.3750 C.ar  231  TRP231      0.0946
    106  CD2       24.9490  -24.4850  148.2700 C.ar  231  TRP231      0.0152
    107  NE1       25.7150  -23.8740  150.2830 N.ar  231  TRP231     -0.2442
    108  CE2       25.5270  -23.4300  149.0010 C.ar  231  TRP231      0.0810
    109  CE3       24.6540  -24.2860  146.9180 C.ar  231  TRP231      0.0012
    110  CZ2       25.8170  -22.1960  148.4280 C.ar  231  TRP231      0.0191
    111  CZ3       24.9420  -23.0610  146.3500 C.ar  231  TRP231      0.0001
    112  CH2       25.5180  -22.0310  147.1040 C.ar  231  TRP231      0.0015
    113  N         23.6710  -31.1850  144.1970 N.3   236  LEU236     -0.1231
    114  CA        24.9430  -31.0060  143.5070 C.3   236  LEU236      0.1693
    115  C         25.7750  -32.2830  143.4210 C.2   236  LEU236      0.2592
    116  O         26.2840  -32.7840  144.4290 O.2   236  LEU236     -0.2718
    117  CB        25.7610  -29.8880  144.1620 C.3   236  LEU236      0.0284
    118  CG        25.0920  -28.5180  144.2950 C.3   236  LEU236      0.0019
    119  CD1       24.3520  -28.4030  145.6170 C.3   236  LEU236      0.0001
    120  CD2       26.1120  -27.4020  144.1520 C.3   236  LEU236      0.0001
    121  N         25.8830  -32.8060  142.2030 N.am  237  HIS237     -0.1962
    122  CA        26.8140  -33.8770  141.8700 C.3   237  HIS237      0.1772
    123  C         28.1250  -33.2460  141.3950 C.2   237  HIS237      0.2462
    124  O         28.1460  -32.0750  141.0180 O.2   237  HIS237     -0.2730
    125  CB        26.2300  -34.7670  140.7690 C.3   237  HIS237      0.0785
    126  CG        24.8750  -35.3240  141.0950 C.ar  237  HIS237      0.0821
    127  ND1       24.3290  -35.2660  142.3530 N.ar  237  HIS237     -0.2267
    128  CD2       23.9640  -35.9500  140.3110 C.ar  237  HIS237      0.1154
    129  CE1       23.1320  -35.8320  142.3390 C.ar  237  HIS237      0.1986
    130  NE2       22.8890  -36.2550  141.1140 N.ar  237  HIS237     -0.2212
    131  N         29.2280  -34.0090  141.4260 N.am  238  PRO238     -0.2727
    132  CA        30.4920  -33.4680  140.9120 C.3   238  PRO238      0.1402
    133  C         30.4410  -33.1300  139.4200 C.2   238  PRO238      0.2269
    134  O         31.0810  -32.1670  139.0000 O.2   238  PRO238     -0.2865
    135  CB        31.4830  -34.6090  141.1570 C.3   238  PRO238      0.0296
    136  CG        30.8900  -35.3890  142.2780 C.3   238  PRO238      0.0237
    137  CD        29.4100  -35.3270  142.0580 C.3   238  PRO238      0.0939
    138  N         27.9900  -28.1060  134.1400 N.3   320  TYR320     -0.1227
    139  CA        28.8510  -27.0790  134.7070 C.3   320  TYR320      0.1736
    140  C         29.4900  -26.2610  133.5900 C.2   320  TYR320      0.2595
    141  O         29.3050  -26.5610  132.4090 O.2   320  TYR320     -0.2718
    142  CB        29.9160  -27.7120  135.6000 C.3   320  TYR320      0.0548
    143  CG        29.3930  -28.1260  136.9550 C.ar  320  TYR320     -0.0200
    144  CD1       29.7030  -29.3660  137.4960 C.ar  320  TYR320     -0.0009
    145  CD2       28.5920  -27.2720  137.6980 C.ar  320  TYR320     -0.0009
    146  CE1       29.2230  -29.7430  138.7380 C.ar  320  TYR320      0.0417
    147  CE2       28.1110  -27.6390  138.9410 C.ar  320  TYR320      0.0417
    148  CZ        28.4300  -28.8740  139.4550 C.ar  320  TYR320      0.1957
    149  OH        27.9520  -29.2410  140.6910 O.3   320  TYR320     -0.2866
    150  N         30.2480  -25.2340  133.9580 N.am  321  TYR321     -0.1976
    151  CA        30.7890  -24.3180  132.9610 C.3   321  TYR321      0.1639
    152  C         32.2290  -24.6390  132.5800 C.2   321  TYR321      0.2290
    153  O         33.1250  -24.6520  133.4260 O.2   321  TYR321     -0.2864
    154  CB        30.6700  -22.8590  133.4170 C.3   321  TYR321      0.0560
    155  CG        31.3450  -21.8910  132.4720 C.ar  321  TYR321     -0.0198
    156  CD1       30.9720  -21.8270  131.1360 C.ar  321  TYR321     -0.0009
    157  CD2       32.3590  -21.0510  132.9100 C.ar  321  TYR321     -0.0009
    158  CE1       31.5910  -20.9530  130.2620 C.ar  321  TYR321      0.0417
    159  CE2       32.9830  -20.1710  132.0450 C.ar  321  TYR321      0.0417
    160  CZ        32.5940  -20.1260  130.7220 C.ar  321  TYR321      0.1957
    161  OH        33.2100  -19.2520  129.8550 O.3   321  TYR321     -0.2866
    162  N         35.2450  -23.2070  130.6390 N.3   323  PRO323     -0.2116
    163  CA        35.8020  -21.9550  130.1110 C.3   323  PRO323      0.1372
    164  C         36.4060  -22.1130  128.7170 C.2   323  PRO323      0.2244
    165  O         36.6090  -21.1190  128.0180 O.2   323  PRO323     -0.2868
    166  CB        36.9020  -21.6090  131.1210 C.3   323  PRO323      0.0268
    167  CG        36.5000  -22.3080  132.3770 C.3   323  PRO323      0.0207
    168  CD        35.8540  -23.5820  131.9270 C.3   323  PRO323      0.0892
    169  N         27.4010  -14.4710  136.7950 N.3   384  ILE384     -0.1231
    170  CA        27.7320  -15.8880  136.9250 C.3   384  ILE384      0.1692
    171  C         29.0690  -16.2940  136.2910 C.2   384  ILE384      0.2592
    172  O         29.9930  -16.6930  136.9950 O.2   384  ILE384     -0.2718
    173  CB        26.6020  -16.7750  136.3700 C.3   384  ILE384      0.0266
    174  CG1       25.2950  -16.5030  137.1170 C.3   384  ILE384      0.0019
    175  CG2       26.9700  -18.2350  136.4860 C.3   384  ILE384      0.0020
    176  CD1       24.1330  -17.3590  136.6480 C.3   384  ILE384      0.0001
    177  N         29.1680  -16.2140  134.9680 N.am  385  TRP385     -0.1976
    178  CA        30.3690  -16.6780  134.2740 C.3   385  TRP385      0.1640
    179  C         31.4120  -15.5880  134.0340 C.2   385  TRP385      0.2290
    180  O         32.5380  -15.8730  133.6230 O.2   385  TRP385     -0.2864
    181  CB        29.9940  -17.3660  132.9620 C.3   385  TRP385      0.0576
    182  CG        28.9590  -18.4160  133.1590 C.ar  385  TRP385      0.0006
    183  CD1       29.1490  -19.6680  133.6570 C.ar  385  TRP385      0.0946
    184  CD2       27.5590  -18.3010  132.8840 C.ar  385  TRP385      0.0152
    185  NE1       27.9560  -20.3440  133.7050 N.ar  385  TRP385     -0.2442
    186  CE2       26.9640  -19.5250  133.2360 C.ar  385  TRP385      0.0810
    187  CE3       26.7520  -17.2820  132.3730 C.ar  385  TRP385      0.0012
    188  CZ2       25.6010  -19.7590  133.0920 C.ar  385  TRP385      0.0191
    189  CZ3       25.4010  -17.5150  132.2330 C.ar  385  TRP385      0.0001
    190  CH2       24.8380  -18.7430  132.5900 C.ar  385  TRP385      0.0015
@<TRIPOS>BOND
     1   165   164    2
     2   164   163    1
     3   161   160    1
     4   163   162    1
     5   163   166    1
     6   158   160   ar
     7   158   156   ar
     8   162   168    1
     9   160   159   ar
    10   166   167    1
    11   156   155   ar
    12   168   167    1
    13   159   157   ar
    14   189   187   ar
    15   189   190   ar
    16   187   184   ar
    17   141   140    2
    18   155   157   ar
    19   155   154    1
    20   152   151    1
    21   152   153    2
    22   190   188   ar
    23   184   182   ar
    24   184   186   ar
    25   151   154    1
    26   151   150    1
    27   181   182    1
    28   181   178    1
    29   188   186   ar
    30   182   183   ar
    31   186   185   ar
    32   140   150   am
    33   140   139    1
    34   180   179    2
    35    28    27    1
    36   183   185   ar
    37    27    26    1
    38   179   178    1
    39   138   139    1
    40   178   177    1
    41   139   142    1
    42   177   171   am
    43    26    25    1
    44    25    24    1
    45   142   143    1
    46   171   170    1
    47   171   172    2
    48   173   175    1
    49   173   170    1
    50   173   174    1
    51    24    21    1
    52    15    14    2
    53   176   174    1
    54   169   170    1
    55    21    22    1
    56    21    20    1
    57   143   144   ar
    58   143   145   ar
    59     9     8    1
    60     9    10    1
    61    11    10    2
    62   144   146   ar
    63    10    12   am
    64    22    23    2
    65    14    20   am
    66    14    13    1
    67   145   147   ar
    68    12    13    1
    69    37    36    1
    70   146   148   ar
    71    13    16    1
    72   147   148   ar
    73   134   133    2
    74    29    30    1
    75   133   132    1
    76   148   149    1
    77    30    31    1
    78    30    33    1
    79    36    35    1
    80    31    32    2
    81    16    17    1
    82    35    34    1
    83   128   126   ar
    84   128   130   ar
    85   125   126    1
    86   125   122    1
    87   132   135    1
    88   132   131    1
    89    34    33    1
    90   124   123    2
    91   126   127   ar
    92    17    19    1
    93    17    18    1
    94   130   129   ar
    95   135   136    1
    96   123   131   am
    97   123   122    1
    98   131   137    1
    99   122   121    1
   100   137   136    1
   101   121   115   am
   102    50    49    1
   103   129   127   ar
   104     3     2    1
   105     3     4    2
   106    51    49    1
   107   115   114    1
   108   115   116    2
   109   114   117    1
   110   114   113    1
   111    49    46    1
   112     2     5    1
   113     2     1    1
   114     5     6    1
   115    44    42    1
   116   120   118    1
   117   117   118    1
   118   118   119    1
   119    86    87    2
   120    86    85    1
   121    45    46    1
   122    46    47    1
   123     1     7    1
   124    85    84    1
   125    38    39    1
   126     6     7    1
   127    42    39    1
   128    42    43    1
   129    47    48    2
   130    47    52   am
   131    39    40    1
   132   111   109   ar
   133   111   112   ar
   134    52    53    1
   135    96    94   ar
   136    96    98   ar
   137   109   106   ar
   138    94    93   ar
   139    91    90    2
   140   112   110   ar
   141    88    89    1
   142    55    54    2
   143   102   101    2
   144    40    41    2
   145    64    65    1
   146    64    61    1
   147    54    53    1
   148    54    60   am
   149    53    56    1
   150    98    97   ar
   151    66    65   ar
   152    66    68   ar
   153    65    67   ar
   154    90    89    1
   155    93    92    1
   156    93    95   ar
   157   106   108   ar
   158   106   104   ar
   159    89    92    1
   160    68    70   ar
   161   110   108   ar
   162    67    69   ar
   163    60    61    1
   164   101   100    1
   165    70    69   ar
   166    70    71    1
   167   103   104    1
   168   103   100    1
   169    61    62    1
   170    99   100    1
   171    75    74    2
   172    57    56    1
   173    57    59    1
   174   108   107   ar
   175    56    58    1
   176   104   105   ar
   177    97    95   ar
   178    79    81   ar
   179    79    77   ar
   180    76    77    1
   181    76    73    1
   182    74    73    1
   183    81    82   ar
   184    77    78   ar
   185   107   105   ar
   186    62    63    2
   187    73    72    1
   188    82    83    1
   189    82    80   ar
   190    78    80   ar
