@<TRIPOS>MOLECULE
tmp/4kkxB00.pdb
 198 189 0 0 0
SMALL
GASTEIGER

@<TRIPOS>ATOM
      1  N         -5.5850  -37.1530    4.6180 N.3    84  ALA84      -0.1231
      2  CA        -6.0190  -37.4670    5.9750 C.3    84  ALA84       0.1694
      3  C         -6.9830  -38.6280    5.9810 C.2    84  ALA84       0.2592
      4  O         -7.5590  -38.9630    4.9500 O.2    84  ALA84      -0.2718
      5  CB        -6.6700  -36.2700    6.6150 C.3    84  ALA84       0.0304
      6  N         -7.1800  -39.1920    7.1710 N.am   85  HIS85      -0.1962
      7  CA        -8.1050  -40.2930    7.4130 C.3    85  HIS85       0.1787
      8  C         -9.5170  -39.9750    6.9600 C.2    85  HIS85       0.2620
      9  O        -10.2850  -40.8840    6.6920 O.2    85  HIS85      -0.2715
     10  CB        -8.1740  -40.5980    8.9290 C.3    85  HIS85       0.0785
     11  CG        -8.9210  -39.5670    9.7090 C.ar   85  HIS85       0.0821
     12  ND1       -8.3900  -38.3170   10.0030 N.ar   85  HIS85      -0.2267
     13  CD2      -10.1780  -39.5440   10.2160 C.ar   85  HIS85       0.1154
     14  CE1       -9.2650  -37.6110   10.6710 C.ar   85  HIS85       0.1986
     15  NE2      -10.3700  -38.3340   10.8260 N.ar   85  HIS85      -0.2212
     16  N         -9.8690  -38.6910    6.8880 N.am   86  LYS86      -0.1977
     17  CA       -11.2290  -38.3110    6.5430 C.3    86  LYS86       0.1596
     18  C        -11.7100  -38.9470    5.2580 C.2    86  LYS86       0.2287
     19  O        -12.9090  -39.1920    5.0750 O.2    86  LYS86      -0.2864
     20  CB       -11.3500  -36.7880    6.4140 C.3    86  LYS86       0.0298
     21  CG       -10.9950  -36.0130    7.6870 C.3    86  LYS86       0.0038
     22  CD       -12.0610  -36.2440    8.7740 C.3    86  LYS86       0.0206
     23  CE       -11.8680  -35.2680    9.9200 C.3    86  LYS86       0.1093
     24  NZ       -12.7890  -35.6230   11.0340 N.3    86  LYS86      -0.1314
     25  N        -19.7690  -30.0440    6.3610 N.3   108  GLU108     -0.1231
     26  CA       -19.0450  -29.0050    7.0600 C.3   108  GLU108      0.1699
     27  C        -17.5830  -29.3880    6.9900 C.2   108  GLU108      0.2593
     28  O        -17.2490  -30.5630    6.7920 O.2   108  GLU108     -0.2718
     29  CB       -19.4820  -28.9310    8.5260 C.3   108  GLU108      0.0402
     30  CG       -18.8450  -29.9970    9.4500 C.3   108  GLU108      0.1161
     31  CD       -19.4070  -31.3970    9.2370 C.2   108  GLU108      0.3649
     32  OE1      -20.4510  -31.5310    8.5690 O.co2 108  GLU108     -0.2457
     33  OE2      -18.8150  -32.3790    9.7560 O.co2 108  GLU108     -0.2457
     34  N        -16.7070  -28.4030    7.1420 N.am  109  THR109     -0.1939
     35  CA       -15.2990  -28.7050    7.3080 C.3   109  THR109      0.2028
     36  C        -14.6230  -27.6250    8.1340 C.2   109  THR109      0.2643
     37  O        -15.0920  -26.4710    8.1980 O.2   109  THR109     -0.2714
     38  CB       -14.5810  -28.8780    5.9610 C.3   109  THR109      0.1808
     39  OG1      -13.3290  -29.5500    6.1780 O.3   109  THR109     -0.2208
     40  CG2      -14.3220  -27.5160    5.2930 C.3   109  THR109      0.0379
     41  N        -13.5160  -27.9960    8.7640 N.am  110  GLY110     -0.1939
     42  CA       -12.7710  -27.0570    9.5850 C.3   110  GLY110      0.2014
     43  C        -11.3340  -27.0580    9.1530 C.2   110  GLY110      0.2638
     44  O        -10.8100  -26.0220    8.7380 O.2   110  GLY110     -0.2714
     45  N        -10.6770  -28.2150    9.2570 N.am  111  ALA111     -0.1977
     46  CA        -9.3140  -28.3280    8.7060 C.3   111  ALA111      0.1597
     47  C         -9.3280  -28.2630    7.1720 C.2   111  ALA111      0.2287
     48  O         -8.2900  -28.0540    6.5290 O.2   111  ALA111     -0.2864
     49  CB        -8.6720  -29.6000    9.1580 C.3   111  ALA111      0.0319
     50  N         -9.8480  -30.8530    5.4940 N.3   113  GLN113     -0.1231
     51  CA        -9.5820  -32.2280    5.0490 C.3   113  GLN113      0.1698
     52  C        -10.8630  -32.9920    4.8030 C.2   113  GLN113      0.2592
     53  O        -10.9550  -33.7740    3.8520 O.2   113  GLN113     -0.2718
     54  CB        -8.6870  -33.0010    6.0340 C.3   113  GLN113      0.0381
     55  CG        -7.2460  -32.4930    6.0870 C.3   113  GLN113      0.0905
     56  CD        -6.4970  -32.6770    4.7690 C.2   113  GLN113      0.2608
     57  OE1       -5.7800  -31.7690    4.3250 O.2   113  GLN113     -0.2717
     58  NE2       -6.6590  -33.8560    4.1310 N.am  113  GLN113     -0.0878
     59  N        -11.8520  -32.8150    5.6690 N.am  114  HIS114     -0.1976
     60  CA       -13.1380  -33.4520    5.3750 C.3   114  HIS114      0.1656
     61  C        -13.7810  -32.8530    4.1220 C.2   114  HIS114      0.2291
     62  O        -14.3940  -33.5680    3.3020 O.2   114  HIS114     -0.2864
     63  CB       -14.1090  -33.3700    6.5530 C.3   114  HIS114      0.0771
     64  CG       -15.4440  -33.9820    6.2570 C.ar  114  HIS114      0.0820
     65  ND1      -15.5920  -35.3160    5.9280 N.ar  114  HIS114     -0.2267
     66  CD2      -16.6910  -33.4470    6.2210 C.ar  114  HIS114      0.1154
     67  CE1      -16.8670  -35.5760    5.7080 C.ar  114  HIS114      0.1986
     68  NE2      -17.5570  -34.4600    5.8800 N.ar  114  HIS114     -0.2212
     69  N        -15.5570  -24.2830   13.1740 N.3   165  LEU165     -0.1245
     70  CA       -16.2580  -25.5510   12.9310 C.3   165  LEU165      0.1561
     71  C        -17.7110  -25.6430   13.4230 C.2   165  LEU165      0.2260
     72  O        -18.6070  -26.0130   12.6500 O.2   165  LEU165     -0.2867
     73  CB       -15.4140  -26.6840   13.5070 C.3   165  LEU165      0.0270
     74  CG       -15.5400  -28.1300   13.0790 C.3   165  LEU165      0.0019
     75  CD1      -15.8210  -28.2530   11.5850 C.3   165  LEU165      0.0001
     76  CD2      -14.2220  -28.8000   13.4480 C.3   165  LEU165      0.0001
     77  N        -20.9550  -26.4320   11.1900 N.3   169  CYS169     -0.1235
     78  CA       -21.8870  -27.4950   11.5610 C.3   169  CYS169      0.1677
     79  C        -23.3070  -26.9850   11.5970 C.2   169  CYS169      0.2270
     80  O        -24.1980  -27.6310   11.0610 O.2   169  CYS169     -0.2867
     81  CB       -21.5520  -28.0950   12.9280 C.3   169  CYS169      0.0956
     82  SG       -20.0700  -29.0650   12.9230 S.3   169  CYS169     -0.0801
     83  N        -21.7330  -35.9450    7.1390 N.3   187  LEU187     -0.1231
     84  CA       -21.1560  -35.4890    8.4150 C.3   187  LEU187      0.1693
     85  C        -19.7360  -36.0240    8.5240 C.2   187  LEU187      0.2593
     86  O        -19.4500  -37.1870    8.1890 O.2   187  LEU187     -0.2718
     87  CB       -22.0040  -35.9570    9.6090 C.3   187  LEU187      0.0284
     88  CG       -22.1320  -35.0690   10.8660 C.3   187  LEU187      0.0019
     89  CD1      -23.4240  -35.4150   11.6380 C.3   187  LEU187      0.0001
     90  CD2      -20.9000  -35.1870   11.7930 C.3   187  LEU187      0.0001
     91  N        -18.8350  -35.1830    8.9870 N.am  188  GLY188     -0.1942
     92  CA       -17.4280  -35.5050    8.8830 C.3   188  GLY188      0.2014
     93  C        -16.7310  -36.0160   10.1150 C.2   188  GLY188      0.2639
     94  O        -15.5220  -36.1100   10.1060 O.2   188  GLY188     -0.2714
     95  N        -17.4730  -36.3580   11.1610 N.am  189  THR189     -0.1950
     96  CA       -16.8520  -36.9270   12.3600 C.3   189  THR189      0.1897
     97  C        -17.7930  -37.9310   13.0320 C.2   189  THR189      0.2313
     98  O        -18.9560  -38.0670   12.6270 O.2   189  THR189     -0.2863
     99  CB       -16.4670  -35.8240   13.3650 C.3   189  THR189      0.1794
    100  OG1      -15.5550  -36.3640   14.3280 O.3   189  THR189     -0.2208
    101  CG2      -17.7250  -35.2810   14.0850 C.3   189  THR189      0.0378
    102  N         -5.6870  -38.0810   18.3360 N.3   229  CYS229     -0.1221
    103  CA        -6.3050  -36.8130   18.7160 C.3   229  CYS229      0.1808
    104  C         -7.8220  -36.9130   18.5890 C.2   229  CYS229      0.2601
    105  O         -8.3420  -37.8540   17.9620 O.2   229  CYS229     -0.2717
    106  CB        -5.7560  -35.6420   17.8970 C.3   229  CYS229      0.0970
    107  SG        -6.2150  -35.6010   16.1410 S.3   229  CYS229     -0.0800
    108  N         -8.5310  -35.9820   19.2240 N.am  230  VAL230     -0.1965
    109  CA        -9.9920  -36.0450   19.2830 C.3   230  VAL230      0.1727
    110  C        -10.5650  -34.6470   19.1540 C.2   230  VAL230      0.2617
    111  O        -10.4450  -33.8200   20.0830 O.2   230  VAL230     -0.2715
    112  CB       -10.5240  -36.6330   20.6100 C.3   230  VAL230      0.0290
    113  CG1      -12.0540  -36.6360   20.5820 C.3   230  VAL230      0.0023
    114  CG2      -10.0040  -38.0410   20.8680 C.3   230  VAL230      0.0023
    115  N        -11.1790  -34.3790   18.0040 N.am  231  GLY231     -0.1940
    116  CA       -11.8630  -33.1190   17.7640 C.3   231  GLY231      0.2014
    117  C        -13.3550  -33.3890   17.7900 C.2   231  GLY231      0.2639
    118  O        -14.1010  -32.8110   18.5760 O.2   231  GLY231     -0.2714
    119  N        -13.7910  -34.2880   16.9120 N.am  232  GLY232     -0.1939
    120  CA       -15.1440  -34.8310   16.9560 C.3   232  GLY232      0.2014
    121  C        -15.0960  -36.3040   17.3320 C.2   232  GLY232      0.2639
    122  O        -16.0560  -36.8510   17.9030 O.2   232  GLY232     -0.2714
    123  N        -13.9920  -36.9680   16.9920 N.am  233  GLY233     -0.1939
    124  CA       -13.8020  -38.3640   17.3680 C.3   233  GLY233      0.2014
    125  C        -13.6560  -39.4480   16.3050 C.2   233  GLY233      0.2640
    126  O        -13.5360  -40.6230   16.6470 O.2   233  GLY233     -0.2714
    127  N        -13.6150  -39.0850   15.0250 N.am  234  SER234     -0.1935
    128  CA       -13.5690  -40.1110   13.9740 C.3   234  SER234      0.2055
    129  C        -12.2460  -40.8770   13.8440 C.2   234  SER234      0.2643
    130  O        -12.2510  -42.1090   13.7730 O.2   234  SER234     -0.2714
    131  CB       -14.0160  -39.5670   12.6130 C.3   234  SER234      0.2130
    132  OG       -13.1510  -38.5660   12.1310 O.3   234  SER234     -0.2179
    133  N        -11.1210  -40.1750   13.7820 N.am  235  ASN235     -0.1971
    134  CA        -9.8390  -40.8780   13.6270 C.3   235  ASN235      0.1688
    135  C         -9.5280  -41.7080   14.8590 C.2   235  ASN235      0.2292
    136  O         -9.0280  -42.8190   14.7350 O.2   235  ASN235     -0.2864
    137  CB        -8.6570  -39.9410   13.2490 C.3   235  ASN235      0.1181
    138  CG        -7.9040  -39.3890   14.4590 C.2   235  ASN235      0.2629
    139  OD1       -6.9230  -39.9900   14.9230 O.2   235  ASN235     -0.2716
    140  ND2       -8.3260  -38.2180   14.9390 N.am  235  ASN235     -0.0877
    141  N        -26.3050  -30.1600   18.4440 N.3   279  PHE279     -0.1241
    142  CA       -25.8280  -30.7910   17.2060 C.3   279  PHE279      0.1605
    143  C        -26.3510  -32.2250   17.1020 C.2   279  PHE279      0.2264
    144  O        -25.6800  -33.1040   16.5760 O.2   279  PHE279     -0.2867
    145  CB       -24.2920  -30.7590   17.1570 C.3   279  PHE279      0.0534
    146  CG       -23.6910  -31.2370   15.8480 C.ar  279  PHE279     -0.0203
    147  CD1      -24.1180  -30.7190   14.6360 C.ar  279  PHE279     -0.0042
    148  CD2      -22.6900  -32.2070   15.8440 C.ar  279  PHE279     -0.0042
    149  CE1      -23.5510  -31.1660   13.4280 C.ar  279  PHE279     -0.0003
    150  CE2      -22.1140  -32.6430   14.6540 C.ar  279  PHE279     -0.0003
    151  CZ       -22.5580  -32.1240   13.4340 C.ar  279  PHE279     -0.0000
    152  N         -9.0400  -28.3720   12.8500 N.3   302  GLY302     -0.1210
    153  CA        -9.7260  -29.6520   12.9230 C.3   302  GLY302      0.1956
    154  C        -10.1410  -30.1010   14.3130 C.2   302  GLY302      0.2611
    155  O        -10.9530  -31.0190   14.4330 O.2   302  GLY302     -0.2717
    156  N         -9.5760  -29.4840   15.3600 N.am  303  LEU303     -0.1979
    157  CA        -9.9310  -29.8170   16.7440 C.3   303  LEU303      0.1596
    158  C        -10.7350  -28.7110   17.4110 C.2   303  LEU303      0.2287
    159  O        -11.0620  -28.7850   18.5910 O.2   303  LEU303     -0.2864
    160  CB        -8.6610  -30.0490   17.5740 C.3   303  LEU303      0.0297
    161  CG        -7.6640  -31.0780   17.0650 C.3   303  LEU303      0.0022
    162  CD1       -6.4700  -31.1980   18.0630 C.3   303  LEU303      0.0001
    163  CD2       -8.3400  -32.4370   16.8420 C.3   303  LEU303      0.0001
    164  N        -13.6410  -27.6010   18.1300 N.3   305  PHE305     -0.1241
    165  CA       -15.0580  -27.9820   18.1940 C.3   305  PHE305      0.1605
    166  C        -15.4580  -28.2490   19.6440 C.2   305  PHE305      0.2264
    167  O        -14.8430  -29.0900   20.3060 O.2   305  PHE305     -0.2867
    168  CB       -15.2860  -29.2510   17.3610 C.3   305  PHE305      0.0534
    169  CG       -16.7280  -29.6870   17.3050 C.ar  305  PHE305     -0.0203
    170  CD1      -17.6870  -28.8670   16.7440 C.ar  305  PHE305     -0.0042
    171  CD2      -17.1160  -30.9380   17.7920 C.ar  305  PHE305     -0.0042
    172  CE1      -19.0210  -29.2690   16.6850 C.ar  305  PHE305     -0.0003
    173  CE2      -18.4540  -31.3430   17.7450 C.ar  305  PHE305     -0.0003
    174  CZ       -19.4040  -30.5100   17.1820 C.ar  305  PHE305     -0.0000
    175  N         -0.1930  -33.1600   10.2290 N.3   347  ALA347     -0.1245
    176  CA        -1.2330  -32.1630   10.5080 C.3   347  ALA347      0.1562
    177  C         -1.0670  -31.6490   11.9470 C.2   347  ALA347      0.2260
    178  O         -0.6170  -32.3950   12.8290 O.2   347  ALA347     -0.2867
    179  CB        -2.5970  -32.7700   10.3280 C.3   347  ALA347      0.0290
    180  N         -3.4760  -31.1480   13.9210 N.3   349  GLU349     -0.1245
    181  CA        -4.3820  -31.9950   14.7050 C.3   349  GLU349      0.1567
    182  C         -3.6250  -33.2240   15.1990 C.2   349  GLU349      0.2260
    183  O         -3.5390  -33.4500   16.4070 O.2   349  GLU349     -0.2867
    184  CB        -5.5620  -32.4790   13.8590 C.3   349  GLU349      0.0388
    185  CG        -6.5060  -31.4100   13.4410 C.3   349  GLU349      0.1160
    186  CD        -6.0090  -30.5660   12.2870 C.2   349  GLU349      0.3649
    187  OE1       -5.0360  -30.9430   11.5850 O.co2 349  GLU349     -0.2457
    188  OE2       -6.5780  -29.4740   12.1040 O.co2 349  GLU349     -0.2457
    189  N         -3.0000  -38.8520   11.7320 N.3   376  SER376     -0.1202
    190  CA        -4.2630  -38.7510   11.0180 C.3   376  SER376      0.2020
    191  C         -4.1910  -37.9250    9.7340 C.2   376  SER376      0.2619
    192  O         -5.0370  -38.0810    8.8500 O.2   376  SER376     -0.2717
    193  CB        -5.3520  -38.2210   11.9490 C.3   376  SER376      0.2103
    194  OG        -4.9540  -36.9690   12.4900 O.3   376  SER376     -0.2182
    195  N         -3.1960  -37.0480    9.6120 N.am  377  GLY377     -0.1956
    196  CA        -3.0870  -36.2560    8.3930 C.3   377  GLY377      0.1869
    197  C         -1.7150  -35.6800    8.1290 C.2   377  GLY377      0.2309
    198  O         -0.8570  -35.6740    9.0300 O.2   377  GLY377     -0.2863
@<TRIPOS>BOND
     1    62    61    2
     2    53    52    2
     3    61    60    1
     4    58    56   am
     5    57    56    2
     6     1     2    1
     7    56    55    1
     8    52    51    1
     9    52    59   am
    10     4     3    2
    11    51    50    1
    12    51    54    1
    13    19    18    2
    14    18    17    1
    15    40    38    1
    16    60    59    1
    17    60    63    1
    18    67    68   ar
    19    67    65   ar
    20    68    66   ar
    21    65    64   ar
    22    38    39    1
    23    38    35    1
    24     2     3    1
    25     2     5    1
    26     3     6   am
    27    54    55    1
    28    66    64   ar
    29    64    63    1
    30    25    26    1
    31    20    17    1
    32    20    21    1
    33    48    47    2
    34    17    16    1
    35     9     8    2
    36    28    27    2
    37    16     8   am
    38     8     7    1
    39    27    26    1
    40    27    34   am
    41    26    29    1
    42    83    84    1
    43    34    35    1
    44     6     7    1
    45    47    46    1
    46    35    36    1
    47     7    10    1
    48    21    22    1
    49   197   196    1
    50   197   198    2
    51    36    37    2
    52    36    41   am
    53    86    85    2
    54   196   195    1
    55    84    85    1
    56    84    87    1
    57    85    91   am
    58    29    30    1
    59    32    31   ar
    60    46    49    1
    61    46    45    1
    62    44    43    2
    63    41    42    1
    64    22    23    1
    65   192   191    2
    66    92    91    1
    67    92    93    1
    68    10    11    1
    69    43    45   am
    70    43    42    1
    71    31    30    1
    72    31    33   ar
    73    87    88    1
    74   195   191   am
    75    11    12   ar
    76    11    13   ar
    77   191   190    1
    78    23    24    1
    79    12    14   ar
    80    94    93    2
    81    93    95   am
    82    13    15   ar
    83   175   176    1
    84   179   176    1
    85   176   177    1
    86    14    15   ar
    87    88    89    1
    88    88    90    1
    89   190   189    1
    90   190   193    1
    91    80    79    2
    92    95    96    1
    93    77    78    1
    94    78    79    1
    95    78    81    1
    96    75    74    1
    97   187   186   ar
    98   177   178    2
    99   193   194    1
   100   188   186   ar
   101   132   131    1
   102   186   185    1
   103    96    97    1
   104    96    99    1
   105   131   128    1
   106    98    97    2
   107    72    71    2
   108   152   153    1
   109    82    81    1
   110   153   154    1
   111    70    69    1
   112    70    71    1
   113    70    73    1
   114    74    76    1
   115    74    73    1
   116   137   134    1
   117   137   138    1
   118    99   101    1
   119    99   100    1
   120   149   151   ar
   121   149   147   ar
   122   151   150   ar
   123   185   184    1
   124   134   133    1
   125   134   135    1
   126   130   129    2
   127   133   129   am
   128   129   128    1
   129   184   181    1
   130   180   181    1
   131   128   127    1
   132   154   155    2
   133   154   156   am
   134   138   139    2
   135   138   140   am
   136   147   146   ar
   137   150   148   ar
   138   181   182    1
   139   136   135    2
   140   127   125   am
   141   182   183    2
   142   156   157    1
   143   148   146   ar
   144   146   145    1
   145   107   106    1
   146   125   126    2
   147   125   124    1
   148   144   143    2
   149   172   170   ar
   150   172   174   ar
   151   170   169   ar
   152   157   158    1
   153   157   160    1
   154   163   161    1
   155   119   120    1
   156   119   117   am
   157   120   121    1
   158   123   121   am
   159   123   124    1
   160   161   160    1
   161   161   162    1
   162   143   142    1
   163   145   142    1
   164   174   173   ar
   165   142   141    1
   166   169   168    1
   167   169   171   ar
   168   121   122    2
   169   168   165    1
   170   158   159    2
   171   173   171   ar
   172   116   117    1
   173   116   115    1
   174   117   118    2
   175   106   103    1
   176   105   104    2
   177   115   110   am
   178   164   165    1
   179   165   166    1
   180   102   103    1
   181   104   103    1
   182   104   108   am
   183   110   109    1
   184   110   111    2
   185   108   109    1
   186   109   112    1
   187   166   167    2
   188   113   112    1
   189   112   114    1
