@<TRIPOS>MOLECULE
tmp/4kkxA02.pdb
 69 64 0 0 0
SMALL
GASTEIGER

@<TRIPOS>ATOM
      1  N        -63.8500  -21.2330   18.8810 N.3    12  ASN12      -0.1240
      2  CA       -64.8560  -22.0640   18.2310 C.3    12  ASN12       0.1653
      3  C        -66.2380  -21.4230   18.2910 C.2    12  ASN12       0.2266
      4  O        -66.9820  -21.4370   17.3140 O.2    12  ASN12      -0.2867
      5  CB       -64.8910  -23.4620   18.8610 C.3    12  ASN12       0.1155
      6  CG       -63.7350  -24.3330   18.4120 C.2    12  ASN12       0.2627
      7  OD1      -63.1540  -24.1050   17.3530 O.2    12  ASN12      -0.2716
      8  ND2      -63.4010  -25.3410   19.2130 N.am   12  ASN12      -0.0877
      9  N        -66.4240  -18.9200   15.9080 N.3    15  ARG15      -0.1231
     10  CA       -66.0700  -19.5080   14.6200 C.3    15  ARG15       0.1694
     11  C        -64.8540  -18.8490   13.9760 C.2    15  ARG15       0.2592
     12  O        -64.8730  -18.5200   12.7920 O.2    15  ARG15      -0.2718
     13  CB       -67.2530  -19.4530   13.6550 C.3    15  ARG15       0.0321
     14  CG       -68.5310  -20.0910   14.1900 C.3    15  ARG15       0.0489
     15  CD       -69.3680  -20.6820   13.0520 C.3    15  ARG15       0.2205
     16  NE       -69.6520  -19.7140   11.9910 N.pl3  15  ARG15      -0.0865
     17  CZ       -68.9920  -19.6410   10.8370 C.cat  15  ARG15       0.5346
     18  NH1      -67.9930  -20.4790   10.5790 N.pl3  15  ARG15       0.1354
     19  NH2      -69.3280  -18.7230    9.9420 N.pl3  15  ARG15       0.1354
     20  N        -63.7950  -18.6440   14.7480 N.am   16  GLU16      -0.1966
     21  CA       -62.5870  -18.0680   14.1680 C.3    16  GLU16       0.1733
     22  C        -61.3660  -18.9190   14.4890 C.2    16  GLU16       0.2616
     23  O        -61.4170  -19.7840   15.3710 O.2    16  GLU16      -0.2715
     24  CB       -62.4010  -16.6030   14.5930 C.3    16  GLU16       0.0429
     25  CG       -62.0550  -16.3850   16.0440 C.3    16  GLU16       0.1163
     26  CD       -62.1200  -14.9190   16.4460 C.2    16  GLU16       0.3649
     27  OE1      -63.0750  -14.2320   16.0210 O.co2  16  GLU16      -0.2457
     28  OE2      -61.2210  -14.4550   17.1920 O.co2  16  GLU16      -0.2457
     29  N        -60.2920  -18.7090   13.7340 N.am   17  GLY17      -0.1955
     30  CA       -59.0390  -19.4000   13.9920 C.3    17  GLY17       0.1869
     31  C        -58.2370  -18.5650   14.9730 C.2    17  GLY17       0.2309
     32  O        -58.5940  -17.4160   15.2610 O.2    17  GLY17      -0.2863
     33  N        -56.9680  -21.5980    7.9410 N.3   224  VAL224     -0.1231
     34  CA       -58.2080  -21.8700    8.6540 C.3   224  VAL224      0.1692
     35  C        -59.2320  -22.5280    7.7210 C.2   224  VAL224      0.2591
     36  O        -59.9100  -23.4880    8.1100 O.2   224  VAL224     -0.2718
     37  CB       -58.7910  -20.6000    9.3010 C.3   224  VAL224      0.0266
     38  CG1      -60.1870  -20.8840    9.8350 C.3   224  VAL224      0.0020
     39  CG2      -57.8820  -20.1210   10.4240 C.3   224  VAL224      0.0020
     40  N        -59.3280  -22.0260    6.4910 N.am  225  ARG225     -0.1980
     41  CA       -60.2120  -22.6580    5.5040 C.3   225  ARG225      0.1597
     42  C        -59.8210  -24.1080    5.2830 C.2   225  ARG225      0.2287
     43  O        -60.6720  -24.9610    5.0630 O.2   225  ARG225     -0.2864
     44  CB       -60.1800  -21.9070    4.1700 C.3   225  ARG225      0.0334
     45  CG       -60.9610  -20.6040    4.1910 C.3   225  ARG225      0.0492
     46  CD       -61.3420  -20.1440    2.7830 C.3   225  ARG225      0.2205
     47  NE       -60.1710  -20.0270    1.9200 N.pl3 225  ARG225     -0.0865
     48  CZ       -59.3230  -19.0030    1.9410 C.cat 225  ARG225      0.5346
     49  NH1      -59.5070  -17.9950    2.7850 N.pl3 225  ARG225      0.1354
     50  NH2      -58.2840  -18.9880    1.1180 N.pl3 225  ARG225      0.1354
     51  N        -58.8410  -26.1090    7.3780 N.3   227  GLY227     -0.1210
     52  CA       -59.1980  -26.9480    8.5110 C.3   227  GLY227      0.1956
     53  C        -58.3280  -26.7830    9.7520 C.2   227  GLY227      0.2612
     54  O        -58.6390  -27.3340   10.8150 O.2   227  GLY227     -0.2717
     55  N        -57.2370  -26.0360    9.6290 N.am  228  ALA228     -0.1965
     56  CA       -56.3920  -25.7710   10.7950 C.3   228  ALA228      0.1728
     57  C        -57.1560  -24.9150   11.8040 C.2   228  ALA228      0.2616
     58  O        -58.1440  -24.2580   11.4500 O.2   228  ALA228     -0.2715
     59  CB       -55.0810  -25.0970   10.3850 C.3   228  ALA228      0.0334
     60  N        -56.7260  -24.9410   13.0660 N.am  229  ALA229     -0.1977
     61  CA       -57.3720  -24.1230   14.0920 C.3   229  ALA229      0.1597
     62  C        -56.7770  -22.7300   14.1190 C.2   229  ALA229      0.2287
     63  O        -57.2640  -21.8590   14.8390 O.2   229  ALA229     -0.2864
     64  CB       -57.2510  -24.7640   15.4630 C.3   229  ALA229      0.0319
     65  N        -64.1400  -15.3640   10.8120 N.3   268  ALA268     -0.1245
     66  CA       -65.1490  -15.8060    9.8470 C.3   268  ALA268      0.1562
     67  C        -65.9500  -14.6280    9.3010 C.2   268  ALA268      0.2260
     68  O        -66.2890  -14.5920    8.1140 O.2   268  ALA268     -0.2867
     69  CB       -66.0810  -16.8290   10.4750 C.3   268  ALA268      0.0290
@<TRIPOS>BOND
     1    50    48    1
     2    47    48    2
     3    47    46    1
     4    48    49    1
     5    46    45    1
     6    44    45    1
     7    44    41    1
     8    43    42    2
     9    42    41    1
    10    41    40    1
    11    40    35   am
    12    51    52    1
    13    35    36    2
    14    35    34    1
    15    33    34    1
    16    68    67    2
    17    52    53    1
    18    34    37    1
    19    67    66    1
    20    37    38    1
    21    37    39    1
    22    55    53   am
    23    55    56    1
    24    53    54    2
    25    66    69    1
    26    66    65    1
    27    19    17    1
    28    59    56    1
    29    18    17    1
    30    56    57    1
    31    17    16    2
    32    58    57    2
    33    57    60   am
    34    16    15    1
    35    12    11    2
    36    15    14    1
    37    60    61    1
    38    13    14    1
    39    13    10    1
    40    29    30    1
    41    29    22   am
    42    11    10    1
    43    11    20   am
    44    30    31    1
    45    61    62    1
    46    61    64    1
    47    62    63    2
    48    21    22    1
    49    21    24    1
    50    21    20    1
    51    22    23    2
    52    24    25    1
    53    10     9    1
    54    31    32    2
    55    27    26   ar
    56    25    26    1
    57    26    28   ar
    58     4     3    2
    59     7     6    2
    60     2     3    1
    61     2     5    1
    62     2     1    1
    63     6     5    1
    64     6     8   am
