@<TRIPOS>MOLECULE
tmp/4kkxA01.pdb
 68 65 0 0 0
SMALL
GASTEIGER

@<TRIPOS>ATOM
      1  N        -33.7000  -19.6600   10.6950 N.3    61  GLY61      -0.1210
      2  CA       -33.0210  -18.9210    9.6520 C.3    61  GLY61       0.1940
      3  C        -32.4670  -17.6150   10.1770 C.2    61  GLY61       0.2454
      4  O        -32.5770  -17.3160   11.3840 O.2    61  GLY61      -0.2732
      5  N        -31.8510  -16.8350    9.2820 N.am   62  PRO62      -0.2717
      6  CA       -31.1660  -15.5800    9.6210 C.3    62  PRO62       0.1535
      7  C        -32.0070  -14.5860   10.4110 C.2    62  PRO62       0.2599
      8  O        -31.4670  -13.9690   11.3180 O.2    62  PRO62      -0.2715
      9  CB       -30.7940  -15.0060    8.2510 C.3    62  PRO62       0.0310
     10  CG       -30.5940  -16.2440    7.3960 C.3    62  PRO62       0.0237
     11  CD       -31.6750  -17.1950    7.8620 C.3    62  PRO62       0.0939
     12  N        -33.2830  -14.4110   10.0780 N.am   63  THR63      -0.1951
     13  CA       -34.0940  -13.4410   10.8130 C.3    63  THR63       0.1897
     14  C        -34.0790  -13.7120   12.3160 C.2    63  THR63       0.2313
     15  O        -33.7520  -12.8380   13.1220 O.2    63  THR63      -0.2863
     16  CB       -35.5280  -13.4370   10.3030 C.3    63  THR63       0.1794
     17  OG1      -35.5090  -13.1240    8.9090 O.3    63  THR63      -0.2208
     18  CG2      -36.3530  -12.3760   11.0380 C.3    63  THR63       0.0378
     19  N        -43.7130  -26.6270    6.1060 N.3   179  ARG179     -0.1245
     20  CA       -42.7090  -27.0310    5.1320 C.3   179  ARG179      0.1563
     21  C        -41.4240  -27.4990    5.7880 C.2   179  ARG179      0.2260
     22  O        -41.2230  -27.3240    6.9900 O.2   179  ARG179     -0.2867
     23  CB       -42.3720  -25.8470    4.2220 C.3   179  ARG179      0.0307
     24  CG       -41.9250  -24.5770    4.9930 C.3   179  ARG179      0.0489
     25  CD       -41.0600  -23.6760    4.1330 C.3   179  ARG179      0.2205
     26  NE       -40.7030  -22.4240    4.8060 N.pl3 179  ARG179     -0.0865
     27  CZ       -39.7430  -22.3070    5.7220 C.cat 179  ARG179      0.5346
     28  NH1      -39.0410  -23.3750    6.0990 N.pl3 179  ARG179      0.1354
     29  NH2      -39.4910  -21.1250    6.2680 N.pl3 179  ARG179      0.1354
     30  N        -37.1820  -27.2600    6.0800 N.3   181  GLY181     -0.1210
     31  CA       -36.3060  -26.1200    6.2400 C.3   181  GLY181      0.1956
     32  C        -36.3110  -25.5520    7.6350 C.2   181  GLY181      0.2612
     33  O        -36.7080  -26.2310    8.5950 O.2   181  GLY181     -0.2717
     34  N        -35.8460  -24.3110    7.7420 N.am  182  VAL182     -0.1965
     35  CA       -35.7470  -23.6250    9.0110 C.3   182  VAL182      0.1727
     36  C        -36.6800  -22.4230    8.9190 C.2   182  VAL182      0.2617
     37  O        -37.2500  -22.1600    7.8540 O.2   182  VAL182     -0.2715
     38  CB       -34.2950  -23.1850    9.2840 C.3   182  VAL182      0.0290
     39  CG1      -33.4040  -24.4210    9.3610 C.3   182  VAL182      0.0023
     40  CG2      -33.8000  -22.2300    8.1800 C.3   182  VAL182      0.0023
     41  N        -36.8620  -21.7100   10.0260 N.am  183  THR183     -0.1937
     42  CA       -37.8180  -20.6010   10.0500 C.3   183  THR183      0.2028
     43  C        -37.4170  -19.5230    9.0650 C.2   183  THR183      0.2642
     44  O        -36.2280  -19.2960    8.8360 O.2   183  THR183     -0.2714
     45  CB       -37.8970  -19.9600   11.4430 C.3   183  THR183      0.1808
     46  OG1      -36.5920  -19.4910   11.8140 O.3   183  THR183     -0.2208
     47  CG2      -38.3960  -20.9960   12.4690 C.3   183  THR183      0.0379
     48  N        -38.4050  -18.8550    8.4820 N.am  184  GLY184     -0.1954
     49  CA       -38.1110  -17.7280    7.6200 C.3   184  GLY184      0.1869
     50  C        -39.3560  -17.2540    6.9020 C.2   184  GLY184      0.2309
     51  O        -40.1890  -18.0620    6.4870 O.2   184  GLY184     -0.2863
     52  N        -39.6540  -15.4590    4.0310 N.3   186  GLU186     -0.1231
     53  CA       -39.6760  -15.4000    2.5640 C.3   186  GLU186      0.1699
     54  C        -39.8510  -16.7780    1.9350 C.2   186  GLU186      0.2592
     55  O        -40.3970  -16.9160    0.8340 O.2   186  GLU186     -0.2718
     56  CB       -38.4600  -14.6590    1.9830 C.3   186  GLU186      0.0402
     57  CG       -37.1730  -14.7890    2.7670 C.3   186  GLU186      0.1161
     58  CD       -37.1880  -13.9800    4.0550 C.2   186  GLU186      0.3649
     59  OE1      -37.0650  -14.6000    5.1340 O.co2 186  GLU186     -0.2457
     60  OE2      -37.3390  -12.7370    3.9900 O.co2 186  GLU186     -0.2457
     61  N        -39.4080  -17.8020    2.6470 N.am  187  ASN187     -0.1974
     62  CA       -39.7250  -19.1620    2.2550 C.3   187  ASN187      0.1688
     63  C        -41.1400  -19.4950    2.7260 C.2   187  ASN187      0.2292
     64  O        -41.3540  -19.9180    3.8700 O.2   187  ASN187     -0.2864
     65  CB       -38.6970  -20.1270    2.8440 C.3   187  ASN187      0.1181
     66  CG       -38.7990  -21.5090    2.2610 C.2   187  ASN187      0.2629
     67  OD1      -39.6430  -21.7710    1.3980 O.2   187  ASN187     -0.2716
     68  ND2      -37.9330  -22.4130    2.7260 N.am  187  ASN187     -0.0877
@<TRIPOS>BOND
     1    55    54    2
     2    67    66    2
     3    54    53    1
     4    54    61   am
     5    56    53    1
     6    56    57    1
     7    62    61    1
     8    62    63    1
     9    62    65    1
    10    66    68   am
    11    66    65    1
    12    53    52    1
    13    63    64    2
    14    57    58    1
    15    60    58   ar
    16    58    59   ar
    17    25    26    1
    18    25    24    1
    19    23    24    1
    20    23    20    1
    21    26    27    2
    22    20    21    1
    23    20    19    1
    24    27    28    1
    25    27    29    1
    26    21    22    2
    27    30    31    1
    28    31    32    1
    29    51    50    2
    30    50    49    1
    31    10    11    1
    32    10     9    1
    33    49    48    1
    34    32    34   am
    35    32    33    2
    36    34    35    1
    37    37    36    2
    38    11     5    1
    39    40    38    1
    40     9     6    1
    41    48    43   am
    42    44    43    2
    43    17    16    1
    44    36    35    1
    45    36    41   am
    46    35    38    1
    47    43    42    1
    48     5     6    1
    49     5     3   am
    50    38    39    1
    51     6     7    1
    52     2     3    1
    53     2     1    1
    54    41    42    1
    55    42    45    1
    56    12     7   am
    57    12    13    1
    58     3     4    2
    59    16    13    1
    60    16    18    1
    61     7     8    2
    62    13    14    1
    63    45    46    1
    64    45    47    1
    65    14    15    2
