@<TRIPOS>MOLECULE
tmp/4kkyA02.pdb
 119 109 0 0 0
SMALL
GASTEIGER

@<TRIPOS>ATOM
      1  N          6.7820   -4.1700   12.6120 N.3    85  PHE85      -0.1241
      2  CA         5.6530   -4.4780   13.5100 C.3    85  PHE85       0.1605
      3  C          4.8000   -5.6170   12.9370 C.2    85  PHE85       0.2264
      4  O          4.5940   -5.7140   11.7130 O.2    85  PHE85      -0.2867
      5  CB         4.7070   -3.2590   13.6700 C.3    85  PHE85       0.0534
      6  CG         5.1410   -2.1970   14.7000 C.ar   85  PHE85      -0.0203
      7  CD1        6.4940   -2.0460   15.1040 C.ar   85  PHE85      -0.0042
      8  CD2        4.1960   -1.2580   15.1580 C.ar   85  PHE85      -0.0042
      9  CE1        6.8650   -1.0430   16.0160 C.ar   85  PHE85      -0.0003
     10  CE2        4.5740   -0.2390   16.0560 C.ar   85  PHE85      -0.0003
     11  CZ         5.9060   -0.1340   16.4770 C.ar   85  PHE85      -0.0000
     12  N          4.1850    1.1300    8.6990 N.3    94  TYR94      -0.1241
     13  CA         5.1570    1.7400    9.5890 C.3    94  TYR94       0.1605
     14  C          6.2110    2.3790    8.7170 C.2    94  TYR94       0.2264
     15  O          6.8780    1.6910    7.9390 O.2    94  TYR94      -0.2867
     16  CB         5.8030    0.6350   10.4820 C.3    94  TYR94       0.0534
     17  CG         6.7260    1.1730   11.5490 C.ar   94  TYR94      -0.0201
     18  CD1        8.0390    1.5460   11.2230 C.ar   94  TYR94      -0.0009
     19  CD2        6.3360    1.2090   12.8890 C.ar   94  TYR94      -0.0009
     20  CE1        8.9310    2.0310   12.1940 C.ar   94  TYR94       0.0417
     21  CE2        7.2150    1.6670   13.8750 C.ar   94  TYR94       0.0417
     22  CZ         8.5020    2.1060   13.4920 C.ar   94  TYR94       0.1957
     23  OH         9.3990    2.5470   14.4130 O.3    94  TYR94      -0.2866
     24  N          8.2630    5.2610    9.9750 N.3    96  PHE96      -0.1241
     25  CA         9.1240    6.0740   10.8180 C.3    96  PHE96       0.1605
     26  C         10.6330    5.9620   10.4670 C.2    96  PHE96       0.2264
     27  O         11.1490    4.8860   10.0510 O.2    96  PHE96      -0.2867
     28  CB         8.9500    5.6810   12.3150 C.3    96  PHE96       0.0534
     29  CG         7.5680    5.9940   12.9180 C.ar   96  PHE96      -0.0203
     30  CD1        6.7460    6.9880   12.4100 C.ar   96  PHE96      -0.0042
     31  CD2        7.1270    5.2990   14.0510 C.ar   96  PHE96      -0.0042
     32  CE1        5.4980    7.2710   12.9590 C.ar   96  PHE96      -0.0003
     33  CE2        5.8740    5.5760   14.6300 C.ar   96  PHE96      -0.0003
     34  CZ         5.0610    6.5790   14.0980 C.ar   96  PHE96      -0.0000
     35  N         13.8670    4.1310   12.1450 N.3    99  THR99      -0.1218
     36  CA        13.6210    2.7600   12.5020 C.3    99  THR99       0.1862
     37  C         13.1820    1.9030   11.3410 C.2    99  THR99       0.2287
     38  O         13.5560    0.7500   11.3400 O.2    99  THR99      -0.2866
     39  CB        12.6300    2.6380   13.6380 C.3    99  THR99       0.1770
     40  OG1       13.1790    3.3380   14.7390 O.3    99  THR99      -0.2211
     41  CG2       12.4810    1.1630   14.0490 C.3    99  THR99       0.0375
     42  N          0.9740    0.6210   19.6460 N.3   183  THR183     -0.1218
     43  CA         1.6460   -0.4060   20.4320 C.3   183  THR183      0.1862
     44  C          0.6810   -1.4000   21.0620 C.2   183  THR183      0.2287
     45  O          1.0140   -2.5660   21.1910 O.2   183  THR183     -0.2866
     46  CB         2.4240    0.2360   21.5680 C.3   183  THR183      0.1770
     47  OG1        1.5490    1.1170   22.2440 O.3   183  THR183     -0.2211
     48  CG2        3.5990    1.0980   20.9770 C.3   183  THR183      0.0375
     49  N          8.0300    9.0580   15.2500 N.3   242  LEU242     -0.1245
     50  CA         8.7850    8.1150   16.1050 C.3   242  LEU242      0.1561
     51  C          9.1490    8.7470   17.4630 C.2   242  LEU242      0.2260
     52  O          8.9570    8.1250   18.4870 O.2   242  LEU242     -0.2867
     53  CB        10.0520    7.6460   15.4160 C.3   242  LEU242      0.0270
     54  CG        10.9690    6.7190   16.1810 C.3   242  LEU242      0.0019
     55  CD1       10.2940    5.3930   16.4050 C.3   242  LEU242      0.0001
     56  CD2       12.2190    6.5090   15.3060 C.3   242  LEU242      0.0001
     57  N          6.2030    8.6760   19.7970 N.3   245  VAL245     -0.1231
     58  CA         5.9070    7.3360   20.3170 C.3   245  VAL245      0.1692
     59  C          6.8970    6.9280   21.4210 C.2   245  VAL245      0.2592
     60  O          6.4690    6.4620   22.4840 O.2   245  VAL245     -0.2718
     61  CB         5.8030    6.2690   19.2030 C.3   245  VAL245      0.0266
     62  CG1        5.5920    4.9230   19.8380 C.3   245  VAL245      0.0020
     63  CG2        4.6440    6.5790   18.2660 C.3   245  VAL245      0.0020
     64  N          8.2090    7.1270   21.2080 N.am  246  GLY246     -0.1957
     65  CA         9.2010    6.8940   22.2970 C.3   246  GLY246      0.1869
     66  C          8.9620    7.7900   23.5310 C.2   246  GLY246      0.2309
     67  O          9.0510    7.3280   24.6720 O.2   246  GLY246     -0.2863
     68  N          6.9600    4.6190   26.4410 N.3   250  THR250     -0.1218
     69  CA         8.0180    3.6840   26.7800 C.3   250  THR250      0.1862
     70  C          8.1940    3.7820   28.2960 C.2   250  THR250      0.2287
     71  O          7.6760    2.9500   29.0070 O.2   250  THR250     -0.2866
     72  CB         9.3260    3.9480   26.0190 C.3   250  THR250      0.1770
     73  OG1        9.7630    5.2900   26.2580 O.3   250  THR250     -0.2211
     74  CG2        9.1430    3.6940   24.4980 C.3   250  THR250      0.0375
     75  N          9.4490   -4.4370   25.6090 N.3   293  VAL293     -0.1245
     76  CA         9.3020   -4.1760   24.1670 C.3   293  VAL293      0.1561
     77  C          9.4430   -5.4510   23.3870 C.2   293  VAL293      0.2260
     78  O         10.3190   -6.2650   23.6980 O.2   293  VAL293     -0.2867
     79  CB        10.3110   -3.0770   23.7070 C.3   293  VAL293      0.0252
     80  CG1       10.2820   -2.8280   22.1830 C.3   293  VAL293      0.0019
     81  CG2       10.0520   -1.7900   24.4780 C.3   293  VAL293      0.0019
     82  N          9.4030   -5.7650   19.1520 N.3   295  ASP295     -0.1239
     83  CA         9.0800   -5.6270   17.7160 C.3   295  ASP295      0.1674
     84  C          9.9030   -6.7100   16.9320 C.2   295  ASP295      0.2266
     85  O         10.2630   -7.7620   17.5140 O.2   295  ASP295     -0.2867
     86  CB         9.1100   -4.1560   17.2140 C.3   295  ASP295      0.1410
     87  CG        10.5330   -3.5570   17.0900 C.2   295  ASP295      0.3668
     88  OD1       11.4700   -4.2000   17.4890 O.co2 295  ASP295     -0.2456
     89  OD2       10.7360   -2.4780   16.5070 O.co2 295  ASP295     -0.2456
     90  N         12.6660   -8.1230   22.3240 N.3   320  GLN320     -0.1245
     91  CA        13.7060   -7.4780   23.1610 C.3   320  GLN320      0.1566
     92  C         13.5480   -7.8640   24.6150 C.2   320  GLN320      0.2260
     93  O         14.5270   -8.0850   25.3000 O.2   320  GLN320     -0.2867
     94  CB        13.6670   -5.9220   23.0570 C.3   320  GLN320      0.0367
     95  CG        14.2730   -5.4280   21.7540 C.3   320  GLN320      0.0905
     96  CD        13.2670   -5.3340   20.5990 C.2   320  GLN320      0.2608
     97  OE1       12.1110   -5.8370   20.7240 O.2   320  GLN320     -0.2717
     98  NE2       13.6760   -4.6420   19.4810 N.am  320  GLN320     -0.0878
     99  N         18.4280    1.7560   20.9080 N.3   355  CYS355     -0.1235
    100  CA        17.6260    2.9130   21.4040 C.3   355  CYS355      0.1677
    101  C         18.4180    4.2280   21.5230 C.2   355  CYS355      0.2270
    102  O         19.4360    4.2840   22.1980 O.2   355  CYS355     -0.2867
    103  CB        17.0680    2.6250   22.8370 C.3   355  CYS355      0.0956
    104  SG        15.9780    3.9520   23.4110 S.3   355  CYS355     -0.0801
    105  N          3.2960   -4.4670   21.3860 N.3   393  ILE393     -0.1231
    106  CA         4.6430   -4.0120   21.0070 C.3   393  ILE393      0.1692
    107  C          5.3950   -3.4240   22.2170 C.2   393  ILE393      0.2591
    108  O          6.6190   -3.6030   22.3940 O.2   393  ILE393     -0.2718
    109  CB         4.5810   -2.9260   19.8840 C.3   393  ILE393      0.0266
    110  CG1        3.7560   -3.3630   18.6610 C.3   393  ILE393      0.0019
    111  CG2        5.9820   -2.5240   19.4780 C.3   393  ILE393      0.0020
    112  CD1        4.4230   -4.3880   17.7680 C.3   393  ILE393      0.0001
    113  N          4.6740   -2.6420   22.9930 N.am  394  VAL394     -0.1980
    114  CA         5.2090   -2.1960   24.2840 C.3   394  VAL394      0.1595
    115  C          4.1520   -2.6500   25.3040 C.2   394  VAL394      0.2287
    116  O          2.9300   -2.3770   25.1240 O.2   394  VAL394     -0.2864
    117  CB         5.3790   -0.6730   24.3520 C.3   394  VAL394      0.0276
    118  CG1        5.9510   -0.3130   25.7450 C.3   394  VAL394      0.0022
    119  CG2        6.3170   -0.1900   23.2180 C.3   394  VAL394      0.0022
@<TRIPOS>BOND
     1    15    14    2
     2    12    13    1
     3    14    13    1
     4    13    16    1
     5    24    25    1
     6    27    26    2
     7    26    25    1
     8    16    17    1
     9    25    28    1
    10    18    17   ar
    11    18    20   ar
    12    38    37    2
    13    37    36    1
    14    17    19   ar
    15     4     3    2
    16    35    36    1
    17    20    22   ar
    18    28    29    1
    19    30    29   ar
    20    30    32   ar
    21    36    39    1
    22     1     2    1
    23    19    21   ar
    24    29    31   ar
    25     3     2    1
    26    32    34   ar
    27    22    21   ar
    28    22    23    1
    29     2     5    1
    30    39    41    1
    31    39    40    1
    32     5     6    1
    33    31    33   ar
    34    34    33   ar
    35     6     7   ar
    36     6     8   ar
    37     7     9   ar
    38     8    10   ar
    39    49    50    1
    40    56    54    1
    41    53    50    1
    42    53    54    1
    43     9    11   ar
    44    10    11   ar
    45    50    51    1
    46    54    55    1
    47    89    87   ar
    48    84    85    2
    49    84    83    1
    50    87    86    1
    51    87    88   ar
    52    86    83    1
    53    51    52    2
    54    83    82    1
    55   112   110    1
    56    63    61    1
    57   110   109    1
    58    61    62    1
    59    61    58    1
    60   111   109    1
    61    98    96   am
    62    42    43    1
    63    57    58    1
    64   109   106    1
    65    58    59    1
    66    43    44    1
    67    43    46    1
    68    96    97    2
    69    96    95    1
    70    99   100    1
    71    48    46    1
    72   106   105    1
    73   106   107    1
    74    44    45    2
    75    64    59   am
    76    64    65    1
    77   100   101    1
    78   100   103    1
    79    59    60    2
    80   101   102    2
    81    46    47    1
    82    95    94    1
    83    80    79    1
    84   107   108    2
    85   107   113   am
    86    65    66    1
    87    90    91    1
    88   103   104    1
    89   113   114    1
    90    94    91    1
    91    91    92    1
    92   119   117    1
    93    77    78    2
    94    77    76    1
    95    66    67    2
    96    79    76    1
    97    79    81    1
    98    76    75    1
    99   114   117    1
   100   114   115    1
   101   117   118    1
   102    74    72    1
   103    92    93    2
   104   116   115    2
   105    72    73    1
   106    72    69    1
   107    68    69    1
   108    69    70    1
   109    70    71    2
