@<TRIPOS>MOLECULE
tmp/4kl1A01.pdb
 120 117 0 0 0
SMALL
GASTEIGER

@<TRIPOS>ATOM
      1  N         35.3330   -7.6110  -25.5220 N.3    38  ARG38      -0.1231
      2  CA        34.4150   -8.7150  -25.4790 C.3    38  ARG38       0.1694
      3  C         35.1490   -9.9750  -25.1860 C.2    38  ARG38       0.2592
      4  O         34.6200  -10.8410  -24.4670 O.2    38  ARG38      -0.2718
      5  CB        33.6660   -8.8720  -26.7840 C.3    38  ARG38       0.0321
      6  CG        33.1350  -10.2630  -27.0080 C.3    38  ARG38       0.0489
      7  CD        31.6960  -10.3070  -26.7400 C.3    38  ARG38       0.2205
      8  NE        30.9600  -11.0650  -27.7400 N.pl3  38  ARG38      -0.0865
      9  CZ        30.8360  -12.3850  -27.7080 C.cat  38  ARG38       0.5346
     10  NH1       31.4220  -13.0830  -26.7290 N.pl3  38  ARG38       0.1354
     11  NH2       30.1310  -12.9990  -28.6530 N.pl3  38  ARG38       0.1354
     12  N         36.3570  -10.1130  -25.7260 N.am   39  TYR39      -0.1962
     13  CA        37.0650  -11.3500  -25.4520 C.3    39  TYR39       0.1771
     14  C         38.2070  -11.2410  -24.4740 C.2    39  TYR39       0.2619
     15  O         38.5280  -12.2120  -23.7990 O.2    39  TYR39      -0.2715
     16  CB        37.4600  -12.0600  -26.7200 C.3    39  TYR39       0.0574
     17  CG        36.2940  -12.2990  -27.6310 C.ar   39  TYR39      -0.0198
     18  CD1       35.4320  -13.3710  -27.4330 C.ar   39  TYR39      -0.0009
     19  CD2       36.0480  -11.4360  -28.6950 C.ar   39  TYR39      -0.0009
     20  CE1       34.3370  -13.5860  -28.2920 C.ar   39  TYR39       0.0417
     21  CE2       34.9760  -11.6400  -29.5630 C.ar   39  TYR39       0.0417
     22  CZ        34.1270  -12.7150  -29.3530 C.ar   39  TYR39       0.1957
     23  OH        33.0850  -12.8850  -30.2100 O.3    39  TYR39      -0.2866
     24  N         38.8020  -10.0630  -24.3620 N.am   40  GLN40      -0.1977
     25  CA        39.6970   -9.7560  -23.2380 C.3    40  GLN40       0.1601
     26  C         40.9160  -10.6670  -23.2240 C.2    40  GLN40       0.2287
     27  O         41.3230  -11.1430  -22.1650 O.2    40  GLN40      -0.2864
     28  CB        38.9350   -9.8040  -21.8820 C.3    40  GLN40       0.0394
     29  CG        37.9010   -8.6500  -21.6820 C.3    40  GLN40       0.0908
     30  CD        37.2210   -8.6220  -20.2870 C.2    40  GLN40       0.2608
     31  OE1       37.4720   -9.4710  -19.4370 O.2    40  GLN40      -0.2717
     32  NE2       36.3530   -7.6440  -20.0710 N.am   40  GLN40      -0.0878
     33  N         41.0960  -13.6730  -24.3030 N.3    42  LYS42      -0.1231
     34  CA        40.7320  -15.0950  -24.2540 C.3    42  LYS42       0.1693
     35  C         39.5960  -15.5200  -25.2030 C.2    42  LYS42       0.2592
     36  O         38.5200  -14.9250  -25.2290 O.2    42  LYS42      -0.2718
     37  CB        40.4730  -15.5380  -22.8000 C.3    42  LYS42       0.0285
     38  CG        41.7790  -15.8710  -22.0520 C.3    42  LYS42       0.0035
     39  CD        41.6690  -15.8190  -20.5190 C.3    42  LYS42       0.0206
     40  CE        43.0510  -15.9490  -19.8890 C.3    42  LYS42       0.1093
     41  NZ        42.9610  -16.2880  -18.4610 N.3    42  LYS42      -0.1314
     42  N         39.8670  -16.5760  -25.9660 N.am   43  MET43      -0.1965
     43  CA        38.9390  -17.1190  -26.9470 C.3    43  MET43       0.1736
     44  C         38.8400  -18.6420  -26.8070 C.2    43  MET43       0.2616
     45  O         39.7100  -19.3670  -27.3230 O.2    43  MET43      -0.2715
     46  CB        39.4530  -16.7920  -28.3400 C.3    43  MET43       0.0427
     47  CG        39.1780  -15.3930  -28.8220 C.3    43  MET43       0.0599
     48  SD        37.8990  -15.3380  -30.0990 S.3    43  MET43      -0.1393
     49  CE        37.5660  -17.0910  -30.4260 C.3    43  MET43       0.0692
     50  N         37.8020  -19.1380  -26.1280 N.am   44  PHE44      -0.1974
     51  CA        37.5970  -20.5950  -26.0370 C.3    44  PHE44       0.1639
     52  C         36.1950  -21.1550  -26.3000 C.2    44  PHE44       0.2290
     53  O         35.1870  -20.4700  -26.1620 O.2    44  PHE44      -0.2864
     54  CB        38.2390  -21.2150  -24.7670 C.3    44  PHE44       0.0560
     55  CG        37.9300  -20.4950  -23.4530 C.ar   44  PHE44      -0.0200
     56  CD1       38.2610  -21.1220  -22.2280 C.ar   44  PHE44      -0.0042
     57  CD2       37.3440  -19.2220  -23.4220 C.ar   44  PHE44      -0.0042
     58  CE1       38.0120  -20.5060  -21.0100 C.ar   44  PHE44      -0.0003
     59  CE2       37.0980  -18.5850  -22.2100 C.ar   44  PHE44      -0.0003
     60  CZ        37.4270  -19.2280  -21.0010 C.ar   44  PHE44      -0.0000
     61  N         33.6110  -22.4750  -25.0560 N.3    46  GLU46      -0.1231
     62  CA        32.9250  -22.6420  -23.7950 C.3    46  GLU46       0.1699
     63  C         31.6150  -23.4120  -23.9520 C.2    46  GLU46       0.2592
     64  O         31.3330  -24.3340  -23.1930 O.2    46  GLU46      -0.2718
     65  CB        32.6970  -21.2710  -23.2010 C.3    46  GLU46       0.0402
     66  CG        31.6220  -21.2030  -22.1870 C.3    46  GLU46       0.1161
     67  CD        31.9680  -20.2460  -21.0650 C.2    46  GLU46       0.3649
     68  OE1       31.0350  -19.9460  -20.2500 O.co2  46  GLU46      -0.2457
     69  OE2       33.1690  -19.8280  -21.0080 O.co2  46  GLU46      -0.2457
     70  N         30.8310  -23.0680  -24.9610 N.am   47  GLU47      -0.1979
     71  CA        29.5770  -23.7540  -25.2010 C.3    47  GLU47       0.1602
     72  C         29.7920  -25.2460  -25.4730 C.2    47  GLU47       0.2287
     73  O         28.9120  -26.0970  -25.2250 O.2    47  GLU47      -0.2864
     74  CB        28.8180  -23.0480  -26.3230 C.3    47  GLU47       0.0415
     75  CG        28.2680  -21.6810  -25.8370 C.3    47  GLU47       0.1163
     76  CD        28.7210  -20.4910  -26.7120 C.2    47  GLU47       0.3649
     77  OE1       29.4100  -19.5470  -26.1920 O.co2  47  GLU47      -0.2457
     78  OE2       28.3790  -20.5200  -27.9280 O.co2  47  GLU47      -0.2457
     79  N         28.7390  -18.5950  -11.7040 N.3    65  ASN65      -0.1240
     80  CA        29.2600  -17.5750  -12.5970 C.3    65  ASN65       0.1653
     81  C         28.4520  -16.2310  -12.5070 C.2    65  ASN65       0.2266
     82  O         29.0460  -15.1390  -12.5370 O.2    65  ASN65      -0.2867
     83  CB        29.3370  -18.1100  -14.0230 C.3    65  ASN65       0.1155
     84  CG        30.4830  -19.1150  -14.2260 C.2    65  ASN65       0.2627
     85  OD1       31.2140  -19.4400  -13.2990 O.2    65  ASN65      -0.2716
     86  ND2       30.6620  -19.5800  -15.4570 N.am   65  ASN65      -0.0877
     87  N         25.1400  -13.4730  -23.7590 N.3    92  PHE92      -0.1241
     88  CA        26.0070  -12.3570  -23.4760 C.3    92  PHE92       0.1605
     89  C         26.1680  -11.4690  -24.7100 C.2    92  PHE92       0.2264
     90  O         26.4430  -11.9570  -25.7830 O.2    92  PHE92      -0.2867
     91  CB        27.3630  -12.9240  -23.0400 C.3    92  PHE92       0.0534
     92  CG        28.3550  -11.8920  -22.6520 C.ar   92  PHE92      -0.0203
     93  CD1       28.1320  -11.0680  -21.5440 C.ar   92  PHE92      -0.0042
     94  CD2       29.5250  -11.7290  -23.3960 C.ar   92  PHE92      -0.0042
     95  CE1       29.0790  -10.0750  -21.1680 C.ar   92  PHE92      -0.0003
     96  CE2       30.4770  -10.7500  -23.0510 C.ar   92  PHE92      -0.0003
     97  CZ        30.2490   -9.9180  -21.9280 C.ar   92  PHE92      -0.0000
     98  N         27.9630   -4.3310  -20.9280 N.3   159  ARG159     -0.1245
     99  CA        27.9280   -5.7740  -20.9810 C.3   159  ARG159      0.1563
    100  C         26.5100   -6.1900  -20.6800 C.2   159  ARG159      0.2260
    101  O         26.0220   -5.9620  -19.5850 O.2   159  ARG159     -0.2867
    102  CB        28.9140   -6.3910  -19.9940 C.3   159  ARG159      0.0307
    103  CG        30.3290   -5.9730  -20.2010 C.3   159  ARG159      0.0489
    104  CD        31.1530   -6.2520  -18.9400 C.3   159  ARG159      0.2205
    105  NE        31.2090   -7.6720  -18.5940 N.pl3 159  ARG159     -0.0865
    106  CZ        31.9730   -8.5740  -19.2170 C.cat 159  ARG159      0.5346
    107  NH1       32.7710   -8.2050  -20.2250 N.pl3 159  ARG159      0.1354
    108  NH2       31.9540   -9.8500  -18.8210 N.pl3 159  ARG159      0.1354
    109  N         22.9280   -8.9640  -21.1920 N.3   161  TYR161     -0.1241
    110  CA        22.4620  -10.3230  -21.4550 C.3   161  TYR161      0.1605
    111  C         21.0910  -10.3040  -22.1240 C.2   161  TYR161      0.2264
    112  O         20.1010   -9.9710  -21.4770 O.2   161  TYR161     -0.2867
    113  CB        22.4410  -11.1300  -20.1640 C.3   161  TYR161      0.0534
    114  CG        23.8250  -11.5280  -19.7510 C.ar  161  TYR161     -0.0201
    115  CD1       24.4090  -12.6980  -20.2470 C.ar  161  TYR161     -0.0009
    116  CD2       24.5820  -10.7320  -18.8730 C.ar  161  TYR161     -0.0009
    117  CE1       25.6990  -13.0790  -19.8780 C.ar  161  TYR161      0.0417
    118  CE2       25.8760  -11.1140  -18.4950 C.ar  161  TYR161      0.0417
    119  CZ        26.4210  -12.2820  -19.0100 C.ar  161  TYR161      0.1957
    120  OH        27.6800  -12.6730  -18.6540 O.3   161  TYR161     -0.2866
@<TRIPOS>BOND
     1    49    48    1
     2    23    22    1
     3    48    47    1
     4    21    22   ar
     5    21    19   ar
     6    22    20   ar
     7    47    46    1
     8    19    17   ar
     9    11     9    1
    10    46    43    1
    11    20    18   ar
    12    78    76   ar
    13     8     9    2
    14     8     7    1
    15     9    10    1
    16    17    18   ar
    17    17    16    1
    18    45    44    2
    19     6     5    1
    20     6     7    1
    21    43    44    1
    22    43    42    1
    23    44    50   am
    24     5     2    1
    25    16    13    1
    26    76    77   ar
    27    76    75    1
    28    74    75    1
    29    74    71    1
    30    52    53    2
    31    52    51    1
    32    50    51    1
    33    51    54    1
    34    42    35   am
    35    90    89    2
    36    12    13    1
    37    12     3   am
    38     1     2    1
    39     2     3    1
    40    72    73    2
    41    72    71    1
    42    13    14    1
    43    36    35    2
    44    35    34    1
    45    71    70    1
    46     3     4    2
    47    61    62    1
    48    70    63   am
    49    54    55    1
    50    89    88    1
    51    14    24   am
    52    14    15    2
    53    24    25    1
    54    33    34    1
    55    34    37    1
    56    63    62    1
    57    63    64    2
    58    62    65    1
    59    87    88    1
    60    88    91    1
    61    55    57   ar
    62    55    56   ar
    63    57    59   ar
    64    94    96   ar
    65    94    92   ar
    66    25    26    1
    67    25    28    1
    68    26    27    2
    69    65    66    1
    70    96    97   ar
    71    91    92    1
    72    37    38    1
    73    92    93   ar
    74    56    58   ar
    75    59    60   ar
    76    66    67    1
    77   111   112    2
    78   111   110    1
    79    38    39    1
    80    97    95   ar
    81    28    29    1
    82    29    30    1
    83    93    95   ar
    84   110   109    1
    85   110   113    1
    86    67    69   ar
    87    67    68   ar
    88    58    60   ar
    89    99    98    1
    90    99   100    1
    91    99   102    1
    92   100   101    2
    93    39    40    1
    94    30    32   am
    95    30    31    2
    96   115   117   ar
    97   115   114   ar
    98   107   106    1
    99   103   102    1
   100   103   104    1
   101   113   114    1
   102    40    41    1
   103   117   119   ar
   104   114   116   ar
   105   106   108    1
   106   106   105    2
   107   119   120    1
   108   119   118   ar
   109   104   105    1
   110   116   118   ar
   111    86    84   am
   112    84    83    1
   113    84    85    2
   114    83    80    1
   115    80    81    1
   116    80    79    1
   117    82    81    2
