@<TRIPOS>MOLECULE
tmp/4kl9A01.pdb
 72 69 0 0 0
SMALL
GASTEIGER

@<TRIPOS>ATOM
      1  N          9.9540   -4.3850    2.3380 N.3     9  GLN9       -0.1245
      2  CA         8.5380   -4.2410    2.7310 C.3     9  GLN9        0.1566
      3  C          7.7270   -5.3400    2.1320 C.2     9  GLN9        0.2260
      4  O          7.9890   -5.7960    1.0260 O.2     9  GLN9       -0.2867
      5  CB         7.9430   -2.8860    2.2870 C.3     9  GLN9        0.0367
      6  CG         7.9440   -2.6450    0.7730 C.3     9  GLN9        0.0905
      7  CD         7.3600   -1.3000    0.3820 C.2     9  GLN9        0.2608
      8  OE1        7.8390   -0.2820    0.8170 O.2     9  GLN9       -0.2717
      9  NE2        6.2990   -1.2770   -0.4240 N.am    9  GLN9       -0.0878
     10  N          4.0200   -6.2700    0.4110 N.3    11  THR11      -0.1203
     11  CA         3.2850   -5.4400   -0.5830 C.3    11  THR11       0.1994
     12  C          2.2870   -4.5080    0.1360 C.2    11  THR11       0.2619
     13  O          1.8710   -3.5450   -0.5030 O.2    11  THR11      -0.2717
     14  CB         2.4540   -6.3370   -1.5090 C.3    11  THR11       0.1784
     15  OG1        1.4870   -7.0980   -0.7410 O.3    11  THR11      -0.2211
     16  CG2        3.3570   -7.2990   -2.2430 C.3    11  THR11       0.0376
     17  N          1.9220   -4.7870    1.3740 N.am   12  SER12      -0.1937
     18  CA         1.0380   -3.9110    2.1600 C.3    12  SER12       0.2055
     19  C          1.7650   -2.6710    2.6200 C.2    12  SER12       0.2643
     20  O          1.1310   -1.7560    3.1670 O.2    12  SER12      -0.2714
     21  CB         0.5440   -4.6600    3.4010 C.3    12  SER12       0.2130
     22  OG         1.6890   -5.1210    4.1570 O.3    12  SER12      -0.2179
     23  N          3.1060   -2.6440    2.5110 N.am   13  GLY13      -0.1954
     24  CA         3.8570   -1.5260    3.1300 C.3    13  GLY13       0.1869
     25  C          4.3020   -1.8060    4.5550 C.2    13  GLY13       0.2309
     26  O          5.0500   -1.0110    5.1490 O.2    13  GLY13      -0.2863
     27  N         -2.0280   -4.9400    7.0900 N.3   122  ARG122     -0.1245
     28  CA        -1.6630   -4.0360    8.2150 C.3   122  ARG122      0.1563
     29  C         -2.4610   -4.2380    9.4520 C.2   122  ARG122      0.2260
     30  O         -3.6920   -4.4820    9.4010 O.2   122  ARG122     -0.2867
     31  CB        -1.8430   -2.6050    7.7730 C.3   122  ARG122      0.0307
     32  CG        -0.9650   -2.1740    6.6520 C.3   122  ARG122      0.0489
     33  CD        -1.1730   -0.7250    6.2450 C.3   122  ARG122      0.2205
     34  NE        -0.4400   -0.3060    5.0780 N.pl3 122  ARG122     -0.0865
     35  CZ        -0.4240    0.9080    4.5380 C.cat 122  ARG122      0.5346
     36  NH1       -1.0800    1.9350    5.1500 N.pl3 122  ARG122      0.1354
     37  NH2        0.3000    1.0880    3.4190 N.pl3 122  ARG122      0.1354
     38  N          5.5360    0.9590    9.2480 N.3   128  LEU128     -0.1231
     39  CA         5.2630    1.0680    7.8080 C.3   128  LEU128      0.1693
     40  C          6.3870    1.7380    7.0260 C.2   128  LEU128      0.2592
     41  O          7.0870    2.6090    7.5970 O.2   128  LEU128     -0.2718
     42  CB         3.9590    1.8330    7.5420 C.3   128  LEU128      0.0284
     43  CG         2.6940    1.2930    8.3160 C.3   128  LEU128      0.0019
     44  CD1        1.4690    2.1790    8.0100 C.3   128  LEU128      0.0001
     45  CD2        2.4400   -0.1570    7.9250 C.3   128  LEU128      0.0001
     46  N          6.5230    1.3560    5.7810 N.am  129  ALA129     -0.1966
     47  CA         7.4900    2.0100    4.8860 C.3   129  ALA129      0.1713
     48  C          7.0550    3.4850    4.6320 C.2   129  ALA129      0.2458
     49  O          5.8390    3.7990    4.7250 O.2   129  ALA129     -0.2730
     50  CB         7.5370    1.2230    3.5620 C.3   129  ALA129      0.0333
     51  N          8.0060    4.3480    4.2570 N.am  130  PRO130     -0.2716
     52  CA         7.6780    5.7230    3.9290 C.3   130  PRO130      0.1536
     53  C          7.0240    5.6490    2.5490 C.2   130  PRO130      0.2598
     54  O          7.1810    4.6520    1.8060 O.2   130  PRO130     -0.2715
     55  CB         9.0510    6.4390    3.9390 C.3   130  PRO130      0.0310
     56  CG         9.9850    5.3590    3.5400 C.3   130  PRO130      0.0237
     57  CD         9.4880    4.1310    4.2490 C.3   130  PRO130      0.0939
     58  N          6.3380    6.7330    2.1710 N.am  131  VAL131     -0.1964
     59  CA         5.7600    6.8340    0.8760 C.3   131  VAL131      0.1727
     60  C          6.6520    7.6540   -0.0570 C.2   131  VAL131      0.2616
     61  O          6.9560    8.8210    0.2170 O.2   131  VAL131     -0.2715
     62  CB         4.4200    7.5680    0.9730 C.3   131  VAL131      0.0290
     63  CG1        3.7520    7.5870   -0.3900 C.3   131  VAL131      0.0023
     64  CG2        3.5400    6.9450    2.0680 C.3   131  VAL131      0.0023
     65  N          7.0190    7.0410   -1.1800 N.am  132  LEU132     -0.1977
     66  CA         7.7530    7.7630   -2.2240 C.3   132  LEU132      0.1596
     67  C          6.7960    8.6230   -3.0960 C.2   132  LEU132      0.2287
     68  O          5.7950    8.1060   -3.5710 O.2   132  LEU132     -0.2864
     69  CB         8.5810    6.7940   -3.0610 C.3   132  LEU132      0.0297
     70  CG         9.6730    5.9580   -2.3550 C.3   132  LEU132      0.0022
     71  CD1       10.6650    5.4210   -3.3760 C.3   132  LEU132      0.0001
     72  CD2       10.4430    6.7790   -1.3790 C.3   132  LEU132      0.0001
@<TRIPOS>BOND
     1    68    67    2
     2    71    70    1
     3    67    66    1
     4    69    70    1
     5    69    66    1
     6    70    72    1
     7    16    14    1
     8    66    65    1
     9    14    15    1
    10    14    11    1
    11    65    60   am
    12    11    12    1
    13    11    10    1
    14    13    12    2
    15     9     7   am
    16    63    62    1
    17    60    61    2
    18    60    59    1
    19    12    17   am
    20     7     6    1
    21     7     8    2
    22     6     5    1
    23    59    62    1
    24    59    58    1
    25    62    64    1
    26     4     3    2
    27    17    18    1
    28    54    53    2
    29     3     2    1
    30    18    19    1
    31    18    21    1
    32    58    53   am
    33     5     2    1
    34     1     2    1
    35    23    19   am
    36    23    24    1
    37    53    52    1
    38    19    20    2
    39    24    25    1
    40    21    22    1
    41    37    35    1
    42    56    55    1
    43    56    57    1
    44    50    47    1
    45    52    55    1
    46    52    51    1
    47    57    51    1
    48    51    48   am
    49    35    34    2
    50    35    36    1
    51    25    26    2
    52    48    49    2
    53    48    47    1
    54    47    46    1
    55    34    33    1
    56    46    40   am
    57    33    32    1
    58    32    31    1
    59    40    41    2
    60    40    39    1
    61    27    28    1
    62    42    39    1
    63    42    43    1
    64    31    28    1
    65    39    38    1
    66    45    43    1
    67    44    43    1
    68    28    29    1
    69    30    29    2
