@<TRIPOS>MOLECULE
tmp/4klbA00.pdb
 89 87 0 0 0
SMALL
GASTEIGER

@<TRIPOS>ATOM
      1  N         33.8410   -5.8620   25.3900 N.3    23  GLY23      -0.1225
      2  CA        33.1390   -5.0220   24.4270 C.3    23  GLY23       0.1811
      3  C         33.6980   -5.2280   23.0220 C.2    23  GLY23       0.2280
      4  O         34.1350   -4.2890   22.3520 O.2    23  GLY23      -0.2866
      5  N         32.0130   -6.7950   20.5670 N.3    25  CYS25      -0.1221
      6  CA        30.8980   -7.0260   19.6460 C.3    25  CYS25       0.1808
      7  C         31.1770   -6.4580   18.2320 C.2    25  CYS25       0.2601
      8  O         30.7270   -7.0060   17.2280 O.2    25  CYS25      -0.2717
      9  CB        29.6250   -6.4280   20.2360 C.3    25  CYS25       0.0970
     10  SG        29.8860   -4.7470   20.8480 S.3    25  CYS25      -0.0800
     11  N         31.8970   -5.3390   18.1670 N.am   26  TRP26      -0.1976
     12  CA        32.2580   -4.7370   16.8880 C.3    26  TRP26       0.1640
     13  C         33.1450   -5.6990   16.0740 C.2    26  TRP26       0.2290
     14  O         33.0830   -5.7270   14.8450 O.2    26  TRP26      -0.2864
     15  CB        32.9720   -3.4070   17.0990 C.3    26  TRP26       0.0576
     16  CG        34.2080   -3.5580   17.8900 C.ar   26  TRP26       0.0006
     17  CD1       34.3010   -3.6290   19.2430 C.ar   26  TRP26       0.0946
     18  CD2       35.5440   -3.6850   17.3850 C.ar   26  TRP26       0.0152
     19  NE1       35.6120   -3.7830   19.6190 N.ar   26  TRP26      -0.2442
     20  CE2       36.3960   -3.8260   18.4960 C.ar   26  TRP26       0.0810
     21  CE3       36.1010   -3.6840   16.1060 C.ar   26  TRP26       0.0012
     22  CZ2       37.7790   -3.9670   18.3680 C.ar   26  TRP26       0.0191
     23  CZ3       37.4770   -3.8290   15.9810 C.ar   26  TRP26       0.0001
     24  CH2       38.2980   -3.9700   17.1030 C.ar   26  TRP26       0.0015
     25  N         37.1530   -2.4700   24.9430 N.3    64  SER64      -0.1202
     26  CA        36.4360   -1.2550   25.3050 C.3    64  SER64       0.2020
     27  C         35.4950   -0.7690   24.1890 C.2    64  SER64       0.2619
     28  O         34.6980    0.1460   24.4110 O.2    64  SER64      -0.2717
     29  CB        37.4350   -0.1380   25.6300 C.3    64  SER64       0.2103
     30  OG        38.3090   -0.4880   26.6890 O.3    64  SER64      -0.2182
     31  N         35.5640   -1.3990   23.0090 N.am   65  GLY65      -0.1942
     32  CA        34.6940   -1.0520   21.8910 C.3    65  GLY65       0.2014
     33  C         35.4330   -0.7040   20.6000 C.2    65  GLY65       0.2639
     34  O         36.6660   -0.6710   20.5690 O.2    65  GLY65      -0.2714
     35  N         34.6740   -0.4380   19.5350 N.am   66  GLY66      -0.1939
     36  CA        35.2350   -0.1070   18.2310 C.3    66  GLY66       0.2014
     37  C         34.1730    0.0290   17.1460 C.2    66  GLY66       0.2639
     38  O         32.9830   -0.0220   17.4450 O.2    66  GLY66      -0.2714
     39  N         34.5840    0.2270   15.8920 N.am   67  LEU67      -0.1963
     40  CA        33.6320    0.2930   14.7700 C.3    67  LEU67       0.1728
     41  C         33.9400   -0.7210   13.6970 C.2    67  LEU67       0.2616
     42  O         35.0970   -0.8480   13.2630 O.2    67  LEU67      -0.2715
     43  CB        33.6280    1.6740   14.1260 C.3    67  LEU67       0.0311
     44  CG        33.0090    2.8260   14.8980 C.3    67  LEU67       0.0022
     45  CD1       33.2240    4.1320   14.1600 C.3    67  LEU67       0.0001
     46  CD2       31.5290    2.5240   15.0270 C.3    67  LEU67       0.0001
     47  N         32.8950   -1.3640   13.1830 N.am   68  MET68      -0.1977
     48  CA        33.0850   -2.3500   12.1150 C.3    68  MET68       0.1605
     49  C         33.7680   -1.7200   10.9040 C.2    68  MET68       0.2287
     50  O         34.6280   -2.3490   10.2790 O.2    68  MET68      -0.2864
     51  CB        31.7620   -2.9810   11.6990 C.3    68  MET68       0.0413
     52  CG        31.1470   -3.8850   12.7780 C.3    68  MET68       0.0598
     53  SD        30.2470   -2.9770   14.0950 S.3    68  MET68      -0.1393
     54  CE        28.7680   -2.5090   13.1930 C.3    68  MET68       0.0692
     55  N         25.0880   -1.7980   13.3530 N.3   138  ALA138     -0.1245
     56  CA        25.1520   -1.3680   14.7420 C.3   138  ALA138      0.1562
     57  C         23.7380   -1.1970   15.2720 C.2   138  ALA138      0.2260
     58  O         22.8400   -0.7350   14.5570 O.2   138  ALA138     -0.2867
     59  CB        25.9420   -0.0700   14.8730 C.3   138  ALA138      0.0290
     60  N         23.4090    3.9470   19.5590 N.3   160  LEU160     -0.1231
     61  CA        24.1930    2.7920   19.1260 C.3   160  LEU160      0.1693
     62  C         25.2270    2.4000   20.1780 C.2   160  LEU160      0.2592
     63  O         25.9770    3.2500   20.6740 O.2   160  LEU160     -0.2718
     64  CB        24.8830    3.0820   17.7850 C.3   160  LEU160      0.0284
     65  CG        23.9470    3.3970   16.6160 C.3   160  LEU160      0.0019
     66  CD1       24.7120    3.9170   15.4110 C.3   160  LEU160      0.0001
     67  CD2       23.1790    2.1260   16.2480 C.3   160  LEU160      0.0001
     68  N         25.2130    1.1310   20.5680 N.am  161  ASP161     -0.1960
     69  CA        26.1900    0.6170   21.5110 C.3   161  ASP161      0.1840
     70  C         26.6070   -0.8140   21.1770 C.2   161  ASP161      0.2622
     71  O         27.4350   -1.4040   21.8490 O.2   161  ASP161     -0.2715
     72  CB        25.6450    0.6720   22.9440 C.3   161  ASP161      0.1450
     73  CG        24.2470    0.0450   23.0950 C.2   161  ASP161      0.3671
     74  OD1       23.5080    0.4500   24.0380 O.co2 161  ASP161     -0.2456
     75  OD2       23.8890   -0.8720   22.3200 O.co2 161  ASP161     -0.2456
     76  N         26.0540   -1.3830   20.1230 N.am  162  HIS162     -0.1959
     77  CA        26.2910   -2.8010   19.8960 C.3   162  HIS162      0.1787
     78  C         26.3470   -3.2120   18.3960 C.2   162  HIS162      0.2620
     79  O         25.4940   -2.8260   17.5830 O.2   162  HIS162     -0.2715
     80  CB        25.2100   -3.5750   20.6560 C.3   162  HIS162      0.0785
     81  CG        25.4640   -5.0390   20.7670 C.ar  162  HIS162      0.0821
     82  ND1       26.6670   -5.5590   21.1970 N.ar  162  HIS162     -0.2267
     83  CD2       24.6540   -6.1010   20.5380 C.ar  162  HIS162      0.1154
     84  CE1       26.5890   -6.8780   21.2120 C.ar  162  HIS162      0.1986
     85  NE2       25.3770   -7.2340   20.8180 N.ar  162  HIS162     -0.2212
     86  N         27.3400   -4.0330   18.0630 N.am  163  GLY163     -0.1954
     87  CA        27.5260   -4.5170   16.7080 C.3   163  GLY163      0.1869
     88  C         27.0450   -5.9380   16.5140 C.2   163  GLY163      0.2309
     89  O         27.3690   -6.8260   17.3140 O.2   163  GLY163     -0.2863
@<TRIPOS>BOND
     1    50    49    2
     2    49    48    1
     3    51    48    1
     4    51    52    1
     5    48    47    1
     6    52    53    1
     7    47    41   am
     8    54    53    1
     9    42    41    2
    10    55    56    1
    11    41    40    1
    12    43    40    1
    13    43    44    1
    14    45    44    1
    15    58    57    2
    16    56    59    1
    17    56    57    1
    18    40    39    1
    19    14    13    2
    20    44    46    1
    21    66    65    1
    22    39    37   am
    23    23    21   ar
    24    23    24   ar
    25    13    12    1
    26    21    18   ar
    27    67    65    1
    28    88    87    1
    29    88    89    2
    30    65    64    1
    31    87    86    1
    32    12    15    1
    33    12    11    1
    34    15    16    1
    35    24    22   ar
    36    37    38    2
    37    37    36    1
    38     8     7    2
    39    18    16   ar
    40    18    20   ar
    41    79    78    2
    42    64    61    1
    43    16    17   ar
    44    86    78   am
    45    11     7   am
    46    36    35    1
    47     7     6    1
    48    22    20   ar
    49    78    77    1
    50    20    19   ar
    51    61    60    1
    52    61    62    1
    53    17    19   ar
    54    35    33   am
    55     6     9    1
    56     6     5    1
    57    77    76    1
    58    77    80    1
    59    76    70   am
    60    62    68   am
    61    62    63    2
    62     9    10    1
    63    83    81   ar
    64    83    85   ar
    65    68    69    1
    66    34    33    2
    67    33    32    1
    68    80    81    1
    69    81    82   ar
    70    85    84   ar
    71    70    69    1
    72    70    71    2
    73    82    84   ar
    74    69    72    1
    75    32    31    1
    76    75    73   ar
    77     4     3    2
    78    72    73    1
    79    31    27   am
    80     3     2    1
    81    73    74   ar
    82    27    28    2
    83    27    26    1
    84     2     1    1
    85    25    26    1
    86    26    29    1
    87    29    30    1
