@<TRIPOS>MOLECULE
tmp/4klrB02.pdb
 112 111 0 0 0
SMALL
GASTEIGER

@<TRIPOS>ATOM
      1  N         36.4520   20.9090   34.6040 N.3   162  ARG162     -0.1231
      2  CA        35.2850   21.7660   34.4640 C.3   162  ARG162      0.1694
      3  C         34.8120   22.1720   35.8670 C.2   162  ARG162      0.2592
      4  O         35.1270   21.4890   36.8690 O.2   162  ARG162     -0.2718
      5  CB        34.1520   21.0640   33.6690 C.3   162  ARG162      0.0321
      6  CG        33.6070   19.7930   34.3100 C.3   162  ARG162      0.0489
      7  CD        32.7790   19.0050   33.2790 C.3   162  ARG162      0.2205
      8  NE        33.7010   18.2360   32.4920 N.pl3 162  ARG162     -0.0865
      9  CZ        33.5260   17.6700   31.3180 C.cat 162  ARG162      0.5346
     10  NH1       32.4250   17.7970   30.5260 N.pl3 162  ARG162      0.1354
     11  NH2       34.5600   16.9870   30.9180 N.pl3 162  ARG162      0.1354
     12  N         34.0940   23.3090   35.9280 N.am  163  TRP163     -0.1963
     13  CA        33.5650   23.8290   37.1680 C.3   163  TRP163      0.1756
     14  C         32.4420   24.8490   36.8390 C.2   163  TRP163      0.2461
     15  O         32.5440   26.0180   37.2190 O.2   163  TRP163     -0.2730
     16  CB        34.6860   24.5160   38.0070 C.3   163  TRP163      0.0590
     17  CG        35.7490   25.3010   37.2130 C.ar  163  TRP163      0.0006
     18  CD1       36.6920   24.7800   36.4430 C.ar  163  TRP163      0.0946
     19  CD2       36.0360   26.7060   37.2750 C.ar  163  TRP163      0.0152
     20  NE1       37.4960   25.7500   35.9050 N.ar  163  TRP163     -0.2442
     21  CE2       37.1300   26.9460   36.4280 C.ar  163  TRP163      0.0810
     22  CE3       35.4560   27.7880   37.9380 C.ar  163  TRP163      0.0012
     23  CZ2       37.6680   28.2170   36.2270 C.ar  163  TRP163      0.0191
     24  CZ3       35.9870   29.0420   37.7400 C.ar  163  TRP163      0.0001
     25  CH2       37.0770   29.2550   36.9110 C.ar  163  TRP163      0.0015
     26  N         31.4290   24.4210   36.0570 N.am  164  PRO164     -0.2716
     27  CA        30.4540   25.3520   35.5400 C.3   164  PRO164      0.1536
     28  C         29.5360   25.8980   36.6080 C.2   164  PRO164      0.2599
     29  O         28.9250   27.0000   36.4070 O.2   164  PRO164     -0.2715
     30  CB        29.6320   24.5020   34.5640 C.3   164  PRO164      0.0310
     31  CG        29.8620   23.0150   35.1280 C.3   164  PRO164      0.0237
     32  CD        31.2060   23.0070   35.6140 C.3   164  PRO164      0.0939
     33  N         29.3580   25.1750   37.7030 N.am  165  THR165     -0.1937
     34  CA        28.4870   25.7110   38.7710 C.3   165  THR165      0.2028
     35  C         29.2030   25.9910   40.1450 C.2   165  THR165      0.2642
     36  O         28.5730   26.0070   41.2010 O.2   165  THR165     -0.2714
     37  CB        27.3530   24.7340   39.0390 C.3   165  THR165      0.1808
     38  OG1       27.9270   23.5240   39.4890 O.3   165  THR165     -0.2208
     39  CG2       26.4940   24.4270   37.7480 C.3   165  THR165      0.0379
     40  N         30.5150   26.1500   40.1490 N.am  166  HIS166     -0.1973
     41  CA        31.2250   26.3390   41.4220 C.3   166  HIS166      0.1656
     42  C         30.6920   27.5820   42.1630 C.2   166  HIS166      0.2291
     43  O         30.6030   28.6820   41.5690 O.2   166  HIS166     -0.2864
     44  CB        32.6990   26.5160   41.1240 C.3   166  HIS166      0.0771
     45  CG        33.5100   26.6390   42.3450 C.ar  166  HIS166      0.0820
     46  ND1       33.8500   27.8610   42.8790 N.ar  166  HIS166     -0.2267
     47  CD2       33.9720   25.6910   43.2040 C.ar  166  HIS166      0.1154
     48  CE1       34.5320   27.6600   43.9980 C.ar  166  HIS166      0.1986
     49  NE2       34.6300   26.3510   44.2070 N.ar  166  HIS166     -0.2212
     50  N         38.8780   25.7260   44.4890 N.3   320  LEU320     -0.1245
     51  CA        38.7220   24.5980   43.5870 C.3   320  LEU320      0.1561
     52  C         39.9080   23.6700   43.6330 C.2   320  LEU320      0.2260
     53  O         39.7420   22.4750   43.5900 O.2   320  LEU320     -0.2867
     54  CB        38.5910   25.1090   42.1450 C.3   320  LEU320      0.0270
     55  CG        37.1670   25.3180   41.6420 C.3   320  LEU320      0.0019
     56  CD1       37.2280   26.1690   40.4230 C.3   320  LEU320      0.0001
     57  CD2       36.4340   23.9950   41.3280 C.3   320  LEU320      0.0001
     58  N         39.5930   21.8050   47.0130 N.3   323  SER323     -0.1202
     59  CA        38.6230   20.6600   46.9890 C.3   323  SER323      0.2020
     60  C         39.1160   19.5570   46.0850 C.2   323  SER323      0.2618
     61  O         38.9370   18.3730   46.3610 O.2   323  SER323     -0.2717
     62  CB        37.2760   21.0620   46.4290 C.3   323  SER323      0.2103
     63  OG        36.6610   21.7910   47.4050 O.3   323  SER323     -0.2182
     64  N         39.7560   19.9380   44.9990 N.am  324  HIS324     -0.1975
     65  CA        40.2910   18.9170   44.1080 C.3   324  HIS324      0.1656
     66  C         41.3430   18.0260   44.8310 C.2   324  HIS324      0.2291
     67  O         41.3310   16.7870   44.7370 O.2   324  HIS324     -0.2864
     68  CB        40.9210   19.5740   42.9310 C.3   324  HIS324      0.0771
     69  CG        41.6710   18.6400   42.0480 C.ar  324  HIS324      0.0820
     70  ND1       41.0470   17.6640   41.3000 N.ar  324  HIS324     -0.2267
     71  CD2       42.9890   18.5840   41.7250 C.ar  324  HIS324      0.1154
     72  CE1       41.9480   17.0540   40.5450 C.ar  324  HIS324      0.1986
     73  NE2       43.1360   17.5870   40.7940 N.ar  324  HIS324     -0.2212
     74  N         39.8770   15.7210   47.5520 N.3   327  SER327     -0.1217
     75  CA        38.9120   14.7570   47.0530 C.3   327  SER327      0.1889
     76  C         39.6250   13.5790   46.4820 C.2   327  SER327      0.2288
     77  O         38.9890   12.5830   46.1790 O.2   327  SER327     -0.2866
     78  CB        38.1540   15.3690   45.8950 C.3   327  SER327      0.2089
     79  OG        39.0000   15.4090   44.7300 O.3   327  SER327     -0.2183
     80  N         40.5440   13.1260   43.3660 N.3   329  GLU329     -0.1245
     81  CA        40.0490   12.6630   42.0310 C.3   329  GLU329      0.1567
     82  C         41.0930   12.9670   40.9910 C.2   329  GLU329      0.2260
     83  O         41.8600   13.9260   41.1360 O.2   329  GLU329     -0.2867
     84  CB        38.7850   13.4250   41.6140 C.3   329  GLU329      0.0388
     85  CG        37.4280   12.9660   42.1660 C.3   329  GLU329      0.1160
     86  CD        36.2490   13.8260   41.5550 C.2   329  GLU329      0.3649
     87  OE1       35.7280   13.4690   40.4450 O.co2 329  GLU329     -0.2457
     88  OE2       35.8800   14.8850   42.1630 O.co2 329  GLU329     -0.2457
     89  N         37.0240   14.7830   36.3900 N.3   332  SER332     -0.1202
     90  CA        35.6090   14.6620   36.6800 C.3   332  SER332      0.2020
     91  C         35.0950   13.3540   36.0400 C.2   332  SER332      0.2619
     92  O         35.6750   12.8440   35.0970 O.2   332  SER332     -0.2717
     93  CB        34.8790   15.8680   36.0770 C.3   332  SER332      0.2103
     94  OG        34.8980   15.6600   34.6720 O.3   332  SER332     -0.2182
     95  N         33.9730   12.8440   36.5110 N.am  333  LYS333     -0.1965
     96  CA        33.3370   11.7130   35.8340 C.3   333  LYS333      0.1728
     97  C         33.0110   11.9820   34.3680 C.2   333  LYS333      0.2616
     98  O         33.1710   11.1050   33.5400 O.2   333  LYS333     -0.2715
     99  CB        32.0620   11.2920   36.5880 C.3   333  LYS333      0.0311
    100  CG        31.3870    9.9930   36.0340 C.3   333  LYS333      0.0038
    101  CD        32.2230    8.7990   36.4380 C.3   333  LYS333      0.0206
    102  CE        32.0570    8.5840   37.9430 C.3   333  LYS333      0.1093
    103  NZ        32.8960    7.4290   38.3890 N.3   333  LYS333     -0.1314
    104  N         32.5880   13.2010   34.0400 N.am  334  GLN334     -0.1977
    105  CA        32.2410   13.6000   32.6750 C.3   334  GLN334      0.1601
    106  C         33.4220   13.3860   31.6750 C.2   334  GLN334      0.2287
    107  O         33.2210   13.1320   30.4840 O.2   334  GLN334     -0.2864
    108  CB        31.7750   15.0730   32.6440 C.3   334  GLN334      0.0394
    109  CG        30.3320   15.3150   33.1040 C.3   334  GLN334      0.0908
    110  CD        29.3740   14.4740   32.3000 C.2   334  GLN334      0.2608
    111  OE1       29.1930   13.2640   32.5950 O.2   334  GLN334     -0.2717
    112  NE2       28.8180   15.0590   31.2200 N.am  334  GLN334     -0.0878
@<TRIPOS>BOND
     1   107   106    2
     2    10     9    1
     3    11     9    1
     4   112   110   am
     5     9     8    2
     6   106   105    1
     7   110   111    2
     8   110   109    1
     9     8     7    1
    10   108   105    1
    11   108   109    1
    12   105   104    1
    13     7     6    1
    14    98    97    2
    15     5     6    1
    16     5     2    1
    17   104    97   am
    18    97    96    1
    19     2     1    1
    20     2     3    1
    21    30    31    1
    22    30    27    1
    23    94    93    1
    24    92    91    2
    25    31    32    1
    26    27    26    1
    27    27    28    1
    28    32    26    1
    29    96    95    1
    30    96    99    1
    31     3    12   am
    32     3     4    2
    33    20    21   ar
    34    20    18   ar
    35    12    13    1
    36   100   101    1
    37   100    99    1
    38    91    95   am
    39    91    90    1
    40    26    14   am
    41    93    90    1
    42    23    21   ar
    43    23    25   ar
    44    89    90    1
    45    29    28    2
    46    21    19   ar
    47   101   102    1
    48    18    17   ar
    49    28    33   am
    50    14    13    1
    51    14    15    2
    52    25    24   ar
    53    13    16    1
    54    17    19   ar
    55    17    16    1
    56    19    22   ar
    57    33    34    1
    58    24    22   ar
    59    39    37    1
    60   102   103    1
    61    34    37    1
    62    34    35    1
    63    37    38    1
    64    35    40   am
    65    35    36    2
    66    40    41    1
    67    56    55    1
    68    87    86   ar
    69    72    73   ar
    70    72    70   ar
    71    73    71   ar
    72    82    83    2
    73    82    81    1
    74    44    41    1
    75    44    45    1
    76    70    69   ar
    77    57    55    1
    78    41    42    1
    79    86    88   ar
    80    86    85    1
    81    43    42    2
    82    84    81    1
    83    84    85    1
    84    55    54    1
    85    71    69   ar
    86    81    80    1
    87    69    68    1
    88    54    51    1
    89    45    46   ar
    90    45    47   ar
    91    46    48   ar
    92    68    65    1
    93    47    49   ar
    94    51    52    1
    95    51    50    1
    96    53    52    2
    97    48    49   ar
    98    65    66    1
    99    65    64    1
   100    79    78    1
   101    67    66    2
   102    64    60   am
   103    78    75    1
   104    60    61    2
   105    60    59    1
   106    77    76    2
   107    62    59    1
   108    62    63    1
   109    76    75    1
   110    59    58    1
   111    75    74    1
