@<TRIPOS>MOLECULE
tmp/4klvA00.pdb
 128 123 0 0 0
SMALL
GASTEIGER

@<TRIPOS>ATOM
      1  N         10.2130   -4.8980  -17.5930 N.3    28  TYR28      -0.1227
      2  CA         9.4830   -5.2810  -16.3820 C.3    28  TYR28       0.1736
      3  C         10.3110   -6.1810  -15.5480 C.2    28  TYR28       0.2595
      4  O         10.1110   -6.1790  -14.3000 O.2    28  TYR28      -0.2718
      5  CB         8.2230   -6.0510  -16.7360 C.3    28  TYR28       0.0548
      6  CG         7.1600   -5.3380  -17.4820 C.ar   28  TYR28      -0.0200
      7  CD1        7.1160   -3.9720  -17.5300 C.ar   28  TYR28      -0.0009
      8  CD2        6.1790   -6.1050  -18.1850 C.ar   28  TYR28      -0.0009
      9  CE1        6.0800   -3.3130  -18.2870 C.ar   28  TYR28       0.0417
     10  CE2        5.1780   -5.4840  -18.8950 C.ar   28  TYR28       0.0417
     11  CZ         5.1570   -4.0970  -18.9650 C.ar   28  TYR28       0.1957
     12  OH         4.1400   -3.4940  -19.6920 O.3    28  TYR28      -0.2866
     13  N         11.2000   -6.9920  -16.0760 N.am   29  CYS29      -0.1970
     14  CA        12.0130   -7.9520  -15.3240 C.3    29  CYS29       0.1712
     15  C         13.4460   -7.5720  -15.1150 C.2    29  CYS29       0.2296
     16  O         14.1480   -8.2180  -14.3070 O.2    29  CYS29      -0.2864
     17  CB        11.9710   -9.3830  -15.9080 C.3    29  CYS29       0.0983
     18  SG        12.8700   -9.5730  -17.4550 S.3    29  CYS29      -0.0798
     19  N         15.0330   -3.7470  -15.5910 N.3    31  PRO31      -0.2116
     20  CA        14.9010   -2.4240  -16.2160 C.3    31  PRO31       0.1372
     21  C         16.2040   -1.7720  -16.6440 C.2    31  PRO31       0.2244
     22  O         16.1420   -0.9130  -17.5100 O.2    31  PRO31      -0.2868
     23  CB        14.1820   -1.5770  -15.1230 C.3    31  PRO31       0.0268
     24  CG        14.3810   -2.3500  -13.8380 C.3    31  PRO31       0.0207
     25  CD        14.4800   -3.8100  -14.2090 C.3    31  PRO31       0.0892
     26  N         24.1620  -10.6920   -8.4400 N.3    49  ARG49      -0.1245
     27  CA        22.9540  -11.0230   -7.6990 C.3    49  ARG49       0.1563
     28  C         23.1660  -12.3180   -6.9070 C.2    49  ARG49       0.2260
     29  O         24.2970  -12.8610   -6.8600 O.2    49  ARG49      -0.2867
     30  CB        21.7580  -11.0690   -8.6460 C.3    49  ARG49       0.0307
     31  CG        21.3890   -9.7210   -9.2260 C.3    49  ARG49       0.0489
     32  CD        20.2120   -9.8550  -10.1500 C.3    49  ARG49       0.2205
     33  NE        19.8260   -8.5790  -10.7330 N.pl3  49  ARG49      -0.0865
     34  CZ        18.5740   -8.2020  -10.9240 C.cat  49  ARG49       0.5346
     35  NH1       18.3030   -7.0190  -11.4690 N.pl3  49  ARG49       0.1354
     36  NH2       17.5890   -9.0280  -10.6260 N.pl3  49  ARG49       0.1354
     37  N         17.9360   -9.3760   -6.1300 N.3    68  TYR68      -0.1227
     38  CA        18.8500   -8.2310   -6.3470 C.3    68  TYR68       0.1736
     39  C         19.1350   -7.4100   -5.1200 C.2    68  TYR68       0.2595
     40  O         19.9890   -6.5410   -5.1850 O.2    68  TYR68      -0.2718
     41  CB        18.4770   -7.3130   -7.5200 C.3    68  TYR68       0.0548
     42  CG        17.2010   -6.5640   -7.3230 C.ar   68  TYR68      -0.0200
     43  CD1       17.1710   -5.2670   -6.8880 C.ar   68  TYR68      -0.0009
     44  CD2       16.0210   -7.1600   -7.7240 C.ar   68  TYR68      -0.0009
     45  CE1       15.9690   -4.5670   -6.7760 C.ar   68  TYR68       0.0417
     46  CE2       14.8270   -6.4740   -7.6250 C.ar   68  TYR68       0.0417
     47  CZ        14.8150   -5.1830   -7.1640 C.ar   68  TYR68       0.1957
     48  OH        13.6120   -4.4900   -7.1140 O.3    68  TYR68      -0.2866
     49  N         18.4110   -7.6840   -4.0030 N.am   69  GLN69      -0.1979
     50  CA        18.8150   -7.1910   -2.6640 C.3    69  GLN69       0.1601
     51  C         18.6530   -8.3810   -1.7600 C.2    69  GLN69       0.2287
     52  O         17.7560   -9.2130   -1.8660 O.2    69  GLN69      -0.2864
     53  CB        17.9380   -6.0310   -2.2350 C.3    69  GLN69       0.0394
     54  CG        17.9300   -4.8270   -3.1300 C.3    69  GLN69       0.0908
     55  CD        16.9670   -3.7450   -2.6950 C.2    69  GLN69       0.2608
     56  OE1       15.9500   -4.0030   -2.0910 O.2    69  GLN69      -0.2717
     57  NE2       17.2390   -2.5400   -3.1280 N.am   69  GLN69      -0.0878
     58  N         13.0860   -9.7820   -4.7720 N.3    78  LEU78      -0.1231
     59  CA        13.0130  -10.6310   -5.9720 C.3    78  LEU78       0.1693
     60  C         13.1770   -9.8610   -7.2320 C.2    78  LEU78       0.2593
     61  O         12.5590   -8.8190   -7.3980 O.2    78  LEU78      -0.2718
     62  CB        11.6620  -11.2740   -6.0380 C.3    78  LEU78       0.0284
     63  CG        11.4100  -12.3620   -7.0630 C.3    78  LEU78       0.0019
     64  CD1       12.1620  -13.6150   -6.6680 C.3    78  LEU78       0.0001
     65  CD2        9.9430  -12.7220   -7.0050 C.3    78  LEU78       0.0001
     66  N         13.9400  -10.4140   -8.1700 N.am   79  GLY79      -0.1942
     67  CA        14.0540   -9.7780   -9.4820 C.3    79  GLY79       0.2014
     68  C         14.2750  -10.8020  -10.5530 C.2    79  GLY79       0.2638
     69  O         14.3210  -11.9910  -10.3540 O.2    79  GLY79      -0.2714
     70  N         14.3930  -10.2420  -11.7750 N.am   80  ASN80      -0.1972
     71  CA        14.6250  -11.0360  -12.9910 C.3    80  ASN80       0.1688
     72  C         13.6410  -12.1920  -13.0990 C.2    80  ASN80       0.2292
     73  O         14.0100  -13.2700  -13.5980 O.2    80  ASN80      -0.2864
     74  CB        16.0500  -11.5710  -13.0450 C.3    80  ASN80       0.1181
     75  CG        17.1700  -10.5780  -13.3600 C.2    80  ASN80       0.2629
     76  OD1       18.3590  -10.9280  -13.1640 O.2    80  ASN80      -0.2716
     77  ND2       16.8510   -9.3880  -13.8680 N.am   80  ASN80      -0.0877
     78  N          9.0110   -5.4610   -6.3080 N.3   116  SER116     -0.1202
     79  CA         8.6150   -4.2580   -6.9990 C.3   116  SER116      0.2020
     80  C          8.1720   -4.5820   -8.4380 C.2   116  SER116      0.2619
     81  O          8.7580   -5.4160   -9.0680 O.2   116  SER116     -0.2717
     82  CB         9.7270   -3.2430   -7.0170 C.3   116  SER116      0.2103
     83  OG        10.0490   -2.8750   -5.6670 O.3   116  SER116     -0.2182
     84  N          7.1140   -3.9360   -8.8500 N.am  117  CYS117     -0.1955
     85  CA         6.4920   -4.2610  -10.1550 C.3   117  CYS117      0.1843
     86  C          6.1190   -2.9790  -10.8210 C.2   117  CYS117      0.2625
     87  O          5.4660   -2.1010  -10.2680 O.2   117  CYS117     -0.2714
     88  CB         5.2120   -5.1050   -9.8570 C.3   117  CYS117      0.0997
     89  SG         4.3820   -5.6740  -11.3190 S.3   117  CYS117     -0.0797
     90  N          6.4720   -2.8680  -12.1230 N.am  118  PHE118     -0.1974
     91  CA         6.0880   -1.6860  -12.8760 C.3   118  PHE118      0.1639
     92  C          4.5750   -1.6610  -13.1610 C.2   118  PHE118      0.2290
     93  O          3.9330   -2.6860  -13.2790 O.2   118  PHE118     -0.2864
     94  CB         6.8870   -1.6020  -14.1980 C.3   118  PHE118      0.0560
     95  CG         8.3110   -1.2110  -13.9510 C.ar  118  PHE118     -0.0200
     96  CD1        8.6360    0.1020  -13.6950 C.ar  118  PHE118     -0.0042
     97  CD2        9.3250   -2.1370  -13.9700 C.ar  118  PHE118     -0.0042
     98  CE1        9.9490    0.4750  -13.4510 C.ar  118  PHE118     -0.0003
     99  CE2       10.6170   -1.7660  -13.7240 C.ar  118  PHE118     -0.0003
    100  CZ        10.9560   -0.4850  -13.4640 C.ar  118  PHE118     -0.0000
    101  N          9.9340    6.0800  -11.8100 N.3   141  ARG141     -0.1245
    102  CA        11.0770    5.6620  -12.6040 C.3   141  ARG141      0.1563
    103  C         10.8380    6.1510  -14.0370 C.2   141  ARG141      0.2260
    104  O          9.8030    6.7160  -14.3670 O.2   141  ARG141     -0.2867
    105  CB        11.2580    4.1470  -12.5670 C.3   141  ARG141      0.0307
    106  CG        11.5840    3.5670  -11.2120 C.3   141  ARG141      0.0489
    107  CD        12.9670    3.9300  -10.7340 C.3   141  ARG141      0.2205
    108  NE        13.3250    3.2120   -9.5030 N.pl3 141  ARG141     -0.0865
    109  CZ        13.0980    3.6570   -8.3010 C.cat 141  ARG141      0.5346
    110  NH1       12.4900    4.7960   -8.1180 N.pl3 141  ARG141      0.1354
    111  NH2       13.5080    2.9340   -7.2540 N.pl3 141  ARG141      0.1354
    112  N          6.6930    2.5680  -10.2160 N.3   151  LEU151     -0.1245
    113  CA         7.1600    1.2990   -9.6890 C.3   151  LEU151      0.1561
    114  C          6.4140    1.0430   -8.3770 C.2   151  LEU151      0.2260
    115  O          6.5670    1.8050   -7.3940 O.2   151  LEU151     -0.2867
    116  CB         8.6700    1.3650   -9.4530 C.3   151  LEU151      0.0270
    117  CG         9.3150    0.0700   -8.9480 C.3   151  LEU151      0.0019
    118  CD1        9.1760   -1.0620   -9.9780 C.3   151  LEU151      0.0001
    119  CD2       10.7730    0.2970   -8.6320 C.3   151  LEU151      0.0001
    120  N          5.9300   -0.8020   -5.1180 N.3   153  GLN153     -0.1245
    121  CA         6.8080   -1.5190   -4.1900 C.3   153  GLN153      0.1566
    122  C          5.9380   -2.2890   -3.2230 C.2   153  GLN153      0.2260
    123  O          5.1810   -1.6590   -2.4340 O.2   153  GLN153     -0.2867
    124  CB         7.7400   -0.5010   -3.5250 C.3   153  GLN153      0.0367
    125  CG         8.5820    0.2530   -4.5590 C.3   153  GLN153      0.0905
    126  CD         9.3240    1.4590   -4.0180 C.2   153  GLN153      0.2608
    127  OE1        8.7290    2.3070   -3.3950 O.2   153  GLN153     -0.2717
    128  NE2       10.5600    1.6050   -4.3810 N.am  153  GLN153     -0.0878
@<TRIPOS>BOND
     1    12    11    1
     2    11    10   ar
     3    11     9   ar
     4    10     8   ar
     5     9     7   ar
     6     8     6   ar
     7     1     2    1
     8     7     6   ar
     9    22    21    2
    10     6     5    1
    11    18    17    1
    12     5     2    1
    13    21    20    1
    14     2     3    1
    15    20    19    1
    16    20    23    1
    17    13     3   am
    18    13    14    1
    19    17    14    1
    20    19    25    1
    21     3     4    2
    22    14    15    1
    23    23    24    1
    24    15    16    2
    25   104   103    2
    26    25    24    1
    27    94    95    1
    28    94    91    1
    29   103   102    1
    30    97    95   ar
    31    97    99   ar
    32    95    96   ar
    33    77    75   am
    34    99   100   ar
    35    96    98   ar
    36    73    72    2
    37   100    98   ar
    38    75    76    2
    39    75    74    1
    40    93    92    2
    41    92    91    1
    42    72    71    1
    43    74    71    1
    44    71    70    1
    45    91    90    1
    46   102   105    1
    47   102   101    1
    48   105   106    1
    49    90    86   am
    50    70    68   am
    51    35    34    1
    52    89    88    1
    53   106   107    1
    54    34    33    2
    55    34    36    1
    56    86    87    2
    57    86    85    1
    58   107   108    1
    59    33    32    1
    60    68    69    2
    61    68    67    1
    62   112   113    1
    63    85    88    1
    64    85    84    1
    65    32    31    1
    66   118   117    1
    67   113   116    1
    68   113   114    1
    69   108   109    2
    70    67    66    1
    71   116   117    1
    72    31    30    1
    73    81    80    2
    74   117   119    1
    75    84    80   am
    76    30    27    1
    77    26    27    1
    78    80    79    1
    79   114   115    2
    80   109   110    1
    81   109   111    1
    82    66    60   am
    83    44    46   ar
    84    44    42   ar
    85    27    28    1
    86    46    47   ar
    87    41    42    1
    88    41    38    1
    89    61    60    2
    90    42    43   ar
    91    60    59    1
    92    47    48    1
    93    47    45   ar
    94    63    65    1
    95    63    64    1
    96    63    62    1
    97    82    79    1
    98    82    83    1
    99    79    78    1
   100    28    29    2
   101    43    45   ar
   102    38    37    1
   103    38    39    1
   104    62    59    1
   105    59    58    1
   106    40    39    2
   107    39    49   am
   108   120   121    1
   109   125   126    1
   110   125   124    1
   111   128   126   am
   112   121   124    1
   113   121   122    1
   114   126   127    2
   115    49    50    1
   116   122   123    2
   117    54    55    1
   118    54    53    1
   119    57    55   am
   120    55    56    2
   121    50    53    1
   122    50    51    1
   123    52    51    2
