@<TRIPOS>MOLECULE
tmp/4klwA00.pdb
 139 137 0 0 0
SMALL
GASTEIGER

@<TRIPOS>ATOM
      1  N        -18.2570    4.6010   -2.1080 N.3    28  TYR28      -0.1227
      2  CA       -19.0130    4.9580   -3.2870 C.3    28  TYR28       0.1736
      3  C        -18.2970    5.9550   -4.1460 C.2    28  TYR28       0.2596
      4  O        -18.6580    6.0090   -5.3330 O.2    28  TYR28      -0.2718
      5  CB       -20.3900    5.4890   -2.9320 C.3    28  TYR28       0.0548
      6  CG       -21.2610    4.5940   -2.1230 C.ar   28  TYR28      -0.0200
      7  CD1      -21.1360    3.1930   -2.1910 C.ar   28  TYR28      -0.0009
      8  CD2      -22.1730    5.1120   -1.2480 C.ar   28  TYR28      -0.0009
      9  CE1      -21.9200    2.3490   -1.3620 C.ar   28  TYR28       0.0417
     10  CE2      -22.9850    4.2850   -0.4740 C.ar   28  TYR28       0.0417
     11  CZ       -22.8190    2.8950   -0.5000 C.ar   28  TYR28       0.1957
     12  OH       -23.5830    2.1450    0.3270 O.3    28  TYR28      -0.2866
     13  N        -17.3620    6.7450   -3.6010 N.am   29  CYS29      -0.1956
     14  CA       -16.6200    7.7100   -4.4210 C.3    29  CYS29       0.1843
     15  C        -15.1730    7.3820   -4.6360 C.2    29  CYS29       0.2625
     16  O        -14.5140    7.9910   -5.4880 O.2    29  CYS29      -0.2714
     17  CB       -16.7150    9.1460   -3.8320 C.3    29  CYS29       0.0997
     18  SG       -15.8530    9.3500   -2.2620 S.3    29  CYS29      -0.0797
     19  N        -14.6520    6.3720   -3.9430 N.am   30  TYR30      -0.1960
     20  CA       -13.2770    5.9820   -4.0390 C.3    30  TYR30       0.1756
     21  C        -13.0890    4.5960   -3.4930 C.2    30  TYR30       0.2461
     22  O        -12.5800    4.3900   -2.3950 O.2    30  TYR30      -0.2730
     23  CB       -12.3680    7.0260   -3.3540 C.3    30  TYR30       0.0574
     24  CG       -10.8850    6.8880   -3.6340 C.ar   30  TYR30      -0.0198
     25  CD1      -10.4000    5.9480   -4.5380 C.ar   30  TYR30      -0.0009
     26  CD2       -9.9870    7.7550   -3.0360 C.ar   30  TYR30      -0.0009
     27  CE1       -9.0800    5.8550   -4.8350 C.ar   30  TYR30       0.0417
     28  CE2       -8.5970    7.6290   -3.3120 C.ar   30  TYR30       0.0417
     29  CZ        -8.1710    6.6760   -4.2270 C.ar   30  TYR30       0.1957
     30  OH        -6.8560    6.5150   -4.5500 O.3    30  TYR30      -0.2866
     31  N        -13.5240    3.5780   -4.2520 N.am   31  PRO31      -0.2716
     32  CA       -13.6010    2.2280   -3.6690 C.3    31  PRO31       0.1536
     33  C        -12.2730    1.6390   -3.3110 C.2    31  PRO31       0.2598
     34  O        -12.2360    0.7200   -2.5010 O.2    31  PRO31      -0.2715
     35  CB       -14.3190    1.4000   -4.7450 C.3    31  PRO31       0.0310
     36  CG       -14.1880    2.1920   -6.0160 C.3    31  PRO31       0.0237
     37  CD       -14.2000    3.6370   -5.5590 C.3    31  PRO31       0.0939
     38  N        -11.1640    2.1020   -3.8890 N.am   32  LYS32      -0.1978
     39  CA        -9.8390    1.6260   -3.5140 C.3    32  LYS32       0.1596
     40  C         -9.3110    2.2380   -2.2120 C.2    32  LYS32       0.2287
     41  O         -8.3290    1.7360   -1.6400 O.2    32  LYS32      -0.2864
     42  CB        -8.8590    1.7670   -4.6350 C.3    32  LYS32       0.0298
     43  CG        -9.1370    0.9240   -5.8610 C.3    32  LYS32       0.0038
     44  CD        -7.8670    0.7530   -6.7040 C.3    32  LYS32       0.0206
     45  CE        -7.7680    1.7390   -7.8870 C.3    32  LYS32       0.1093
     46  NZ        -7.6830    3.1940   -7.5240 N.3    32  LYS32      -0.1314
     47  N         -4.2540   10.7200  -11.2540 N.3    49  ARG49      -0.1245
     48  CA        -5.4410   11.0370  -12.0480 C.3    49  ARG49       0.1563
     49  C         -5.2650   12.3270  -12.8340 C.2    49  ARG49       0.2260
     50  O         -4.1660   12.8680  -12.8930 O.2    49  ARG49      -0.2867
     51  CB        -6.6630   11.0410  -11.1380 C.3    49  ARG49       0.0307
     52  CG        -7.0090    9.6960  -10.5500 C.3    49  ARG49       0.0489
     53  CD        -8.2010    9.7690   -9.6660 C.3    49  ARG49       0.2205
     54  NE        -8.5510    8.4920   -9.0880 N.pl3  49  ARG49      -0.0865
     55  CZ        -9.7670    8.0470   -8.8350 C.cat  49  ARG49       0.5346
     56  NH1      -10.8120    8.7480   -9.1920 N.pl3  49  ARG49       0.1354
     57  NH2       -9.9080    6.8540   -8.2880 N.pl3  49  ARG49       0.1354
     58  N        -10.6210    9.3960  -13.5980 N.3    68  TYR68      -0.1241
     59  CA        -9.6970    8.2620  -13.3950 C.3    68  TYR68       0.1605
     60  C         -9.3650    7.4930  -14.6490 C.2    68  TYR68       0.2264
     61  O         -8.4900    6.6230  -14.6180 O.2    68  TYR68      -0.2867
     62  CB       -10.0620    7.3440  -12.2660 C.3    68  TYR68       0.0534
     63  CG       -11.3480    6.6240  -12.5350 C.ar   68  TYR68      -0.0201
     64  CD1      -11.3660    5.4190  -13.1800 C.ar   68  TYR68      -0.0009
     65  CD2      -12.5420    7.1370  -12.0950 C.ar   68  TYR68      -0.0009
     66  CE1      -12.5150    4.7580  -13.4290 C.ar   68  TYR68       0.0417
     67  CE2      -13.7370    6.4750  -12.3190 C.ar   68  TYR68       0.0417
     68  CZ       -13.7160    5.2760  -12.9730 C.ar   68  TYR68       0.1957
     69  OH       -14.9090    4.5890  -13.1940 O.3    68  TYR68      -0.2866
     70  N        -15.3590    9.7650  -15.0950 N.3    78  LEU78      -0.1231
     71  CA       -15.4490   10.6500  -13.9290 C.3    78  LEU78       0.1693
     72  C        -15.2750    9.8450  -12.6830 C.2    78  LEU78       0.2593
     73  O        -15.9250    8.8230  -12.5260 O.2    78  LEU78      -0.2718
     74  CB       -16.8400   11.2550  -13.8700 C.3    78  LEU78       0.0284
     75  CG       -17.0750   12.6070  -13.2030 C.3    78  LEU78       0.0019
     76  CD1      -15.8320   13.4570  -13.2690 C.3    78  LEU78       0.0001
     77  CD2      -18.1910   13.2660  -13.9840 C.3    78  LEU78       0.0001
     78  N        -14.5000   10.3800  -11.7310 N.am   79  GLY79      -0.1942
     79  CA       -14.2490    9.7710  -10.4720 C.3    79  GLY79       0.2014
     80  C        -14.2000   10.7300   -9.2970 C.2    79  GLY79       0.2639
     81  O        -14.1810   11.9370   -9.4790 O.2    79  GLY79      -0.2714
     82  N        -14.1310   10.1360   -8.1130 N.am   80  ASN80      -0.1958
     83  CA       -13.9210   10.8320   -6.8820 C.3    80  ASN80       0.1819
     84  C        -14.8960   11.9820   -6.6850 C.2    80  ASN80       0.2621
     85  O        -14.5150   13.0330   -6.1470 O.2    80  ASN80      -0.2715
     86  CB       -12.4850   11.3450   -6.7640 C.3    80  ASN80       0.1195
     87  CG       -11.3970   10.3140   -6.4600 C.2    80  ASN80       0.2630
     88  OD1      -10.2100   10.6300   -6.6550 O.2    80  ASN80      -0.2716
     89  ND2      -11.7270    9.1280   -5.9980 N.am   80  ASN80      -0.0877
     90  N        -16.1330   11.8210   -7.1060 N.am   81  MET81      -0.1977
     91  CA       -17.1600   12.8640   -6.9530 C.3    81  MET81       0.1605
     92  C        -17.6070   12.9770   -5.4790 C.2    81  MET81       0.2287
     93  O        -18.2380   12.0730   -4.9340 O.2    81  MET81      -0.2864
     94  CB       -18.3320   12.5520   -7.8670 C.3    81  MET81       0.0413
     95  CG       -19.4660   13.5770   -7.8910 C.3    81  MET81       0.0598
     96  SD       -19.1480   15.2010   -8.6550 S.3    81  MET81      -0.1393
     97  CE       -19.0190   16.0900   -7.1150 C.3    81  MET81       0.0692
     98  N        -19.3870    5.4750  -13.4290 N.3   116  SER116     -0.1202
     99  CA       -19.7010    4.2650  -12.7490 C.3   116  SER116      0.2020
    100  C        -20.2770    4.6040  -11.3510 C.2   116  SER116      0.2619
    101  O        -19.7420    5.4490  -10.6320 O.2   116  SER116     -0.2717
    102  CB       -18.5230    3.2880  -12.6710 C.3   116  SER116      0.2103
    103  OG       -18.1830    2.7880  -13.9860 O.3   116  SER116     -0.2182
    104  N        -21.3810    3.9610  -10.9890 N.am  117  CYS117     -0.1955
    105  CA       -22.0730    4.2500   -9.7440 C.3   117  CYS117      0.1843
    106  C        -22.4440    2.9630   -9.0320 C.2   117  CYS117      0.2625
    107  O        -23.0530    2.0800   -9.6160 O.2   117  CYS117     -0.2714
    108  CB       -23.3590    5.0540  -10.0940 C.3   117  CYS117      0.0997
    109  SG       -24.2140    5.6620   -8.6330 S.3   117  CYS117     -0.0797
    110  N        -22.0730    2.8670   -7.7700 N.am  118  PHE118     -0.1974
    111  CA       -22.4440    1.6980   -6.9800 C.3   118  PHE118      0.1639
    112  C        -23.9320    1.6490   -6.7200 C.2   118  PHE118      0.2290
    113  O        -24.6100    2.6700   -6.6000 O.2   118  PHE118     -0.2864
    114  CB       -21.6360    1.6650   -5.6440 C.3   118  PHE118      0.0560
    115  CG       -20.2370    1.2620   -5.8540 C.ar  118  PHE118     -0.0200
    116  CD1      -19.9340   -0.0660   -6.0100 C.ar  118  PHE118     -0.0042
    117  CD2      -19.2230    2.1590   -5.9280 C.ar  118  PHE118     -0.0042
    118  CE1      -18.6730   -0.4670   -6.2110 C.ar  118  PHE118     -0.0003
    119  CE2      -17.9380    1.7420   -6.1230 C.ar  118  PHE118     -0.0003
    120  CZ       -17.6430    0.4320   -6.2960 C.ar  118  PHE118     -0.0000
    121  N        -18.5310   -6.0460   -7.9560 N.3   141  ARG141     -0.1245
    122  CA       -17.4460   -5.5570   -7.1110 C.3   141  ARG141      0.1563
    123  C        -17.6840   -6.1310   -5.7150 C.2   141  ARG141      0.2260
    124  O        -18.6850   -6.7160   -5.4490 O.2   141  ARG141     -0.2867
    125  CB       -17.3620   -4.0400   -7.0820 C.3   141  ARG141      0.0307
    126  CG       -17.0450   -3.3880   -8.4350 C.3   141  ARG141      0.0489
    127  CD       -15.5830   -3.5570   -8.8010 C.3   141  ARG141      0.2205
    128  NE       -15.2300   -2.7470   -9.9580 N.pl3 141  ARG141     -0.0865
    129  CZ       -15.3130   -3.1890  -11.1860 C.cat 141  ARG141      0.5346
    130  NH1      -15.7500   -4.3990  -11.4390 N.pl3 141  ARG141      0.1354
    131  NH2      -14.9590   -2.4160  -12.1930 N.pl3 141  ARG141      0.1354
    132  N        -21.8300   -2.5570   -9.6610 N.3   151  LEU151     -0.1245
    133  CA       -21.3410   -1.2820  -10.1480 C.3   151  LEU151      0.1561
    134  C        -22.0480   -1.0360  -11.5000 C.2   151  LEU151      0.2260
    135  O        -21.8700   -1.7710  -12.4780 O.2   151  LEU151     -0.2867
    136  CB       -19.8310   -1.3430  -10.2970 C.3   151  LEU151      0.0270
    137  CG       -19.1650   -0.0680  -10.7290 C.3   151  LEU151      0.0019
    138  CD1      -19.3940    1.0560   -9.7260 C.3   151  LEU151      0.0001
    139  CD2      -17.6860   -0.2670  -11.0230 C.3   151  LEU151      0.0001
@<TRIPOS>BOND
     1    70    71    1
     2    60    61    2
     3    60    59    1
     4   103   102    1
     5    77    75    1
     6    71    74    1
     7    71    72    1
     8    74    75    1
     9    58    59    1
    10    66    64   ar
    11    66    68   ar
    12    98    99    1
    13    59    62    1
    14    76    75    1
    15    69    68    1
    16    64    63   ar
    17    68    67   ar
    18    50    49    2
    19    49    48    1
    20    99   102    1
    21    99   100    1
    22    72    73    2
    23    72    78   am
    24    63    62    1
    25    63    65   ar
    26   135   134    2
    27    67    65   ar
    28   131   129    1
    29    48    47    1
    30    48    51    1
    31    78    79    1
    32   134   133    1
    33   130   129    1
    34   100   104   am
    35   100   101    2
    36   129   128    2
    37    51    52    1
    38   139   137    1
    39   104   105    1
    40   137   136    1
    41   137   138    1
    42    52    53    1
    43    79    80    1
    44   136   133    1
    45   133   132    1
    46   108   105    1
    47   108   109    1
    48   128   127    1
    49   105   106    1
    50    53    54    1
    51   107   106    2
    52    81    80    2
    53    80    82   am
    54    56    55    1
    55    54    55    2
    56   106   110   am
    57    55    57    1
    58   127   126    1
    59    96    95    1
    60    96    97    1
    61   126   125    1
    62    82    83    1
    63   121   122    1
    64    95    94    1
    65    45    46    1
    66    45    44    1
    67    94    91    1
    68   110   111    1
    69   122   125    1
    70   122   123    1
    71    90    91    1
    72    90    84   am
    73   111   112    1
    74   111   114    1
    75    91    92    1
    76    83    86    1
    77    83    84    1
    78    86    87    1
    79   112   113    2
    80    44    43    1
    81    84    85    2
    82    88    87    2
    83    87    89   am
    84   120   118   ar
    85   120   119   ar
    86   118   116   ar
    87   119   117   ar
    88    36    37    1
    89    36    35    1
    90   116   115   ar
    91   117   115   ar
    92    43    42    1
    93   115   114    1
    94   123   124    2
    95    37    31    1
    96    16    15    2
    97    92    93    2
    98     4     3    2
    99    27    25   ar
   100    27    29   ar
   101    35    32    1
   102    15    14    1
   103    15    19   am
   104    42    39    1
   105    30    29    1
   106    25    24   ar
   107    14    17    1
   108    14    13    1
   109    31    32    1
   110    31    21   am
   111    29    28   ar
   112     3    13   am
   113     3     2    1
   114    20    19    1
   115    20    21    1
   116    20    23    1
   117    38    39    1
   118    38    33   am
   119    17    18    1
   120    32    33    1
   121    24    23    1
   122    24    26   ar
   123    39    40    1
   124    21    22    2
   125    28    26   ar
   126    33    34    2
   127     2     5    1
   128     2     1    1
   129     5     6    1
   130    40    41    2
   131     7     6   ar
   132     7     9   ar
   133     6     8   ar
   134     9    11   ar
   135     8    10   ar
   136    11    10   ar
   137    11    12    1
