@<TRIPOS>MOLECULE
tmp/4klzA00.pdb
 155 152 0 0 0
SMALL
GASTEIGER

@<TRIPOS>ATOM
      1  N         15.1930   10.9950    4.8470 N.3    10  GLY10      -0.1210
      2  CA        15.6030   10.7880    3.4580 C.3    10  GLY10       0.1956
      3  C         16.9110   10.0520    3.2540 C.2    10  GLY10       0.2612
      4  O         17.9500   10.3140    3.9380 O.2    10  GLY10      -0.2717
      5  N         16.8490    9.1120    2.3170 N.am   11  GLY11      -0.1942
      6  CA        18.0610    8.4600    1.8280 C.3    11  GLY11       0.2014
      7  C         18.7840    7.4250    2.6720 C.2    11  GLY11       0.2639
      8  O         19.8440    7.0340    2.3530 O.2    11  GLY11      -0.2714
      9  N         18.2290    6.9920    3.7560 N.am   12  VAL12      -0.1963
     10  CA        18.9050    6.0330    4.6750 C.3    12  VAL12       0.1727
     11  C         18.6560    4.5790    4.2280 C.2    12  VAL12       0.2617
     12  O         19.2810    3.7210    4.7750 O.2    12  VAL12      -0.2715
     13  CB        18.4210    6.1470    6.1640 C.3    12  VAL12       0.0290
     14  CG1       18.8400    7.4140    6.8090 C.3    12  VAL12       0.0023
     15  CG2       16.9000    6.1970    6.3270 C.3    12  VAL12       0.0023
     16  N         17.7200    4.3230    3.2990 N.am   13  GLY13      -0.1940
     17  CA        17.3430    2.9480    2.7970 C.3    13  GLY13       0.2014
     18  C         16.0010    2.3390    3.2400 C.2    13  GLY13       0.2639
     19  O         15.8870    1.1360    3.3190 O.2    13  GLY13      -0.2714
     20  N         14.9840    3.1500    3.5410 N.am   14  LYS14      -0.1963
     21  CA        13.7200    2.6230    3.9870 C.3    14  LYS14       0.1728
     22  C         13.0800    1.7810    2.8680 C.2    14  LYS14       0.2617
     23  O         12.5050    0.6860    3.0930 O.2    14  LYS14      -0.2715
     24  CB        12.7790    3.7340    4.3380 C.3    14  LYS14       0.0311
     25  CG        13.0420    4.4520    5.5760 C.3    14  LYS14       0.0038
     26  CD        12.0760    5.6230    5.6930 C.3    14  LYS14       0.0206
     27  CE        12.1160    6.7120    4.6220 C.3    14  LYS14       0.1093
     28  NZ        13.3950    7.5590    4.2630 N.3    14  LYS14      -0.1314
     29  N         13.1680    2.3390    1.6600 N.am   15  SER15      -0.1936
     30  CA        12.7260    1.7420    0.4300 C.3    15  SER15       0.2055
     31  C         13.4630    0.4650    0.0240 C.2    15  SER15       0.2642
     32  O         12.7710   -0.5050   -0.3660 O.2    15  SER15      -0.2714
     33  CB        12.7150    2.7690   -0.6910 C.3    15  SER15       0.2130
     34  OG        11.6430    3.6490   -0.5590 O.3    15  SER15      -0.2179
     35  N         14.8450    0.4800    0.0640 N.am   16  ALA16      -0.1977
     36  CA        15.6070   -0.6470   -0.3540 C.3    16  ALA16       0.1597
     37  C         15.2700   -1.7910    0.6610 C.2    16  ALA16       0.2287
     38  O         14.9920   -2.9480    0.2360 O.2    16  ALA16      -0.2864
     39  CB        17.1070   -0.3720   -0.5950 C.3    16  ALA16       0.0319
     40  N         16.5740   -5.0660   -4.6440 N.3    26  PHE26      -0.1228
     41  CA        17.1880   -3.8050   -4.1760 C.3    26  PHE26       0.1721
     42  C         16.8500   -2.7960   -5.3080 C.2    26  PHE26       0.2437
     43  O         17.1350   -3.1020   -6.5070 O.2    26  PHE26      -0.2733
     44  CB        18.7080   -4.0910   -3.9770 C.3    26  PHE26       0.0547
     45  CG        19.5460   -2.8880   -3.5730 C.ar   26  PHE26      -0.0202
     46  CD1       19.2150   -2.1120   -2.5280 C.ar   26  PHE26      -0.0042
     47  CD2       20.7020   -2.5200   -4.3010 C.ar   26  PHE26      -0.0042
     48  CE1       19.9860   -0.9270   -2.1320 C.ar   26  PHE26      -0.0003
     49  CE2       21.5220   -1.3770   -3.8510 C.ar   26  PHE26      -0.0003
     50  CZ        21.1040   -0.6080   -2.7670 C.ar   26  PHE26      -0.0000
     51  N         16.2200   -1.6210   -5.0140 N.am   27  PRO27      -0.2718
     52  CA        16.3430   -0.5360   -6.0710 C.3    27  PRO27       0.1535
     53  C         17.5860    0.4310   -5.9720 C.2    27  PRO27       0.2598
     54  O         17.6410    1.2350   -5.0950 O.2    27  PRO27      -0.2715
     55  CB        14.9900    0.2120   -5.9400 C.3    27  PRO27       0.0310
     56  CG        14.1890   -0.4480   -4.7200 C.3    27  PRO27       0.0237
     57  CD        15.3410   -1.1570   -3.9260 C.3    27  PRO27       0.0939
     58  N         18.5850    0.4270   -6.8370 N.am   28  GLU28      -0.1964
     59  CA        19.8350    1.2900   -6.5610 C.3    28  GLU28       0.1733
     60  C         19.5130    2.7100   -6.1060 C.2    28  GLU28       0.2616
     61  O         20.1160    3.2180   -5.1660 O.2    28  GLU28      -0.2715
     62  CB        20.7810    1.4490   -7.7700 C.3    28  GLU28       0.0429
     63  CG        22.1130    2.2600   -7.4720 C.3    28  GLU28       0.1163
     64  CD        22.6070    3.2190   -8.6730 C.2    28  GLU28       0.3649
     65  OE1       22.8760    2.6710   -9.7920 O.co2  28  GLU28      -0.2457
     66  OE2       22.6850    4.4810   -8.4990 O.co2  28  GLU28      -0.2457
     67  N         18.5950    3.4000   -6.7920 N.am   29  ASP29      -0.1957
     68  CA        18.1130    4.7240   -6.3170 C.3    29  ASP29       0.1840
     69  C         16.6890    4.9070   -6.8300 C.2    29  ASP29       0.2622
     70  O         16.4760    5.0270   -8.0350 O.2    29  ASP29      -0.2715
     71  CB        19.1400    5.8510   -6.7030 C.3    29  ASP29       0.1450
     72  CG        19.5600    5.8250   -8.2270 C.2    29  ASP29       0.3671
     73  OD1       18.7140    5.4820   -9.0960 O.co2  29  ASP29      -0.2456
     74  OD2       20.7450    6.1420   -8.5620 O.co2  29  ASP29      -0.2456
     75  N         15.7210    4.9170   -5.9100 N.am   30  HIS30      -0.1973
     76  CA        14.2580    4.8200   -6.2270 C.3    30  HIS30       0.1656
     77  C         13.4010    6.1580   -6.0790 C.2    30  HIS30       0.2291
     78  O         13.6080    6.9120   -5.1210 O.2    30  HIS30      -0.2864
     79  CB        13.6870    3.5840   -5.3920 C.3    30  HIS30       0.0771
     80  CG        12.2910    3.7360   -4.8320 C.ar   30  HIS30       0.0820
     81  ND1       11.2520    2.8880   -5.1780 N.ar   30  HIS30      -0.2267
     82  CD2       11.7710    4.6090   -3.9330 C.ar   30  HIS30       0.1154
     83  CE1       10.1670    3.2130   -4.4900 C.ar   30  HIS30       0.1986
     84  NE2       10.4480    4.2680   -3.7460 N.ar   30  HIS30      -0.2212
     85  N         12.1180    9.2250   -5.0470 N.3    32  PRO32      -0.2168
     86  CA        12.2090    9.3830   -3.6050 C.3    32  PRO32       0.1057
     87  C         10.9390    9.9190   -2.9800 C.3    32  PRO32       0.1993
     88  O         10.7200    9.7910   -1.7160 O.3    32  PRO32      -0.2189
     89  CB        13.3780   10.4000   -3.4340 C.3    32  PRO32       0.0215
     90  CG        13.3350   11.2660   -4.6660 C.3    32  PRO32       0.0203
     91  CD        12.9230   10.2270   -5.7730 C.3    32  PRO32       0.0888
     92  N          5.7370    2.9120    3.2770 N.3    55  ASP55      -0.1225
     93  CA         7.0940    3.3110    3.0190 C.3    55  ASP55       0.1805
     94  C          7.0610    4.7920    2.8880 C.2    55  ASP55       0.2598
     95  O          6.6690    5.3000    1.8600 O.2    55  ASP55      -0.2718
     96  CB         7.6110    2.6990    1.7120 C.3    55  ASP55       0.1424
     97  CG         9.0040    3.0480    1.4250 C.2    55  ASP55       0.3668
     98  OD1        9.6280    3.5380    2.3750 O.co2  55  ASP55      -0.2456
     99  OD2        9.5550    2.8440    0.3110 O.co2  55  ASP55      -0.2456
    100  N          7.5130    5.5020    3.9130 N.am   56  THR56      -0.1953
    101  CA         7.2980    6.9440    3.8990 C.3    56  THR56       0.1897
    102  C          8.3750    7.7870    3.2150 C.2    56  THR56       0.2313
    103  O          9.5040    7.3880    3.0890 O.2    56  THR56      -0.2863
    104  CB         7.1290    7.5180    5.2850 C.3    56  THR56       0.1794
    105  OG1        8.3570    7.4070    5.9970 O.3    56  THR56      -0.2208
    106  CG2        6.0210    6.8670    6.0620 C.3    56  THR56       0.0378
    107  N         20.7410    1.1780    9.1230 N.3   105  ASN105     -0.1225
    108  CA        20.9330    0.6220    7.7600 C.3   105  ASN105      0.1785
    109  C         22.3100    1.0380    7.2020 C.2   105  ASN105      0.2597
    110  O         23.0680    1.8200    7.8620 O.2   105  ASN105     -0.2718
    111  CB        19.7500    0.9030    6.8410 C.3   105  ASN105      0.1169
    112  CG        19.7820    0.0480    5.5240 C.2   105  ASN105      0.2627
    113  OD1       19.9360   -1.1460    5.5990 O.2   105  ASN105     -0.2716
    114  ND2       19.7430    0.7280    4.3160 N.am  105  ASN105     -0.0877
    115  N         22.7240    0.3140    6.1950 N.am  106  LYS106     -0.1980
    116  CA        24.0350    0.4050    5.5050 C.3   106  LYS106      0.1596
    117  C         25.2000   -0.1320    6.2230 C.2   106  LYS106      0.2287
    118  O         26.2840    0.3060    6.0080 O.2   106  LYS106     -0.2864
    119  CB        24.3540    1.8550    5.0080 C.3   106  LYS106      0.0298
    120  CG        23.0970    2.5840    4.3430 C.3   106  LYS106      0.0038
    121  CD        23.3640    3.7610    3.4260 C.3   106  LYS106      0.0206
    122  CE        22.0580    4.4290    3.0050 C.3   106  LYS106      0.1093
    123  NZ        22.0950    5.5850    2.1730 N.3   106  LYS106     -0.1314
    124  N         27.0170   -2.2330    5.5860 N.3   108  ASP108     -0.1225
    125  CA        28.1380   -2.6030    4.5910 C.3   108  ASP108      0.1805
    126  C         29.1690   -1.4270    4.3520 C.2   108  ASP108      0.2597
    127  O         30.2990   -1.6280    3.9420 O.2   108  ASP108     -0.2718
    128  CB        27.5410   -3.0910    3.2580 C.3   108  ASP108      0.1424
    129  CG        26.7620   -2.0930    2.5990 C.2   108  ASP108      0.3668
    130  OD1       25.6210   -1.8020    3.0390 O.co2 108  ASP108     -0.2456
    131  OD2       27.2930   -1.5770    1.5970 O.co2 108  ASP108     -0.2456
    132  N         28.7540   -0.1950    4.6440 N.am  109  LEU109     -0.1979
    133  CA        29.5950    1.0130    4.5470 C.3   109  LEU109      0.1596
    134  C         30.3350    1.1880    5.7970 C.2   109  LEU109      0.2287
    135  O         30.3300    2.1830    6.3480 O.2   109  LEU109     -0.2864
    136  CB        28.7370    2.2120    4.1860 C.3   109  LEU109      0.0297
    137  CG        27.7190    1.9530    3.0580 C.3   109  LEU109      0.0022
    138  CD1       26.9330    3.1410    2.5450 C.3   109  LEU109      0.0001
    139  CD2       28.4120    1.2910    1.9070 C.3   109  LEU109      0.0001
    140  N         22.1940   -4.1380    6.2510 N.3   135  SER135     -0.1202
    141  CA        22.5430   -3.6790    4.8960 C.3   135  SER135      0.2020
    142  C         21.4320   -4.1350    3.9520 C.2   135  SER135      0.2619
    143  O         21.4050   -5.2390    3.5610 O.2   135  SER135     -0.2717
    144  CB        23.8720   -4.2880    4.3930 C.3   135  SER135      0.2103
    145  OG        24.2670   -3.6750    3.1500 O.3   135  SER135     -0.2182
    146  N         20.5150   -3.2750    3.5650 N.am  136  ALA136     -0.1965
    147  CA        19.5960   -3.5540    2.4250 C.3   136  ALA136      0.1728
    148  C         20.2950   -3.9450    1.0940 C.2   136  ALA136      0.2616
    149  O         19.6900   -4.6400    0.2220 O.2   136  ALA136     -0.2715
    150  CB        18.7310   -2.3250    2.2170 C.3   136  ALA136      0.0334
    151  N         21.5450   -3.4490    0.9200 N.am  137  ALA137     -0.1977
    152  CA        22.2720   -3.6510   -0.3090 C.3   137  ALA137      0.1597
    153  C         22.4710   -5.0760   -0.5270 C.2   137  ALA137      0.2287
    154  O         22.5570   -5.4460   -1.6010 O.2   137  ALA137     -0.2864
    155  CB        23.6380   -2.8830   -0.4050 C.3   137  ALA137      0.0319
@<TRIPOS>BOND
     1    65    64   ar
     2    73    72   ar
     3    64    66   ar
     4    64    63    1
     5    74    72   ar
     6    72    71    1
     7    70    69    2
     8    62    63    1
     9    62    59    1
    10    58    59    1
    11    58    53   am
    12    69    68    1
    13    69    75   am
    14    67    68    1
    15    67    60   am
    16    71    68    1
    17    59    60    1
    18    43    42    2
    19    76    77    1
    20    76    75    1
    21    76    79    1
    22    60    61    2
    23    77    78    2
    24    52    53    1
    25    52    55    1
    26    52    51    1
    27    53    54    2
    28    55    56    1
    29    91    85    1
    30    91    90    1
    31    79    80    1
    32    42    51   am
    33    42    41    1
    34    81    80   ar
    35    81    83   ar
    36    85    86    1
    37    51    57    1
    38    80    82   ar
    39    56    57    1
    40    90    89    1
    41    40    41    1
    42    83    84   ar
    43    47    49   ar
    44    47    45   ar
    45    41    44    1
    46    44    45    1
    47    82    84   ar
    48    49    50   ar
    49    86    89    1
    50    86    87    1
    51    45    46   ar
    52    87    88    1
    53    50    48   ar
    54    46    48   ar
    55   154   153    2
    56    33    34    1
    57    33    30    1
    58    39    36    1
    59   153   152    1
    60   155   152    1
    61    32    31    2
    62    36    35    1
    63    36    37    1
    64   152   151    1
    65    31    35   am
    66    31    30    1
    67   149   148    2
    68    38    37    2
    69    99    97   ar
    70    30    29    1
    71   151   148   am
    72   148   147    1
    73    97    96    1
    74    97    98   ar
    75   131   129   ar
    76    29    22   am
    77    96    93    1
    78     6     5    1
    79     6     7    1
    80    95    94    2
    81   139   137    1
    82   123   122    1
    83   150   147    1
    84     5     3   am
    85     8     7    2
    86   147   146    1
    87   138   137    1
    88   129   130   ar
    89   129   128    1
    90     7     9   am
    91    17    18    1
    92    17    16    1
    93    22    23    2
    94    22    21    1
    95    94    93    1
    96    94   100   am
    97   122   121    1
    98    93    92    1
    99   137   136    1
   100   103   102    2
   101   145   144    1
   102   102   101    1
   103    18    19    2
   104    18    20   am
   105     3     2    1
   106     3     4    2
   107   128   125    1
   108    16    11   am
   109   121   120    1
   110     2     1    1
   111    20    21    1
   112   143   142    2
   113   146   142   am
   114     9    10    1
   115   101   100    1
   116   101   104    1
   117   127   126    2
   118   142   141    1
   119    21    24    1
   120   136   133    1
   121    11    10    1
   122    11    12    2
   123    28    27    1
   124   114   112   am
   125    24    25    1
   126   120   119    1
   127   126   125    1
   128   126   132   am
   129   144   141    1
   130   133   132    1
   131   133   134    1
   132   125   124    1
   133    27    26    1
   134    10    13    1
   135   141   140    1
   136   119   116    1
   137   104   105    1
   138   104   106    1
   139   116   115    1
   140   116   117    1
   141   112   113    2
   142   112   111    1
   143    25    26    1
   144   134   135    2
   145   118   117    2
   146    13    15    1
   147    13    14    1
   148   115   109   am
   149   111   108    1
   150   109   108    1
   151   109   110    2
   152   108   107    1
