@<TRIPOS>MOLECULE
tmp/4km0B00.pdb
 142 136 0 0 0
SMALL
GASTEIGER

@<TRIPOS>ATOM
      1  N          8.6360   22.5520   34.2720 N.3     7  ILE7       -0.1231
      2  CA         9.7170   23.1120   35.0920 C.3     7  ILE7        0.1692
      3  C          9.0710   24.0420   36.1080 C.2     7  ILE7        0.2592
      4  O          8.1970   24.8490   35.7590 O.2     7  ILE7       -0.2718
      5  CB        10.7680   23.7710   34.2590 C.3     7  ILE7        0.0266
      6  CG1       11.8970   24.4040   35.1260 C.3     7  ILE7        0.0019
      7  CG2       10.2170   24.8420   33.3320 C.3     7  ILE7        0.0020
      8  CD1       13.1660   24.6280   34.3630 C.3     7  ILE7        0.0001
      9  N          9.4580   23.8440   37.3890 N.am    8  TRP8       -0.1962
     10  CA         8.9740   24.7430   38.4380 C.3     8  TRP8        0.1771
     11  C          9.9330   24.7930   39.5830 C.2     8  TRP8        0.2619
     12  O         10.8530   23.9590   39.6600 O.2     8  TRP8       -0.2715
     13  CB         7.5660   24.4020   38.9780 C.3     8  TRP8        0.0590
     14  CG         7.5180   23.1070   39.7800 C.ar    8  TRP8        0.0006
     15  CD1        7.6220   22.9800   41.1440 C.ar    8  TRP8        0.0946
     16  CD2        7.2260   21.7590   39.2830 C.ar    8  TRP8        0.0152
     17  NE1        7.4880   21.6490   41.5260 N.ar    8  TRP8       -0.2442
     18  CE2        7.1750   20.8880   40.4460 C.ar    8  TRP8        0.0810
     19  CE3        6.9460   21.1820   37.9980 C.ar    8  TRP8        0.0012
     20  CZ2        6.9360   19.4720   40.3380 C.ar    8  TRP8        0.0191
     21  CZ3        6.7430   19.7990   37.9200 C.ar    8  TRP8        0.0001
     22  CH2        6.6870   18.9750   39.0670 C.ar    8  TRP8        0.0015
     23  N          9.7550   25.7640   40.4780 N.am    9  ALA9       -0.1977
     24  CA        10.5270   25.8960   41.7340 C.3     9  ALA9        0.1597
     25  C          9.5080   25.8460   42.8570 C.2     9  ALA9        0.2287
     26  O          8.5000   26.5290   42.8650 O.2     9  ALA9       -0.2864
     27  CB        11.2960   27.2020   41.7600 C.3     9  ALA9        0.0319
     28  N          6.9750   34.3310   43.3610 N.3    22  ILE22      -0.1245
     29  CA         7.7830   33.2240   43.8650 C.3    22  ILE22       0.1561
     30  C          8.2030   33.7640   45.2350 C.2    22  ILE22       0.2260
     31  O          8.7960   34.8600   45.2910 O.2    22  ILE22      -0.2867
     32  CB         8.9650   32.8920   42.9210 C.3    22  ILE22       0.0252
     33  CG1        8.4180   32.2340   41.6220 C.3    22  ILE22       0.0019
     34  CG2        9.9950   32.0900   43.6970 C.3    22  ILE22       0.0019
     35  CD1        9.4720   32.1320   40.4920 C.3    22  ILE22       0.0001
     36  N         18.3230   29.7510   40.5980 N.3    29  ASP29      -0.1225
     37  CA        17.1680   29.1360   39.9590 C.3    29  ASP29       0.1805
     38  C         16.8840   29.8480   38.6480 C.2    29  ASP29       0.2597
     39  O         16.4940   29.1830   37.6530 O.2    29  ASP29      -0.2718
     40  CB        15.9060   29.1460   40.8910 C.3    29  ASP29       0.1424
     41  CG        14.6840   28.6060   40.1630 C.2    29  ASP29       0.3668
     42  OD1       14.6980   27.4110   39.8010 O.co2  29  ASP29      -0.2456
     43  OD2       13.7950   29.4300   39.8740 O.co2  29  ASP29      -0.2456
     44  N         17.0920   31.1820   38.5800 N.am   30  GLN30      -0.1979
     45  CA        16.9890   31.9010   37.2820 C.3    30  GLN30       0.1601
     46  C         17.9610   31.3430   36.2980 C.2    30  GLN30       0.2287
     47  O         17.6300   31.0730   35.1250 O.2    30  GLN30      -0.2864
     48  CB        17.2280   33.4010   37.3860 C.3    30  GLN30       0.0394
     49  CG        17.1470   34.0910   35.9850 C.3    30  GLN30       0.0908
     50  CD        15.7800   33.8550   35.2370 C.2    30  GLN30       0.2608
     51  OE1       15.6490   33.0160   34.2550 O.2    30  GLN30      -0.2717
     52  NE2       14.7250   34.4660   35.7980 N.am   30  GLN30      -0.0878
     53  N         19.3570   28.2740   36.2600 N.3    32  HIS32      -0.1226
     54  CA        18.9880   26.9290   35.9020 C.3    32  HIS32       0.1752
     55  C         17.7690   26.9230   34.9550 C.2    32  HIS32       0.2596
     56  O         17.6650   26.1220   34.0210 O.2    32  HIS32      -0.2718
     57  CB        18.6080   26.2590   37.1990 C.3    32  HIS32       0.0759
     58  CG        18.1230   24.9230   37.0130 C.ar   32  HIS32       0.0818
     59  ND1       18.8570   23.9140   36.4840 N.ar   32  HIS32      -0.2268
     60  CD2       16.8940   24.4280   37.3060 C.ar   32  HIS32       0.1154
     61  CE1       18.0950   22.8150   36.4700 C.ar   32  HIS32       0.1986
     62  NE2       16.8740   23.1790   36.9230 N.ar   32  HIS32      -0.2212
     63  N         16.7970   27.8270   35.1980 N.am   33  PHE33      -0.1976
     64  CA        15.6420   27.8850   34.3000 C.3    33  PHE33       0.1639
     65  C         16.0920   28.2180   32.8840 C.2    33  PHE33       0.2290
     66  O         15.5950   27.6280   31.9220 O.2    33  PHE33      -0.2864
     67  CB        14.7030   28.9900   34.8750 C.3    33  PHE33       0.0560
     68  CG        13.4870   29.2690   33.9930 C.ar   33  PHE33      -0.0200
     69  CD1       12.3460   28.4180   33.9940 C.ar   33  PHE33      -0.0042
     70  CD2       13.4720   30.3960   33.1570 C.ar   33  PHE33      -0.0042
     71  CE1       11.2430   28.6780   33.1550 C.ar   33  PHE33      -0.0003
     72  CE2       12.3990   30.6090   32.3460 C.ar   33  PHE33      -0.0003
     73  CZ        11.3070   29.7950   32.3410 C.ar   33  PHE33      -0.0000
     74  N         -0.1870   33.7350   33.5490 N.3    48  THR48      -0.1218
     75  CA         1.2460   33.8070   33.7460 C.3    48  THR48       0.1862
     76  C          1.8620   34.8390   32.8130 C.2    48  THR48       0.2287
     77  O          2.6940   35.6670   33.2100 O.2    48  THR48      -0.2866
     78  CB         1.8910   32.3870   33.5180 C.3    48  THR48       0.1770
     79  OG1        1.4570   31.5720   34.6320 O.3    48  THR48      -0.2211
     80  CG2        3.4070   32.4850   33.5460 C.3    48  THR48       0.0375
     81  N          1.2310   38.2590   34.0180 N.3    51  SER51      -0.1202
     82  CA         1.9460   38.5830   35.2870 C.3    51  SER51       0.2020
     83  C          3.3520   39.0130   35.0100 C.2    51  SER51       0.2618
     84  O          4.0510   39.6100   35.8800 O.2    51  SER51      -0.2717
     85  CB         1.9180   37.4100   36.2470 C.3    51  SER51       0.2103
     86  OG         2.7840   36.3840   35.8270 O.3    51  SER51      -0.2182
     87  N          3.8820   38.6660   33.8200 N.am   52  LEU52      -0.1979
     88  CA         5.2800   39.1330   33.4600 C.3    52  LEU52       0.1596
     89  C          5.2580   40.6130   33.1410 C.2    52  LEU52       0.2287
     90  O          4.3460   41.0670   32.4350 O.2    52  LEU52      -0.2864
     91  CB         5.7980   38.4200   32.2190 C.3    52  LEU52       0.0297
     92  CG         6.2130   36.9730   32.5320 C.3    52  LEU52       0.0022
     93  CD1        6.4240   36.2670   31.1590 C.3    52  LEU52       0.0001
     94  CD2        7.5070   36.9280   33.3630 C.3    52  LEU52       0.0001
     95  N          9.9440   36.1350   26.8520 N.3    59  LEU59      -0.1245
     96  CA        11.2920   35.8320   27.3820 C.3    59  LEU59       0.1561
     97  C         12.1880   35.5780   26.1590 C.2    59  LEU59       0.2260
     98  O         11.8410   34.8040   25.2190 O.2    59  LEU59      -0.2867
     99  CB        11.2440   34.6010   28.2890 C.3    59  LEU59       0.0270
    100  CG        10.2920   34.7420   29.4670 C.3    59  LEU59       0.0019
    101  CD1       10.4930   33.5520   30.4680 C.3    59  LEU59       0.0001
    102  CD2       10.4160   36.0460   30.2010 C.3    59  LEU59       0.0001
    103  N          5.8490   26.3150   31.8710 N.3    96  ILE96      -0.1231
    104  CA         6.4720   27.1230   32.9120 C.3    96  ILE96       0.1692
    105  C          5.4230   27.6520   33.8960 C.2    96  ILE96       0.2592
    106  O          5.8380   28.3360   34.8380 O.2    96  ILE96      -0.2718
    107  CB         7.3190   28.2190   32.2930 C.3    96  ILE96       0.0266
    108  CG1        6.4330   29.3530   31.7240 C.3    96  ILE96       0.0019
    109  CG2        8.3150   27.6260   31.3080 C.3    96  ILE96       0.0020
    110  CD1        7.2460   30.5880   31.2180 C.3    96  ILE96       0.0001
    111  N          4.1240   27.3770   33.6950 N.am   97  GLY97      -0.1957
    112  CA         3.0690   27.8230   34.6530 C.3    97  GLY97       0.1869
    113  C          1.8330   28.1900   33.8850 C.2    97  GLY97       0.2309
    114  O          1.8810   28.2750   32.6540 O.2    97  GLY97      -0.2863
    115  N         -0.2480   23.5550   34.2130 N.3   102  TYR102     -0.1241
    116  CA         0.4220   22.3290   34.7060 C.3   102  TYR102      0.1605
    117  C         -0.5680   21.1700   34.8060 C.2   102  TYR102      0.2264
    118  O         -0.2060   20.0150   34.4710 O.2   102  TYR102     -0.2867
    119  CB         1.0490   22.5240   36.0880 C.3   102  TYR102      0.0534
    120  CG         2.2790   23.4020   36.1660 C.ar  102  TYR102     -0.0201
    121  CD1        3.3800   23.2300   35.3320 C.ar  102  TYR102     -0.0009
    122  CD2        2.3610   24.3520   37.1210 C.ar  102  TYR102     -0.0009
    123  CE1        4.4830   24.0060   35.4380 C.ar  102  TYR102      0.0417
    124  CE2        3.5250   25.1300   37.2340 C.ar  102  TYR102      0.0417
    125  CZ         4.5640   24.9470   36.3650 C.ar  102  TYR102      0.1957
    126  OH         5.6950   25.7180   36.5190 O.3   102  TYR102     -0.2866
    127  N         11.8080   19.2350   35.5820 N.3   113  GLU113     -0.1245
    128  CA        13.0050   19.8450   36.1590 C.3   113  GLU113      0.1567
    129  C         12.4760   20.6720   37.2950 C.2   113  GLU113      0.2260
    130  O         11.7390   21.6690   37.0630 O.2   113  GLU113     -0.2867
    131  CB        13.7040   20.6890   35.1340 C.3   113  GLU113      0.0388
    132  CG        14.3460   19.7620   34.1170 C.3   113  GLU113      0.1160
    133  CD        15.5980   18.9440   34.5690 C.2   113  GLU113      0.3649
    134  OE1       16.2540   19.3310   35.5310 O.co2 113  GLU113     -0.2457
    135  OE2       15.8520   17.9060   33.9400 O.co2 113  GLU113     -0.2457
    136  N         13.2840   22.8170   41.0430 N.3   115  THR115     -0.1218
    137  CA        14.1980   23.3200   42.0790 C.3   115  THR115      0.1862
    138  C         13.3890   23.2390   43.3650 C.2   115  THR115      0.2287
    139  O         12.2670   23.7420   43.4710 O.2   115  THR115     -0.2866
    140  CB        14.4730   24.8010   41.7650 C.3   115  THR115      0.1770
    141  OG1       15.0580   24.8410   40.4580 O.3   115  THR115     -0.2211
    142  CG2       15.4430   25.3650   42.8530 C.3   115  THR115      0.0375
@<TRIPOS>BOND
     1    98    97    2
     2    97    96    1
     3    95    96    1
     4    96    99    1
     5    99   100    1
     6   100   102    1
     7   100   101    1
     8    93    92    1
     9   110   108    1
    10   109   107    1
    11   108   107    1
    12   103   104    1
    13    66    65    2
    14    91    92    1
    15    91    88    1
    16   107   104    1
    17    73    72   ar
    18    73    71   ar
    19    72    70   ar
    20    90    89    2
    21    92    94    1
    22   114   113    2
    23    76    77    2
    24    76    75    1
    25    65    64    1
    26   104   105    1
    27    89    88    1
    28    71    69   ar
    29    70    68   ar
    30     7     5    1
    31    88    87    1
    32    78    80    1
    33    78    75    1
    34    78    79    1
    35    74    75    1
    36   111   105   am
    37   111   112    1
    38    87    83   am
    39   113   112    1
    40   105   106    2
    41   135   133   ar
    42    68    69   ar
    43    68    67    1
    44    81    82    1
    45    56    55    2
    46   132   133    1
    47   132   131    1
    48   115   116    1
    49    51    50    2
    50     5     2    1
    51     5     6    1
    52     1     2    1
    53    64    67    1
    54    64    63    1
    55     8     6    1
    56   118   117    2
    57   133   134   ar
    58   116   117    1
    59   116   119    1
    60    55    63   am
    61    55    54    1
    62    83    82    1
    63    83    84    2
    64     2     3    1
    65    47    46    2
    66   131   128    1
    67    50    52   am
    68    50    49    1
    69    82    85    1
    70   121   123   ar
    71   121   120   ar
    72   123   125   ar
    73   127   128    1
    74     4     3    2
    75    86    85    1
    76    54    53    1
    77    54    57    1
    78    49    48    1
    79   119   120    1
    80     3     9   am
    81   128   129    1
    82   120   122   ar
    83    46    45    1
    84   125   126    1
    85   125   124   ar
    86    61    59   ar
    87    61    62   ar
    88    59    58   ar
    89    62    60   ar
    90    58    57    1
    91    58    60   ar
    92   130   129    2
    93   122   124   ar
    94    45    48    1
    95    45    44    1
    96     9    10    1
    97    39    38    2
    98    21    19   ar
    99    21    22   ar
   100    19    16   ar
   101    10    13    1
   102    10    11    1
   103    44    38   am
   104    38    37    1
   105    13    14    1
   106    22    20   ar
   107    16    14   ar
   108    16    18   ar
   109    11    12    2
   110    11    23   am
   111    14    15   ar
   112    42    41   ar
   113    43    41   ar
   114    37    36    1
   115    37    40    1
   116    41    40    1
   117    20    18   ar
   118    18    17   ar
   119   141   140    1
   120    23    24    1
   121    35    33    1
   122   136   137    1
   123    15    17   ar
   124    33    32    1
   125    24    27    1
   126    24    25    1
   127   140   137    1
   128   140   142    1
   129   137   138    1
   130    25    26    2
   131    32    34    1
   132    32    29    1
   133    28    29    1
   134   138   139    2
   135    29    30    1
   136    30    31    2
