@<TRIPOS>MOLECULE
tmp/4km2A00.pdb
 117 112 0 0 0
SMALL
GASTEIGER

@<TRIPOS>ATOM
      1  N         14.2630   -5.5020   11.1350 N.3    43  GLY43      -0.1210
      2  CA        13.6750   -6.8210   10.8130 C.3    43  GLY43       0.1956
      3  C         12.1880   -6.7690   10.5430 C.2    43  GLY43       0.2612
      4  O         11.4710   -5.9170   11.0690 O.2    43  GLY43      -0.2717
      5  N         11.6600   -7.7180    9.7940 N.am   44  ARG44      -0.1965
      6  CA        10.2300   -7.7680    9.5280 C.3    44  ARG44       0.1729
      7  C          9.3640   -7.8870   10.8060 C.2    44  ARG44       0.2616
      8  O          8.3230   -7.2280   10.8860 O.2    44  ARG44      -0.2715
      9  CB         9.9470   -8.9340    8.5350 C.3    44  ARG44       0.0348
     10  CG         8.5200   -8.9890    7.9300 C.3    44  ARG44       0.0492
     11  CD         7.5230   -9.6030    8.8870 C.3    44  ARG44       0.2205
     12  NE         7.8850  -10.9600    9.2560 N.pl3  44  ARG44      -0.0865
     13  CZ         7.3780  -11.6240   10.3080 C.cat  44  ARG44       0.5346
     14  NH1        6.4170  -11.0420   11.0680 N.pl3  44  ARG44       0.1354
     15  NH2        7.8160  -12.8930   10.5860 N.pl3  44  ARG44       0.1354
     16  N          9.8490   -8.6220   11.8010 N.am   45  ARG45      -0.1963
     17  CA         9.0030   -8.8190   12.9890 C.3    45  ARG45       0.1729
     18  C          8.8690   -7.4500   13.6610 C.2    45  ARG45       0.2616
     19  O          7.7930   -7.0370   14.1770 O.2    45  ARG45      -0.2715
     20  CB         9.6490   -9.8590   13.9700 C.3    45  ARG45       0.0348
     21  CG         9.5100  -11.2850   13.5080 C.3    45  ARG45       0.0492
     22  CD        10.0560  -12.2410   14.5670 C.3    45  ARG45       0.2205
     23  NE        10.2560  -13.5560   13.9830 N.pl3  45  ARG45      -0.0865
     24  CZ         9.2710  -14.4260   13.7140 C.cat  45  ARG45       0.5346
     25  NH1        7.9800  -14.1370   13.9910 N.pl3  45  ARG45       0.1354
     26  NH2        9.5800  -15.6010   13.1720 N.pl3  45  ARG45       0.1354
     27  N          9.9440   -6.6740   13.6650 N.am   46  THR46      -0.1951
     28  CA         9.9280   -5.3300   14.2740 C.3    46  THR46       0.1897
     29  C          8.9540   -4.4080   13.5000 C.2    46  THR46       0.2313
     30  O          8.0690   -3.7740   14.0430 O.2    46  THR46      -0.2863
     31  CB        11.3560   -4.6970   14.3700 C.3    46  THR46       0.1794
     32  OG1       12.0940   -5.4420   15.3060 O.3    46  THR46      -0.2208
     33  CG2       11.3410   -3.1920   14.8510 C.3    46  THR46       0.0378
     34  N         14.1190   -5.9800    6.4470 N.3    65  LEU65      -0.1231
     35  CA        14.6460   -7.2850    6.0370 C.3    65  LEU65       0.1693
     36  C         13.6450   -8.4190    6.1960 C.2    65  LEU65       0.2593
     37  O         13.0100   -8.5140    7.2690 O.2    65  LEU65      -0.2718
     38  CB        15.8270   -7.6260    6.9600 C.3    65  LEU65       0.0284
     39  CG        17.1740   -7.1270    6.5320 C.3    65  LEU65       0.0019
     40  CD1       18.0450   -7.3010    7.7660 C.3    65  LEU65       0.0001
     41  CD2       17.7630   -8.0580    5.4610 C.3    65  LEU65       0.0001
     42  N         13.3280   -9.2070    5.1240 N.am   66  SER66      -0.1938
     43  CA        12.3950  -10.3120    5.2740 C.3    66  SER66       0.2055
     44  C         12.8430  -11.3940    4.3200 C.2    66  SER66       0.2643
     45  O         13.5340  -11.1230    3.3200 O.2    66  SER66      -0.2714
     46  CB        10.9870   -9.8450    4.8330 C.3    66  SER66       0.2130
     47  OG        10.0280  -10.8740    4.9720 O.3    66  SER66      -0.2179
     48  N         12.4450  -12.6440    4.6300 N.am   67  ARG67      -0.1963
     49  CA        12.5130  -13.7630    3.6890 C.3    67  ARG67       0.1729
     50  C         11.1700  -13.9890    2.9670 C.2    67  ARG67       0.2616
     51  O         11.0820  -14.9260    2.1580 O.2    67  ARG67      -0.2715
     52  CB        12.9810  -14.9930    4.3820 C.3    67  ARG67       0.0348
     53  CG        14.3450  -14.7680    4.9630 C.3    67  ARG67       0.0492
     54  CD        14.9230  -16.0150    5.5070 C.3    67  ARG67       0.2205
     55  NE        16.2080  -15.8110    6.1550 N.pl3  67  ARG67      -0.0865
     56  CZ        16.3960  -15.6040    7.4500 C.cat  67  ARG67       0.5346
     57  NH1       17.6730  -15.4510    7.8830 N.pl3  67  ARG67       0.1354
     58  NH2       15.3580  -15.5750    8.3350 N.pl3  67  ARG67       0.1354
     59  N         10.1450  -13.1850    3.2620 N.am   68  GLN68      -0.1977
     60  CA         8.8460  -13.3610    2.6070 C.3    68  GLN68       0.1601
     61  C          8.8580  -12.4400    1.3740 C.2    68  GLN68       0.2287
     62  O          8.6750  -11.1780    1.4590 O.2    68  GLN68      -0.2864
     63  CB         7.7400  -12.8440    3.5600 C.3    68  GLN68       0.0394
     64  CG         7.6210  -13.6500    4.8310 C.3    68  GLN68       0.0908
     65  CD         6.4620  -13.1460    5.6280 C.2    68  GLN68       0.2608
     66  OE1        5.3070  -13.2780    5.1940 O.2    68  GLN68      -0.2717
     67  NE2        6.7710  -12.5010    6.7800 N.am   68  GLN68      -0.0878
     68  N         16.0160   -8.9200    0.9280 N.3    80  GLY80      -0.1210
     69  CA        16.0450  -10.3270    1.2710 C.3    80  GLY80       0.1956
     70  C         17.4220  -10.7060    1.8100 C.2    80  GLY80       0.2613
     71  O         17.6280  -11.9500    1.9820 O.2    80  GLY80      -0.2717
     72  N         18.3630   -9.7740    2.0210 N.am   81  SER81      -0.1938
     73  CA        19.7030  -10.1090    2.5790 C.3    81  SER81       0.2055
     74  C         20.1960   -8.8460    3.2370 C.2    81  SER81       0.2642
     75  O         19.7580   -7.7600    2.8860 O.2    81  SER81      -0.2714
     76  CB        20.6810  -10.5240    1.4510 C.3    81  SER81       0.2130
     77  OG        20.9930   -9.3390    0.6810 O.3    81  SER81      -0.2179
     78  N         21.1140   -8.9890    4.2250 N.am   82  LEU82      -0.1977
     79  CA        21.6830   -7.8210    4.8540 C.3    82  LEU82       0.1596
     80  C         22.5090   -6.9750    3.8840 C.2    82  LEU82       0.2287
     81  O         22.4020   -5.7800    3.9220 O.2    82  LEU82      -0.2864
     82  CB        22.5230   -8.1920    6.0930 C.3    82  LEU82       0.0297
     83  CG        22.6420   -7.2250    7.2890 C.3    82  LEU82       0.0022
     84  CD1       24.1070   -7.2190    7.6240 C.3    82  LEU82       0.0001
     85  CD2       22.1700   -5.8220    7.0270 C.3    82  LEU82       0.0001
     86  N         15.2970   -5.9240   15.2220 N.3    96  GLY96      -0.1210
     87  CA        15.3820   -6.3150   16.6490 C.3    96  GLY96       0.1956
     88  C         16.6500   -7.1080   16.8760 C.2    96  GLY96       0.2612
     89  O         17.6510   -6.9660   16.1000 O.2    96  GLY96      -0.2717
     90  N         16.6470   -7.8750   17.9580 N.am   97  GLY97      -0.1942
     91  CA        17.8670   -8.5800   18.3960 C.3    97  GLY97       0.2014
     92  C         18.5110   -9.3970   17.2820 C.2    97  GLY97       0.2642
     93  O         19.7440   -9.4960   17.2050 O.2    97  GLY97      -0.2714
     94  N         17.6800   -9.9720   16.4080 N.am   98  GLN98      -0.1917
     95  CA        18.1420  -10.8490   15.3320 C.3    98  GLN98       0.1949
     96  C         19.0220  -10.0480   14.3150 C.2    98  GLN98       0.2658
     97  O         20.1540  -10.3760   13.9610 O.2    98  GLN98      -0.2711
     98  CB        16.9350  -11.5170   14.6440 C.2    98  GLN98       0.0091
     99  CG        17.1830  -12.8400   14.0230 C.2    98  GLN98       0.0587
    100  CD        15.9380  -13.5430   13.4400 C.2    98  GLN98       0.2841
    101  OE1       15.0130  -13.9860   14.1450 O.2    98  GLN98      -0.2667
    102  NE2       15.9450  -13.6920   12.1730 N.am   98  GLN98      -0.0837
    103  N         18.4930   -8.9010   13.8980 N.am   99  VAL99      -0.1974
    104  CA        19.1220   -8.0530   12.9020 C.3    99  VAL99       0.1596
    105  C         20.3460   -7.3470   13.5310 C.2    99  VAL99       0.2287
    106  O         21.3430   -7.1210   12.7970 O.2    99  VAL99      -0.2864
    107  CB        18.0790   -7.0810   12.3500 C.3    99  VAL99       0.0276
    108  CG1       18.6600   -6.1290   11.4030 C.3    99  VAL99       0.0022
    109  CG2       17.0590   -7.8650   11.5540 C.3    99  VAL99       0.0022
    110  N         23.1340   -9.8390   13.1720 N.3   102  LEU102     -0.1245
    111  CA        23.5390   -9.9510   11.7940 C.3   102  LEU102      0.1561
    112  C         24.4250   -8.7860   11.3130 C.2   102  LEU102      0.2260
    113  O         25.3740   -8.9470   10.5600 O.2   102  LEU102     -0.2867
    114  CB        22.2540  -10.0400   10.9600 C.3   102  LEU102      0.0270
    115  CG        22.1700  -10.2220    9.4410 C.3   102  LEU102      0.0019
    116  CD1       22.6780  -11.5600    8.9570 C.3   102  LEU102      0.0001
    117  CD2       20.7250  -10.1590    8.9760 C.3   102  LEU102      0.0001
@<TRIPOS>BOND
     1    77    76    1
     2    68    69    1
     3    69    70    1
     4    61    62    2
     5    61    60    1
     6    76    73    1
     7    70    71    2
     8    70    72   am
     9    72    73    1
    10    51    50    2
    11    73    74    1
    12    60    59    1
    13    60    63    1
    14    75    74    2
    15    50    59   am
    16    50    49    1
    17    74    78   am
    18    45    44    2
    19    63    64    1
    20    49    52    1
    21    49    48    1
    22    80    81    2
    23    80    79    1
    24    78    79    1
    25    44    48   am
    26    44    43    1
    27    52    53    1
    28    64    65    1
    29    46    47    1
    30    46    43    1
    31    79    82    1
    32    53    54    1
    33    42    43    1
    34    42    36   am
    35    66    65    2
    36    41    39    1
    37    54    55    1
    38    65    67   am
    39    35    36    1
    40    35    34    1
    41    35    38    1
    42    82    83    1
    43    55    56    2
    44    36    37    2
    45    39    38    1
    46    39    40    1
    47    85    83    1
    48    83    84    1
    49    56    57    1
    50    56    58    1
    51    10     9    1
    52    10    11    1
    53     9     6    1
    54    11    12    1
    55   116   115    1
    56   117   115    1
    57    12    13    2
    58   115   114    1
    59     6     5    1
    60     6     7    1
    61     5     3   am
    62    13    15    1
    63    13    14    1
    64     3     2    1
    65     3     4    2
    66   113   112    2
    67     7     8    2
    68     7    16   am
    69     2     1    1
    70   114   111    1
    71   112   111    1
    72   108   107    1
    73   109   107    1
    74   111   110    1
    75    16    17    1
    76   102   100   am
    77   107   104    1
    78   106   105    2
    79   104   105    1
    80   104   103    1
    81    17    18    1
    82    17    20    1
    83    26    24    1
    84   100    99    1
    85   100   101    2
    86    29    30    2
    87    29    28    1
    88    21    20    1
    89    21    22    1
    90    18    27   am
    91    18    19    2
    92    27    28    1
    93    24    23    2
    94    24    25    1
    95   103    96   am
    96    97    96    2
    97    23    22    1
    98    99    98    2
    99    28    31    1
   100    96    95    1
   101    31    33    1
   102    31    32    1
   103    98    95    1
   104    86    87    1
   105    95    94    1
   106    89    88    2
   107    94    92   am
   108    87    88    1
   109    88    90   am
   110    93    92    2
   111    92    91    1
   112    90    91    1
