@<TRIPOS>MOLECULE
tmp/4km2A01.pdb
 147 139 0 0 0
SMALL
GASTEIGER

@<TRIPOS>ATOM
      1  N         21.7950    1.2680   16.7960 N.3     5  ILE5       -0.1231
      2  CA        21.2640    2.1160   17.8260 C.3     5  ILE5        0.1692
      3  C         20.3080    1.3010   18.6490 C.2     5  ILE5        0.2592
      4  O         19.4050    0.6750   18.0530 O.2     5  ILE5       -0.2718
      5  CB        20.6840    3.4700   17.2860 C.3     5  ILE5        0.0266
      6  CG1       20.0620    4.2780   18.4400 C.3     5  ILE5        0.0019
      7  CG2       19.5920    3.2700   16.2070 C.3     5  ILE5        0.0020
      8  CD1       19.8330    5.7350   18.0910 C.3     5  ILE5        0.0001
      9  N         20.4820    1.2260   19.9600 N.am    6  TRP6       -0.1962
     10  CA        19.5630    0.4930   20.7890 C.3     6  TRP6        0.1771
     11  C         19.5960    1.1220   22.2020 C.2     6  TRP6        0.2619
     12  O         20.5280    1.8780   22.5640 O.2     6  TRP6       -0.2715
     13  CB        19.9400   -0.9980   20.8870 C.3     6  TRP6        0.0590
     14  CG        21.1810   -1.3700   21.6670 C.ar    6  TRP6        0.0006
     15  CD1       21.2440   -1.6730   23.0320 C.ar    6  TRP6        0.0946
     16  CD2       22.4890   -1.5930   21.1530 C.ar    6  TRP6        0.0152
     17  NE1       22.5410   -2.0120   23.4010 N.ar    6  TRP6       -0.2442
     18  CE2       23.3130   -2.0180   22.2880 C.ar    6  TRP6        0.0810
     19  CE3       23.0710   -1.5330   19.8890 C.ar    6  TRP6        0.0012
     20  CZ2       24.6580   -2.3610   22.1270 C.ar    6  TRP6        0.0191
     21  CZ3       24.3900   -1.9580   19.7560 C.ar    6  TRP6        0.0001
     22  CH2       25.1960   -2.2710   20.8600 C.ar    6  TRP6        0.0015
     23  N         18.5790    0.7960   23.0030 N.am    7  ALA7       -0.1977
     24  CA        18.5320    1.1030   24.4230 C.3     7  ALA7        0.1597
     25  C         18.4890   -0.2240   25.2220 C.2     7  ALA7        0.2287
     26  O         17.8020   -1.1850   24.8230 O.2     7  ALA7       -0.2864
     27  CB        17.3010    1.9640   24.7420 C.3     7  ALA7        0.0319
     28  N          9.8510   -2.6610   24.9990 N.3    20  ILE20      -0.1245
     29  CA        10.9750   -2.0030   25.7520 C.3    20  ILE20       0.1561
     30  C         10.4160   -1.9310   27.2270 C.2    20  ILE20       0.2260
     31  O          9.3230   -1.3850   27.4350 O.2    20  ILE20      -0.2867
     32  CB        11.2520   -0.6150   25.1730 C.3    20  ILE20       0.0252
     33  CG1       11.8210   -0.7210   23.7600 C.3    20  ILE20       0.0019
     34  CG2       12.1850    0.1530   26.1210 C.3    20  ILE20       0.0019
     35  CD1       11.9360    0.6190   23.0420 C.3    20  ILE20       0.0001
     36  N         14.8270    9.1330   25.5560 N.3    27  ASP27      -0.1225
     37  CA        15.4500    8.1900   24.6330 C.3    27  ASP27       0.1805
     38  C         14.7200    8.1810   23.3050 C.2    27  ASP27       0.2597
     39  O         15.4180    8.0460   22.2870 O.2    27  ASP27      -0.2718
     40  CB        15.4850    6.7870   25.2490 C.3    27  ASP27       0.1424
     41  CG        16.0220    5.7630   24.2730 C.2    27  ASP27       0.3668
     42  OD1       17.2090    5.8890   23.9090 O.co2  27  ASP27      -0.2456
     43  OD2       15.2490    4.8890   23.8140 O.co2  27  ASP27      -0.2456
     44  N         13.4290    8.3390   23.2920 N.am   28  GLN28      -0.1979
     45  CA        12.7210    8.4430   22.0290 C.3    28  GLN28       0.1601
     46  C         13.2000    9.6710   21.2530 C.2    28  GLN28       0.2287
     47  O         13.4000    9.5950   20.0480 O.2    28  GLN28      -0.2864
     48  CB        11.1970    8.5220   22.2900 C.3    28  GLN28       0.0394
     49  CG        10.5900    7.2900   22.9970 C.3    28  GLN28       0.0908
     50  CD         9.1590    7.5820   23.3550 C.2    28  GLN28       0.2608
     51  OE1        8.3160    8.0360   22.4830 O.2    28  GLN28      -0.2717
     52  NE2        8.8390    7.3530   24.5870 N.am   28  GLN28      -0.0878
     53  N         16.2220   11.1060   21.5700 N.3    30  HIS30      -0.1226
     54  CA        17.5560   10.8110   21.1070 C.3    30  HIS30       0.1752
     55  C         17.5830    9.9080   19.8450 C.2    30  HIS30       0.2596
     56  O         18.3700   10.0990   18.8970 O.2    30  HIS30      -0.2718
     57  CB        18.2460   10.1110   22.2850 C.3    30  HIS30       0.0759
     58  CG        19.6070    9.6010   21.9230 C.ar   30  HIS30       0.0818
     59  ND1       20.0030    8.2810   21.9620 N.ar   30  HIS30      -0.2268
     60  CD2       20.6950   10.3560   21.5710 C.ar   30  HIS30       0.1154
     61  CE1       21.3300    8.2170   21.5820 C.ar   30  HIS30       0.1986
     62  NE2       21.7530    9.5080   21.3830 N.ar   30  HIS30      -0.2212
     63  N         16.6920    8.9260   19.8570 N.am   31  PHE31      -0.1976
     64  CA        16.6100    8.0140   18.7230 C.3    31  PHE31       0.1639
     65  C         16.2610    8.7910   17.4680 C.2    31  PHE31       0.2290
     66  O         16.8640    8.5510   16.3990 O.2    31  PHE31      -0.2864
     67  CB        15.5310    6.9880   19.0540 C.3    31  PHE31       0.0560
     68  CG        15.1740    6.1090   17.8600 C.ar   31  PHE31      -0.0200
     69  CD1       15.9660    4.9650   17.5240 C.ar   31  PHE31      -0.0042
     70  CD2       14.0520    6.4380   17.0420 C.ar   31  PHE31      -0.0042
     71  CE1       15.6040    4.1650   16.4180 C.ar   31  PHE31      -0.0003
     72  CE2       13.7260    5.6240   15.9540 C.ar   31  PHE31      -0.0003
     73  CZ        14.5280    4.5210   15.6410 C.ar   31  PHE31      -0.0000
     74  N         15.3520   -2.4090    9.7270 N.3    42  MET42      -0.1245
     75  CA        14.7410   -3.2020   10.7880 C.3    42  MET42       0.1570
     76  C         14.3150   -4.5310   10.2360 C.2    42  MET42       0.2261
     77  O         14.0980   -4.7130    9.0430 O.2    42  MET42      -0.2867
     78  CB        13.5340   -2.4830   11.4110 C.3    42  MET42       0.0387
     79  CG        12.3360   -2.4470   10.4950 C.3    42  MET42       0.0595
     80  SD        10.9840   -1.4810   11.1370 S.3    42  MET42      -0.1393
     81  CE        11.4740    0.0080   10.4820 C.3    42  MET42       0.0692
     82  N          9.9440   -6.6740   13.6650 N.3    46  THR46      -0.1218
     83  CA         9.9280   -5.3300   14.2740 C.3    46  THR46       0.1862
     84  C          8.9540   -4.4080   13.5000 C.2    46  THR46       0.2287
     85  O          8.0690   -3.7740   14.0430 O.2    46  THR46      -0.2866
     86  CB        11.3560   -4.6970   14.3700 C.3    46  THR46       0.1770
     87  OG1       12.0940   -5.4420   15.3060 O.3    46  THR46      -0.2211
     88  CG2       11.3410   -3.1920   14.8510 C.3    46  THR46       0.0375
     89  N          4.9130   -2.5390   14.7480 N.3    50  LEU50      -0.1245
     90  CA         4.6510   -1.0890   14.8900 C.3    50  LEU50       0.1561
     91  C          3.2040   -0.7370   14.5490 C.2    50  LEU50       0.2260
     92  O          2.6520   -1.3120   13.5850 O.2    50  LEU50      -0.2867
     93  CB         5.5440   -0.2860   13.9340 C.3    50  LEU50       0.0270
     94  CG         7.0360   -0.4390   14.1620 C.3    50  LEU50       0.0019
     95  CD1        7.8800    0.3600   13.1900 C.3    50  LEU50       0.0001
     96  CD2        7.3520   -0.0040   15.6310 C.3    50  LEU50       0.0001
     97  N          2.6260    4.7270   12.8040 N.3    54  VAL54      -0.1245
     98  CA         4.0040    5.0780   13.1890 C.3    54  VAL54       0.1561
     99  C          5.0450    4.5090   12.2180 C.2    54  VAL54       0.2260
    100  O          6.2700    4.7610   12.3690 O.2    54  VAL54      -0.2867
    101  CB         4.3460    4.9360   14.7130 C.3    54  VAL54       0.0252
    102  CG1        3.1060    5.0550   15.5780 C.3    54  VAL54       0.0019
    103  CG2        5.0130    3.6600   15.1180 C.3    54  VAL54       0.0019
    104  N          8.7820    5.1150    9.5150 N.3    57  LEU57      -0.1245
    105  CA         9.3000    6.2410   10.3120 C.3    57  LEU57       0.1561
    106  C          9.5450    7.4170    9.4020 C.2    57  LEU57       0.2260
    107  O         10.2510    7.3030    8.4250 O.2    57  LEU57      -0.2867
    108  CB        10.6680    5.8860   10.9720 C.3    57  LEU57       0.0270
    109  CG        10.6560    4.9240   12.1940 C.3    57  LEU57       0.0019
    110  CD1        9.9800    3.5500   11.9680 C.3    57  LEU57       0.0001
    111  CD2       12.0640    4.7320   12.7700 C.3    57  LEU57       0.0001
    112  N         18.0200   -0.5530   13.6570 N.3    94  ILE94      -0.1245
    113  CA        17.1870   -0.1540   14.7930 C.3    94  ILE94       0.1561
    114  C         16.4590   -1.3070   15.4480 C.2    94  ILE94       0.2260
    115  O         15.6330   -1.0550   16.3470 O.2    94  ILE94      -0.2867
    116  CB        16.2100    0.9740   14.3630 C.3    94  ILE94       0.0252
    117  CG1       15.0760    0.5170   13.3970 C.3    94  ILE94       0.0019
    118  CG2       17.0130    2.1380   13.7370 C.3    94  ILE94       0.0019
    119  CD1       13.9730    1.5230   13.1740 C.3    94  ILE94       0.0001
    120  N         20.2640   -6.9550   14.8150 N.3   100  TYR100     -0.1241
    121  CA        21.4680   -6.4050   15.4350 C.3   100  TYR100      0.1605
    122  C         22.6500   -7.4130   15.3390 C.2   100  TYR100      0.2264
    123  O         23.7630   -7.0020   15.0250 O.2   100  TYR100     -0.2867
    124  CB        21.2180   -6.1310   16.8860 C.3   100  TYR100      0.0534
    125  CG        20.4070   -4.8670   17.2030 C.ar  100  TYR100     -0.0201
    126  CD1       19.4010   -4.9810   18.2050 C.ar  100  TYR100     -0.0009
    127  CD2       20.5620   -3.5920   16.5810 C.ar  100  TYR100     -0.0009
    128  CE1       18.6190   -3.9050   18.5300 C.ar  100  TYR100      0.0417
    129  CE2       19.7760   -2.4990   16.9190 C.ar  100  TYR100      0.0417
    130  CZ        18.8160   -2.6690   17.9120 C.ar  100  TYR100      0.1957
    131  OH        18.0210   -1.6720   18.3440 O.3   100  TYR100     -0.2866
    132  N         25.3450    3.6800   18.9130 N.3   111  GLU111     -0.1245
    133  CA        24.7650    4.7350   19.7790 C.3   111  GLU111      0.1567
    134  C         23.8450    3.9700   20.7230 C.2   111  GLU111      0.2260
    135  O         22.7970    3.4220   20.3170 O.2   111  GLU111     -0.2867
    136  CB        23.9870    5.7100   18.9350 C.3   111  GLU111      0.0388
    137  CG        24.9630    6.6340   18.1180 C.3   111  GLU111      0.1160
    138  CD        25.8130    7.6140   18.9490 C.2   111  GLU111      0.3649
    139  OE1       25.4280    7.9490   20.0940 O.co2 111  GLU111     -0.2457
    140  OE2       26.8450    8.0960   18.4340 O.co2 111  GLU111     -0.2457
    141  N         21.7980    3.6370   24.5160 N.3   113  THR113     -0.1218
    142  CA        21.2940    4.2150   25.7430 C.3   113  THR113      0.1862
    143  C         21.3330    3.1450   26.7750 C.2   113  THR113      0.2287
    144  O         20.7030    2.1170   26.5810 O.2   113  THR113     -0.2866
    145  CB        19.8610    4.7260   25.5420 C.3   113  THR113      0.1770
    146  OG1       19.8690    5.6520   24.4750 O.3   113  THR113     -0.2211
    147  CG2       19.3420    5.3640   26.8030 C.3   113  THR113      0.0375
@<TRIPOS>BOND
     1   107   106    2
     2    77    76    2
     3   106   105    1
     4   104   105    1
     5    74    75    1
     6    76    75    1
     7   105   108    1
     8    81    80    1
     9    79    80    1
    10    79    78    1
    11    75    78    1
    12   108   109    1
    13   110   109    1
    14   109   111    1
    15    99   100    2
    16    99    98    1
    17    97    98    1
    18   119   117    1
    19    98   101    1
    20    95    94    1
    21   117   116    1
    22    84    85    2
    23    84    83    1
    24    92    91    2
    25   112   113    1
    26    82    83    1
    27   118   116    1
    28    93    94    1
    29    93    90    1
    30    94    96    1
    31    83    86    1
    32   116   113    1
    33    86    88    1
    34    86    87    1
    35    91    90    1
    36   101   103    1
    37   101   102    1
    38    89    90    1
    39   113   114    1
    40   120   121    1
    41   123   122    2
    42   122   121    1
    43   121   124    1
    44   114   115    2
    45    73    72   ar
    46    73    71   ar
    47    72    70   ar
    48     7     5    1
    49    66    65    2
    50    71    69   ar
    51   127   129   ar
    52   127   125   ar
    53     1     2    1
    54   124   125    1
    55   129   130   ar
    56    70    68   ar
    57   125   126   ar
    58     5     2    1
    59     5     6    1
    60    65    64    1
    61    69    68   ar
    62     2     3    1
    63    68    67    1
    64   130   131    1
    65   130   128   ar
    66     4     3    2
    67     8     6    1
    68   137   136    1
    69   137   138    1
    70   126   128   ar
    71   140   138   ar
    72     3     9   am
    73    64    67    1
    74    64    63    1
    75    56    55    2
    76   132   133    1
    77   136   133    1
    78   138   139   ar
    79    21    19   ar
    80    21    22   ar
    81   133   134    1
    82    55    63   am
    83    55    54    1
    84    19    16   ar
    85     9    10    1
    86    47    46    2
    87   135   134    2
    88    10    13    1
    89    10    11    1
    90    22    20   ar
    91    13    14    1
    92    54    53    1
    93    54    57    1
    94    16    14   ar
    95    16    18   ar
    96    46    45    1
    97    62    60   ar
    98    62    61   ar
    99    60    58   ar
   100    61    59   ar
   101    14    15   ar
   102    58    59   ar
   103    58    57    1
   104    45    48    1
   105    45    44    1
   106    20    18   ar
   107    11    12    2
   108    11    23   am
   109    39    38    2
   110    18    17   ar
   111    48    49    1
   112    51    50    2
   113    49    50    1
   114    23    24    1
   115    15    17   ar
   116    35    33    1
   117    44    38   am
   118    38    37    1
   119    50    52   am
   120    33    32    1
   121    43    41   ar
   122    42    41   ar
   123    41    40    1
   124    24    27    1
   125    24    25    1
   126   146   145    1
   127   141   142    1
   128    37    40    1
   129    37    36    1
   130    26    25    2
   131    28    29    1
   132    32    29    1
   133    32    34    1
   134   145   142    1
   135   145   147    1
   136   142   143    1
   137    29    30    1
   138   144   143    2
   139    30    31    2
