@<TRIPOS>MOLECULE
tmp/4km6A01.pdb
 108 104 0 0 0
SMALL
GASTEIGER

@<TRIPOS>ATOM
      1  N          9.2980   40.1350   37.5900 N.3    10  ASN10      -0.1225
      2  CA        10.2050   39.2080   36.9080 C.3    10  ASN10       0.1785
      3  C         11.1610   38.4730   37.8540 C.2    10  ASN10       0.2597
      4  O         11.1260   38.6900   39.0660 O.2    10  ASN10      -0.2718
      5  CB        10.9500   39.8790   35.7380 C.3    10  ASN10       0.1169
      6  CG        11.9930   40.9020   36.1830 C.2    10  ASN10       0.2627
      7  OD1       12.4920   40.8680   37.3060 O.2    10  ASN10      -0.2716
      8  ND2       12.3430   41.8140   35.2750 N.am   10  ASN10      -0.0877
      9  N         12.0060   37.6080   37.2970 N.am   11  ALA11      -0.1966
     10  CA        12.9170   36.7910   38.0910 C.3    11  ALA11       0.1728
     11  C         14.0050   37.5990   38.7920 C.2    11  ALA11       0.2616
     12  O         14.6500   37.0940   39.7150 O.2    11  ALA11      -0.2715
     13  CB        13.5450   35.6990   37.2200 C.3    11  ALA11       0.0334
     14  N         14.2240   38.8340   38.3330 N.am   12  LYS12      -0.1977
     15  CA        15.1660   39.7440   38.9830 C.3    12  LYS12       0.1596
     16  C         14.4260   40.6310   39.9910 C.2    12  LYS12       0.2287
     17  O         15.0160   41.5490   40.5820 O.2    12  LYS12      -0.2864
     18  CB        15.8760   40.6270   37.9500 C.3    12  LYS12       0.0298
     19  CG        16.3300   39.8860   36.7020 C.3    12  LYS12       0.0038
     20  CD        17.3380   38.8250   37.0380 C.3    12  LYS12       0.0206
     21  CE        17.6350   37.9120   35.8430 C.3    12  LYS12       0.1093
     22  NZ        18.2220   38.6240   34.6740 N.3    12  LYS12      -0.1314
     23  N          7.3920   44.5660   35.6930 N.3    16  GLU16      -0.1245
     24  CA         7.4500   44.6420   34.2390 C.3    16  GLU16       0.1567
     25  C          6.0390   44.6090   33.7090 C.2    16  GLU16       0.2260
     26  O          5.1090   44.2050   34.4140 O.2    16  GLU16      -0.2867
     27  CB         8.2020   43.4380   33.6540 C.3    16  GLU16       0.0388
     28  CG         9.7040   43.4710   33.7330 C.3    16  GLU16       0.1160
     29  CD        10.3270   42.3390   32.9300 C.2    16  GLU16       0.3649
     30  OE1        9.5930   41.3980   32.5700 O.co2  16  GLU16      -0.2457
     31  OE2       11.5400   42.3960   32.6570 O.co2  16  GLU16      -0.2457
     32  N          6.2330   33.4310   25.9940 N.3    22  ASP22      -0.1239
     33  CA         7.4640   32.8250   25.4610 C.3    22  ASP22       0.1674
     34  C          7.2780   31.3590   25.0610 C.2    22  ASP22       0.2266
     35  O          6.2810   30.7440   25.4240 O.2    22  ASP22      -0.2867
     36  CB         8.6710   33.0150   26.4020 C.3    22  ASP22       0.1410
     37  CG         8.5440   32.2520   27.7210 C.2    22  ASP22       0.3668
     38  OD1        7.7770   31.2710   27.8190 O.co2  22  ASP22      -0.2456
     39  OD2        9.2530   32.6290   28.6770 O.co2  22  ASP22      -0.2456
     40  N          6.9070   36.1030   29.3140 N.3    38  SER38      -0.1202
     41  CA         6.8920   36.7490   28.0110 C.3    38  SER38       0.2020
     42  C          8.2630   36.7850   27.3600 C.2    38  SER38       0.2619
     43  O          9.2840   36.6010   28.0200 O.2    38  SER38      -0.2717
     44  CB         6.3880   38.1790   28.1670 C.3    38  SER38       0.2103
     45  OG         7.2700   38.9290   28.9890 O.3    38  SER38      -0.2182
     46  N          8.2630   37.0360   26.0560 N.am   39  THR39      -0.1938
     47  CA         9.4850   37.2680   25.3100 C.3    39  THR39       0.2028
     48  C         10.1290   38.5770   25.7600 C.2    39  THR39       0.2642
     49  O          9.4760   39.4320   26.3740 O.2    39  THR39      -0.2714
     50  CB         9.2040   37.3300   23.7920 C.3    39  THR39       0.1808
     51  OG1        8.2730   38.3840   23.5090 O.3    39  THR39      -0.2208
     52  CG2        8.6220   36.0040   23.3040 C.3    39  THR39       0.0379
     53  N         11.4120   38.7350   25.4520 N.am   40  ASN40      -0.1971
     54  CA        12.1400   39.9370   25.8430 C.3    40  ASN40       0.1688
     55  C         12.5960   40.7540   24.6500 C.2    40  ASN40       0.2292
     56  O         13.0870   40.2100   23.6610 O.2    40  ASN40      -0.2864
     57  CB        13.3520   39.5790   26.6950 C.3    40  ASN40       0.1181
     58  CG        12.9860   38.7620   27.9000 C.2    40  ASN40       0.2629
     59  OD1       11.9210   38.9490   28.4940 O.2    40  ASN40      -0.2716
     60  ND2       13.8610   37.8410   28.2680 N.am   40  ASN40      -0.0877
     61  N         18.4290   40.1930   27.2500 N.3    44  GLU44      -0.1231
     62  CA        18.4970   39.7670   28.6410 C.3    44  GLU44       0.1699
     63  C         18.9870   38.3250   28.6940 C.2    44  GLU44       0.2592
     64  O         18.5780   37.4970   27.8750 O.2    44  GLU44      -0.2718
     65  CB        17.1250   39.8900   29.3040 C.3    44  GLU44       0.0402
     66  CG        17.1050   39.9900   30.7800 C.3    44  GLU44       0.1161
     67  CD        15.6710   40.0950   31.3420 C.2    44  GLU44       0.3649
     68  OE1       14.7200   40.1050   30.5130 O.co2  44  GLU44      -0.2457
     69  OE2       15.5090   40.1430   32.6010 O.co2  44  GLU44      -0.2457
     70  N         19.8670   38.0340   29.6510 N.am   45  ALA45      -0.1966
     71  CA        20.4080   36.6880   29.8170 C.3    45  ALA45       0.1728
     72  C         19.2980   35.6540   29.9700 C.2    45  ALA45       0.2616
     73  O         18.3550   35.8340   30.7480 O.2    45  ALA45      -0.2715
     74  CB        21.3660   36.6310   31.0010 C.3    45  ALA45       0.0334
     75  N         19.4100   34.5760   29.2050 N.am   46  HIS46      -0.1959
     76  CA        18.3980   33.5320   29.2270 C.3    46  HIS46       0.1787
     77  C         18.6480   32.5600   30.3700 C.2    46  HIS46       0.2620
     78  O         19.6290   31.8160   30.3590 O.2    46  HIS46      -0.2715
     79  CB        18.3670   32.7960   27.8930 C.3    46  HIS46       0.0785
     80  CG        17.2210   31.8120   27.7460 C.ar   46  HIS46       0.0821
     81  ND1       16.0870   32.0070   27.0860 N.ar   46  HIS46      -0.2267
     82  CD2       17.2280   30.5100   28.1710 C.ar   46  HIS46       0.1154
     83  CE1       15.4110   30.8840   27.0680 C.ar   46  HIS46       0.1986
     84  NE2       16.1100   30.0010   27.7200 N.ar   46  HIS46      -0.2212
     85  N         17.7670   32.5880   31.3630 N.am   47  LYS47      -0.1963
     86  CA        17.7660   31.5790   32.4140 C.3    47  LYS47       0.1728
     87  C         16.3220   31.2660   32.7690 C.2    47  LYS47       0.2616
     88  O         15.6110   32.1070   33.3230 O.2    47  LYS47      -0.2715
     89  CB        18.5280   32.0610   33.6340 C.3    47  LYS47       0.0311
     90  CG        18.4750   31.1970   34.8820 C.3    47  LYS47       0.0038
     91  CD        19.4020   30.0130   34.7380 C.3    47  LYS47       0.0206
     92  CE        19.6090   29.3810   36.1040 C.3    47  LYS47       0.1093
     93  NZ        18.4890   28.5430   36.4790 N.3    47  LYS47      -0.1314
     94  N         15.8850   30.0610   32.4220 N.am   48  ASP48      -0.1957
     95  CA        14.5420   29.6190   32.7640 C.3    48  ASP48       0.1840
     96  C         14.4630   29.3800   34.2670 C.2    48  ASP48       0.2621
     97  O         15.2620   28.6210   34.8220 O.2    48  ASP48      -0.2715
     98  CB        14.1860   28.3320   32.0110 C.3    48  ASP48       0.1450
     99  CG        14.3070   28.4790   30.5030 C.2    48  ASP48       0.3671
    100  OD1       14.0080   29.5770   29.9830 O.co2  48  ASP48      -0.2456
    101  OD2       14.6880   27.4900   29.8340 O.co2  48  ASP48      -0.2456
    102  N         13.5170   30.0380   34.9350 N.am   49  VAL49      -0.1977
    103  CA        13.2850   29.7480   36.3470 C.3    49  VAL49       0.1596
    104  C         11.9520   29.0380   36.5150 C.2    49  VAL49       0.2287
    105  O         11.4990   28.8050   37.6350 O.2    49  VAL49      -0.2864
    106  CB        13.3300   31.0040   37.2430 C.3    49  VAL49       0.0276
    107  CG1       14.6660   31.7160   37.1040 C.3    49  VAL49       0.0022
    108  CG2       12.1690   31.9460   36.9310 C.3    49  VAL49       0.0022
@<TRIPOS>BOND
     1    52    50    1
     2    51    50    1
     3    56    55    2
     4    50    47    1
     5    55    54    1
     6    34    35    2
     7    34    33    1
     8    47    48    1
     9    47    46    1
    10    53    48   am
    11    53    54    1
    12    33    32    1
    13    33    36    1
    14    48    49    2
    15    54    57    1
    16    46    42   am
    17    36    37    1
    18    57    58    1
    19    83    81   ar
    20    83    84   ar
    21    81    80   ar
    22    61    62    1
    23    42    41    1
    24    42    43    2
    25    84    82   ar
    26    37    38   ar
    27    37    39   ar
    28    80    79    1
    29    80    82   ar
    30    64    63    2
    31    79    76    1
    32    58    60   am
    33    58    59    2
    34    41    44    1
    35    41    40    1
    36    44    45    1
    37    62    63    1
    38    62    65    1
    39    63    70   am
    40    75    76    1
    41    75    72   am
    42    76    77    1
    43    65    66    1
    44    70    71    1
    45    71    72    1
    46    71    74    1
    47   101    99   ar
    48    72    73    2
    49   100    99   ar
    50    78    77    2
    51    77    85   am
    52    99    98    1
    53    68    67   ar
    54    66    67    1
    55    67    69   ar
    56    85    86    1
    57    98    95    1
    58    86    87    1
    59    86    89    1
    60    94    95    1
    61    94    87   am
    62    30    29   ar
    63    31    29   ar
    64    95    96    1
    65    87    88    2
    66    29    28    1
    67    89    90    1
    68    27    28    1
    69    27    24    1
    70    25    24    1
    71    25    26    2
    72    24    23    1
    73    96    97    2
    74    96   102   am
    75    22    21    1
    76    91    90    1
    77    91    92    1
    78   102   103    1
    79     8     6   am
    80     5     6    1
    81     5     2    1
    82    21    20    1
    83    92    93    1
    84     6     7    2
    85   103   104    1
    86   103   106    1
    87   104   105    2
    88    19    20    1
    89    19    18    1
    90     2     1    1
    91     2     3    1
    92   108   106    1
    93   107   106    1
    94    13    10    1
    95     9     3   am
    96     9    10    1
    97     3     4    2
    98    18    15    1
    99    10    11    1
   100    14    11   am
   101    14    15    1
   102    11    12    2
   103    15    16    1
   104    16    17    2
