@<TRIPOS>MOLECULE
tmp/4kmbA00.pdb
 111 106 0 0 0
SMALL
GASTEIGER

@<TRIPOS>ATOM
      1  N         38.9430   -5.7840   15.2080 N.3   110  LYS110     -0.1231
      2  CA        40.2200   -5.5180   14.5550 C.3   110  LYS110      0.1693
      3  C         40.8740   -6.8710   14.3440 C.2   110  LYS110      0.2592
      4  O         40.4660   -7.8720   14.9330 O.2   110  LYS110     -0.2718
      5  CB        41.1590   -4.7340   15.4670 C.3   110  LYS110      0.0285
      6  CG        40.9360   -3.2530   15.5380 C.3   110  LYS110      0.0035
      7  CD        41.9580   -2.6100   16.4530 C.3   110  LYS110      0.0206
      8  CE        43.3770   -2.6820   15.8830 C.3   110  LYS110      0.1093
      9  NZ        43.9730   -4.0510   15.8610 N.3   110  LYS110     -0.1314
     10  N         41.9420   -6.8730   13.5620 N.am  111  LYS111     -0.1966
     11  CA        42.6920   -8.0830   13.2740 C.3   111  LYS111      0.1728
     12  C         43.2170   -8.6500   14.5860 C.2   111  LYS111      0.2616
     13  O         43.8040   -7.9230   15.3930 O.2   111  LYS111     -0.2715
     14  CB        43.8750   -7.7360   12.3590 C.3   111  LYS111      0.0311
     15  CG        44.7340   -8.9110   11.8920 C.3   111  LYS111      0.0038
     16  CD        43.9980   -9.7970   10.8910 C.3   111  LYS111      0.0206
     17  CE        44.9540  -10.7640   10.2030 C.3   111  LYS111      0.1093
     18  NZ        45.6690  -11.6600   11.1690 N.3   111  LYS111     -0.1314
     19  N         42.9860   -9.9400   14.7970 N.am  112  ASP112     -0.1957
     20  CA        43.4560  -10.6470   15.9940 C.3   112  ASP112      0.1840
     21  C         42.7630  -10.2880   17.3150 C.2   112  ASP112      0.2621
     22  O         43.2940  -10.5810   18.3890 O.2   112  ASP112     -0.2715
     23  CB        44.9780  -10.5020   16.1510 C.3   112  ASP112      0.1450
     24  CG        45.7580  -11.0470   14.9540 C.2   112  ASP112      0.3671
     25  OD1       45.4590  -12.1620   14.4690 O.co2 112  ASP112     -0.2456
     26  OD2       46.6910  -10.3470   14.5050 O.co2 112  ASP112     -0.2456
     27  N         41.5950   -9.6470   17.2350 N.am  113  GLU113     -0.1977
     28  CA        40.8170   -9.2830   18.4230 C.3   113  GLU113      0.1602
     29  C         39.4580   -9.9560   18.2660 C.2   113  GLU113      0.2287
     30  O         39.0540  -10.2550   17.1460 O.2   113  GLU113     -0.2864
     31  CB        40.6360   -7.7600   18.5320 C.3   113  GLU113      0.0415
     32  CG        41.9380   -6.9460   18.5960 C.3   113  GLU113      0.1163
     33  CD        42.7670   -7.2090   19.8390 C.2   113  GLU113      0.3649
     34  OE1       42.2250   -7.7580   20.8180 O.co2 113  GLU113     -0.2457
     35  OE2       43.9640   -6.8480   19.8470 O.co2 113  GLU113     -0.2457
     36  N         41.0340  -10.6700   22.1710 N.3   115  ASN115     -0.1240
     37  CA        42.0960  -11.5550   22.6420 C.3   115  ASN115      0.1653
     38  C         42.1850  -11.7420   24.1580 C.2   115  ASN115      0.2266
     39  O         43.0540  -12.4710   24.6380 O.2   115  ASN115     -0.2867
     40  CB        43.4560  -11.0850   22.0870 C.3   115  ASN115      0.1155
     41  CG        43.9070   -9.7460   22.6590 C.2   115  ASN115      0.2627
     42  OD1       43.1070   -8.9680   23.1770 O.2   115  ASN115     -0.2716
     43  ND2       45.2010   -9.4720   22.5560 N.am  115  ASN115     -0.0877
     44  N         43.4430  -10.1110   26.3830 N.3   117  HIS117     -0.1226
     45  CA        44.8500   -9.9700   26.6880 C.3   117  HIS117      0.1752
     46  C         45.2580   -9.9170   28.1540 C.2   117  HIS117      0.2597
     47  O         44.6250   -9.2480   28.9730 O.2   117  HIS117     -0.2718
     48  CB        45.4400   -8.7750   25.9400 C.3   117  HIS117      0.0759
     49  CG        46.9360   -8.7420   25.9590 C.ar  117  HIS117      0.0818
     50  ND1       47.7020   -9.5400   25.1390 N.ar  117  HIS117     -0.2268
     51  CD2       47.8040   -8.0490   26.7280 C.ar  117  HIS117      0.1154
     52  CE1       48.9800   -9.3460   25.4070 C.ar  117  HIS117      0.1986
     53  NE2       49.0720   -8.4460   26.3680 N.ar  117  HIS117     -0.2212
     54  N         46.3270  -10.6510   28.4560 N.am  118  GLY118     -0.1942
     55  CA        46.8930  -10.6930   29.7910 C.3   118  GLY118      0.2014
     56  C         45.9470  -11.1920   30.8500 C.2   118  GLY118      0.2639
     57  O         45.3260  -12.2420   30.6940 O.2   118  GLY118     -0.2714
     58  N         45.8460  -10.4340   31.9380 N.am  119  SER119     -0.1949
     59  CA        44.9540  -10.7980   33.0310 C.3   119  SER119      0.1924
     60  C         43.4900  -10.7610   32.5900 C.2   119  SER119      0.2314
     61  O         42.6200  -11.2510   33.3050 O.2   119  SER119     -0.2863
     62  CB        45.1890   -9.9030   34.2470 C.3   119  SER119      0.2116
     63  OG        45.1230   -8.5360   33.9070 O.3   119  SER119     -0.2180
     64  N         40.4350   -8.9200   29.4360 N.3   121  GLU121     -0.1245
     65  CA        39.7970   -7.7670   28.8170 C.3   121  GLU121      0.1567
     66  C         38.3600   -8.1430   28.5120 C.2   121  GLU121      0.2260
     67  O         38.0930   -8.9940   27.6580 O.2   121  GLU121     -0.2867
     68  CB        40.5310   -7.3730   27.5410 C.3   121  GLU121      0.0388
     69  CG        41.9250   -6.8700   27.8220 C.3   121  GLU121      0.1160
     70  CD        42.6770   -6.5320   26.5710 C.2   121  GLU121      0.3649
     71  OE1       42.5320   -7.2750   25.5880 O.co2 121  GLU121     -0.2457
     72  OE2       43.4150   -5.5300   26.5740 O.co2 121  GLU121     -0.2457
     73  N         38.1990   -3.3270   19.6060 N.3   133  ASN133     -0.1225
     74  CA        39.2370   -3.9970   20.3870 C.3   133  ASN133      0.1785
     75  C         38.6980   -4.2380   21.7950 C.2   133  ASN133      0.2597
     76  O         38.0190   -3.3780   22.3460 O.2   133  ASN133     -0.2718
     77  CB        40.4970   -3.1340   20.4840 C.3   133  ASN133      0.1169
     78  CG        41.5330   -3.7170   21.4410 C.2   133  ASN133      0.2627
     79  OD1       41.6780   -4.9320   21.5530 O.2   133  ASN133     -0.2716
     80  ND2       42.2460   -2.8510   22.1380 N.am  133  ASN133     -0.0877
     81  N         38.9390   -5.4220   22.3580 N.am  134  ASP134     -0.1960
     82  CA        38.4840   -5.6700   23.7230 C.3   134  ASP134      0.1840
     83  C         39.5390   -5.1180   24.6630 C.2   134  ASP134      0.2622
     84  O         40.7290   -5.1660   24.3530 O.2   134  ASP134     -0.2715
     85  CB        38.1750   -7.1550   23.9970 C.3   134  ASP134      0.1450
     86  CG        39.3780   -8.0890   23.7980 C.2   134  ASP134      0.3671
     87  OD1       40.2580   -7.8460   22.9500 O.co2 134  ASP134     -0.2456
     88  OD2       39.4060   -9.1270   24.4800 O.co2 134  ASP134     -0.2456
     89  N         39.1010   -4.4790   25.7410 N.am  135  ILE135     -0.1963
     90  CA        40.0120   -3.8940   26.7090 C.3   135  ILE135      0.1727
     91  C         39.4750   -4.0200   28.1220 C.2   135  ILE135      0.2616
     92  O         38.3270   -4.3950   28.3480 O.2   135  ILE135     -0.2715
     93  CB        40.2630   -2.3760   26.4770 C.3   135  ILE135      0.0290
     94  CG1       38.9530   -1.6030   26.5590 C.3   135  ILE135      0.0022
     95  CG2       40.9840   -2.1230   25.1670 C.3   135  ILE135      0.0023
     96  CD1       39.1770   -0.1550   26.8020 C.3   135  ILE135      0.0001
     97  N         40.3330   -3.6880   29.0750 N.am  136  SER136     -0.1950
     98  CA        39.9840   -3.7180   30.4800 C.3   136  SER136      0.1924
     99  C         38.8940   -2.6720   30.7220 C.2   136  SER136      0.2314
    100  O         38.9980   -1.5420   30.2510 O.2   136  SER136     -0.2863
    101  CB        41.2350   -3.4060   31.3220 C.3   136  SER136      0.2116
    102  OG        40.9200   -3.1980   32.6860 O.3   136  SER136     -0.2180
    103  N         39.9210    0.8290   32.1370 N.3   139  LYS139     -0.1245
    104  CA        40.5900    1.8470   31.3270 C.3   139  LYS139      0.1561
    105  C         39.6110    2.9950   31.1060 C.2   139  LYS139      0.2260
    106  O         38.4000    2.8020   31.1790 O.2   139  LYS139     -0.2867
    107  CB        41.0150    1.2840   29.9650 C.3   139  LYS139      0.0271
    108  CG        42.1130    0.2270   30.0160 C.3   139  LYS139      0.0035
    109  CD        43.4320    0.8280   30.4480 C.3   139  LYS139      0.0206
    110  CE        44.5110   -0.2310   30.5790 C.3   139  LYS139      0.1093
    111  NZ        45.8520    0.3740   30.8550 N.3   139  LYS139     -0.1314
@<TRIPOS>BOND
     1    17    16    1
     2    17    18    1
     3    16    15    1
     4    15    14    1
     5    14    11    1
     6    11    10    1
     7    11    12    1
     8    10     3   am
     9     3     2    1
    10     3     4    2
    11    25    24   ar
    12    26    24   ar
    13     2     1    1
    14     2     5    1
    15    12    19   am
    16    12    13    2
    17    19    20    1
    18    24    23    1
    19     5     6    1
    20     6     7    1
    21     9     8    1
    22     8     7    1
    23    20    23    1
    24    20    21    1
    25    30    29    2
    26    27    21   am
    27    27    28    1
    28    21    22    2
    29    29    28    1
    30    28    31    1
    31    31    32    1
    32    32    33    1
    33    73    74    1
    34    33    35   ar
    35    33    34   ar
    36    74    77    1
    37    74    75    1
    38    77    78    1
    39    78    79    2
    40    78    80   am
    41    75    76    2
    42    75    81   am
    43    40    37    1
    44    40    41    1
    45    36    37    1
    46    81    82    1
    47    43    41   am
    48    37    38    1
    49    41    42    2
    50    87    86   ar
    51    82    85    1
    52    82    83    1
    53    86    85    1
    54    86    88   ar
    55    38    39    2
    56    84    83    2
    57    83    89   am
    58    50    52   ar
    59    50    49   ar
    60    95    93    1
    61    52    53   ar
    62    71    70   ar
    63    89    90    1
    64    48    49    1
    65    48    45    1
    66    49    51   ar
    67    53    51   ar
    68    44    45    1
    69    93    94    1
    70    93    90    1
    71    94    96    1
    72    70    72   ar
    73    70    69    1
    74    45    46    1
    75    90    91    1
    76    68    69    1
    77    68    65    1
    78    67    66    2
    79    91    92    2
    80    91    97   am
    81    46    54   am
    82    46    47    2
    83    54    55    1
    84    66    65    1
    85    65    64    1
    86    97    98    1
    87    55    56    1
    88   107   108    1
    89   107   104    1
    90   108   109    1
    91   100    99    2
    92   109   110    1
    93    98    99    1
    94    98   101    1
    95   110   111    1
    96    57    56    2
    97    56    58   am
    98   105   106    2
    99   105   104    1
   100   101   102    1
   101   104   103    1
   102    58    59    1
   103    60    59    1
   104    60    61    2
   105    59    62    1
   106    63    62    1
