@<TRIPOS>MOLECULE
tmp/4kmgA00.pdb
 205 193 0 0 0
SMALL
GASTEIGER

@<TRIPOS>ATOM
      1  N        -22.7460   -0.4380   13.5030 N.3    13  HIS13      -0.1226
      2  CA       -23.3790   -0.6410   12.1860 C.3    13  HIS13       0.1752
      3  C        -22.5890   -1.5190   11.2440 C.2    13  HIS13       0.2596
      4  O        -23.1320   -1.9530   10.2400 O.2    13  HIS13      -0.2718
      5  CB       -23.5920    0.7060   11.5050 C.3    13  HIS13       0.0759
      6  CG       -24.4270    1.6430   12.3030 C.ar   13  HIS13       0.0818
      7  ND1      -25.7720    1.4520   12.4670 N.ar   13  HIS13      -0.2268
      8  CD2      -24.1040    2.7760   13.0150 C.ar   13  HIS13       0.1154
      9  CE1      -26.2580    2.4140   13.2540 C.ar   13  HIS13       0.1986
     10  NE2      -25.2340    3.2600   13.5570 N.ar   13  HIS13      -0.2212
     11  N        -21.3050   -1.7750   11.5350 N.am   14  CYS14      -0.1970
     12  CA       -20.4310   -2.4470   10.5800 C.3    14  CYS14       0.1712
     13  C        -19.7210   -3.7170   11.0720 C.2    14  CYS14       0.2296
     14  O        -19.4700   -4.6110   10.2860 O.2    14  CYS14      -0.2864
     15  CB       -19.3550   -1.4740   10.0640 C.3    14  CYS14       0.0983
     16  SG       -19.9250    0.2260    9.7090 S.3    14  CYS14      -0.0798
     17  N        -20.4760   -6.2340   12.7360 N.3    16  GLY16      -0.1210
     18  CA       -21.1750   -7.5110   12.6250 C.3    16  GLY16       0.1956
     19  C        -20.7620   -8.2830   11.4020 C.2    16  GLY16       0.2612
     20  O        -20.7250   -9.5440   11.4110 O.2    16  GLY16      -0.2717
     21  N        -20.4450   -7.5410   10.3420 N.am   17  CYS17      -0.1956
     22  CA       -19.8960   -8.1440    9.1100 C.3    17  CYS17       0.1843
     23  C        -18.4220   -7.9490    8.9080 C.2    17  CYS17       0.2625
     24  O        -17.8150   -8.7380    8.1950 O.2    17  CYS17      -0.2714
     25  CB       -20.6890   -7.6660    7.8800 C.3    17  CYS17       0.0997
     26  SG       -22.4390   -8.1960    8.0220 S.3    17  CYS17      -0.0797
     27  N        -17.8510   -6.8690    9.4520 N.am   18  HIS18      -0.1973
     28  CA       -16.4980   -6.4520    9.0690 C.3    18  HIS18       0.1656
     29  C        -15.4850   -6.3920   10.2120 C.2    18  HIS18       0.2291
     30  O        -14.4300   -5.7410   10.0780 O.2    18  HIS18      -0.2864
     31  CB       -16.5150   -5.0940    8.3550 C.3    18  HIS18       0.0771
     32  CG       -17.2360   -5.0870    7.0290 C.ar   18  HIS18       0.0820
     33  ND1      -16.7730   -5.7580    5.9240 N.ar   18  HIS18      -0.2267
     34  CD2      -18.3090   -4.3680    6.6030 C.ar   18  HIS18       0.1154
     35  CE1      -17.5490   -5.4510    4.8680 C.ar   18  HIS18       0.1986
     36  NE2      -18.4850   -4.6250    5.2760 N.ar   18  HIS18      -0.2212
     37  N        -14.8660   -9.7610    6.1160 N.3    23  ASN23      -0.1240
     38  CA       -16.2010   -9.6820    5.4990 C.3    23  ASN23       0.1653
     39  C        -16.8000  -11.0930    5.5790 C.2    23  ASN23       0.2266
     40  O        -16.3600  -12.0210    4.8590 O.2    23  ASN23      -0.2867
     41  CB       -16.1620   -9.2160    4.0410 C.3    23  ASN23       0.1155
     42  CG       -17.5300   -9.0440    3.4370 C.2    23  ASN23       0.2627
     43  OD1      -18.4590   -9.7400    3.8180 O.2    23  ASN23      -0.2716
     44  ND2      -17.6630   -8.1060    2.5150 N.am   23  ASN23      -0.0877
     45  N        -19.6110  -12.2460    4.8520 N.3    25  ILE25      -0.1231
     46  CA       -20.5470  -12.5510    3.7750 C.3    25  ILE25       0.1692
     47  C        -19.8150  -12.9620    2.4820 C.2    25  ILE25       0.2591
     48  O        -20.0460  -14.0660    1.9310 O.2    25  ILE25      -0.2718
     49  CB       -21.5110  -11.3880    3.5020 C.3    25  ILE25       0.0266
     50  CG1      -22.2570  -10.9540    4.7880 C.3    25  ILE25       0.0019
     51  CG2      -22.4680  -11.7320    2.3490 C.3    25  ILE25       0.0020
     52  CD1      -23.0600  -12.0220    5.4990 C.3    25  ILE25       0.0001
     53  N        -18.9310  -12.0760    2.0130 N.am   26  ARG26      -0.1980
     54  CA       -18.0830  -12.2910    0.8290 C.3    26  ARG26       0.1597
     55  C        -16.6460  -12.1030    1.3100 C.2    26  ARG26       0.2287
     56  O        -16.1350  -10.9750    1.4070 O.2    26  ARG26      -0.2864
     57  CB       -18.3650  -11.2390   -0.2750 C.3    26  ARG26       0.0334
     58  CG       -19.7160  -11.2840   -0.9720 C.3    26  ARG26       0.0492
     59  CD       -19.6970  -10.4090   -2.2580 C.3    26  ARG26       0.2205
     60  NE       -18.9340  -11.0540   -3.3440 N.pl3  26  ARG26      -0.0865
     61  CZ       -18.6170  -10.4950   -4.5170 C.cat  26  ARG26       0.5346
     62  NH1      -18.9910   -9.2710   -4.8080 N.pl3  26  ARG26       0.1354
     63  NH2      -17.9310  -11.1690   -5.4150 N.pl3  26  ARG26       0.1354
     64  N        -14.1740   -9.6310   -0.1930 N.3    29  LYS29      -0.1231
     65  CA       -14.5490   -8.1980   -0.2620 C.3    29  LYS29       0.1693
     66  C        -14.3280   -7.5840    1.1150 C.2    29  LYS29       0.2592
     67  O        -15.1860   -6.9530    1.7390 O.2    29  LYS29      -0.2718
     68  CB       -15.9730   -8.0040   -0.7980 C.3    29  LYS29       0.0285
     69  CG       -16.1980   -8.4970   -2.2310 C.3    29  LYS29       0.0035
     70  CD       -15.2010   -7.9360   -3.2480 C.3    29  LYS29       0.0206
     71  CE       -15.7800   -6.8740   -4.1540 C.3    29  LYS29       0.1093
     72  NZ       -14.9730   -6.7990   -5.4040 N.3    29  LYS29      -0.1314
     73  N        -13.1270   -7.7720    1.6060 N.am   30  ASN30      -0.1960
     74  CA       -12.7610   -7.2980    2.9470 C.3    30  ASN30       0.1819
     75  C        -12.2680   -5.8400    2.9600 C.2    30  ASN30       0.2621
     76  O        -12.2650   -5.1510    1.9440 O.2    30  ASN30      -0.2715
     77  CB       -11.7960   -8.2760    3.6010 C.3    30  ASN30       0.1195
     78  CG       -10.5270   -8.4270    2.8030 C.2    30  ASN30       0.2630
     79  OD1       -9.8730   -7.4770    2.5050 O.2    30  ASN30      -0.2716
     80  ND2      -10.2030   -9.6460    2.4340 N.am   30  ASN30      -0.0877
     81  N        -11.8710   -5.3880    4.1470 N.am   31  LEU31      -0.1977
     82  CA       -11.4490   -4.0250    4.3510 C.3    31  LEU31       0.1596
     83  C         -9.9360   -3.8860    4.5280 C.2    31  LEU31       0.2287
     84  O         -9.4340   -2.8940    5.0650 O.2    31  LEU31      -0.2864
     85  CB       -12.1660   -3.4070    5.5430 C.3    31  LEU31       0.0297
     86  CG       -13.6900   -3.5240    5.6010 C.3    31  LEU31       0.0022
     87  CD1      -14.2360   -2.7870    6.8060 C.3    31  LEU31       0.0001
     88  CD2      -14.3650   -3.0870    4.2770 C.3    31  LEU31       0.0001
     89  N         -6.9580   -4.8510   -0.6330 N.3    35  THR35      -0.1203
     90  CA        -8.2170   -5.2440   -1.2410 C.3    35  THR35       0.1994
     91  C         -8.9390   -3.9550   -1.7090 C.2    35  THR35       0.2617
     92  O         -9.4420   -3.8820   -2.8410 O.2    35  THR35      -0.2717
     93  CB        -9.0570   -6.0180   -0.2470 C.3    35  THR35       0.1784
     94  OG1       -8.2720   -7.0590    0.3330 O.3    35  THR35      -0.2211
     95  CG2      -10.3020   -6.5850   -0.9100 C.3    35  THR35       0.0376
     96  N         -9.0550   -2.9600   -0.8250 N.am   36  LEU36      -0.1979
     97  CA        -9.6710   -1.6590   -1.1550 C.3    36  LEU36       0.1596
     98  C         -8.8900   -1.0010   -2.2930 C.2    36  LEU36       0.2287
     99  O         -9.5540   -0.5200   -3.2420 O.2    36  LEU36      -0.2864
    100  CB        -9.7110   -0.7780    0.0580 C.3    36  LEU36       0.0297
    101  CG       -10.5620   -1.2870    1.2070 C.3    36  LEU36       0.0022
    102  CD1      -10.2540   -0.4750    2.4550 C.3    36  LEU36       0.0001
    103  CD2      -12.0230   -1.1660    0.8500 C.3    36  LEU36       0.0001
    104  N         -9.5330   -2.1900   -5.8870 N.3    39  GLN39      -0.1245
    105  CA       -10.7870   -1.6640   -6.4280 C.3    39  GLN39       0.1566
    106  C        -10.9240   -0.1240   -6.5000 C.2    39  GLN39       0.2260
    107  O        -12.0490    0.3850   -6.7290 O.2    39  GLN39      -0.2867
    108  CB       -11.9270   -2.2560   -5.6390 C.3    39  GLN39       0.0367
    109  CG       -11.9490   -3.7710   -5.7540 C.3    39  GLN39       0.0905
    110  CD       -12.8990   -4.3700   -4.7790 C.2    39  GLN39       0.2608
    111  OE1      -14.0880   -4.5770   -5.0620 O.2    39  GLN39      -0.2717
    112  NE2      -12.4160   -4.5780   -3.5870 N.am   39  GLN39      -0.0878
    113  N        -10.7360    1.8910   -3.9380 N.3    41  LEU41      -0.1245
    114  CA       -11.5750    2.3100   -2.8020 C.3    41  LEU41       0.1561
    115  C        -10.7950    2.7460   -1.5780 C.2    41  LEU41       0.2260
    116  O        -11.4070    2.9620   -0.5380 O.2    41  LEU41      -0.2867
    117  CB       -12.5390    1.2070   -2.4010 C.3    41  LEU41       0.0270
    118  CG       -13.4500    0.6720   -3.5120 C.3    41  LEU41       0.0019
    119  CD1      -14.2300   -0.5520   -2.9880 C.3    41  LEU41       0.0001
    120  CD2      -14.3580    1.7560   -4.0910 C.3    41  LEU41       0.0001
    121  N        -14.9040    4.9790    0.7260 N.3    47  ILE47      -0.1245
    122  CA       -15.4880    4.1420    1.8010 C.3    47  ILE47       0.1561
    123  C        -16.7530    4.7830    2.3370 C.2    47  ILE47       0.2260
    124  O        -17.7160    4.0930    2.6550 O.2    47  ILE47      -0.2867
    125  CB       -14.4240    3.8940    2.9050 C.3    47  ILE47       0.0252
    126  CG1      -13.1960    3.1030    2.3790 C.3    47  ILE47       0.0019
    127  CG2      -15.0640    3.2390    4.1340 C.3    47  ILE47       0.0019
    128  CD1      -11.9210    3.1540    3.2690 C.3    47  ILE47       0.0001
    129  N        -19.7190    4.0020    0.0880 N.3    50  ILE50      -0.1231
    130  CA       -20.2610    2.6680    0.3730 C.3    50  ILE50       0.1692
    131  C        -21.0220    2.6580    1.7030 C.2    50  ILE50       0.2591
    132  O        -22.1060    2.0460    1.8290 O.2    50  ILE50      -0.2718
    133  CB       -19.1520    1.6240    0.2590 C.3    50  ILE50       0.0266
    134  CG1      -18.6770    1.5790   -1.1930 C.3    50  ILE50       0.0019
    135  CG2      -19.6180    0.2960    0.8060 C.3    50  ILE50       0.0020
    136  CD1      -17.3420    0.8900   -1.2940 C.3    50  ILE50       0.0001
    137  N        -20.4520    3.2930    2.7350 N.am   51  ALA51      -0.1980
    138  CA       -21.1660    3.3710    4.0030 C.3    51  ALA51       0.1597
    139  C        -22.5470    3.9260    3.8830 C.2    51  ALA51       0.2287
    140  O        -23.4860    3.4200    4.4830 O.2    51  ALA51      -0.2864
    141  CB       -20.3910    4.1930    4.9840 C.3    51  ALA51       0.0319
    142  N        -23.1920   -1.1830   -1.8030 N.3    55  ILE55      -0.1231
    143  CA       -22.5950   -1.6400   -3.0840 C.3    55  ILE55       0.1692
    144  C        -22.8500   -3.1290   -3.1930 C.2    55  ILE55       0.2593
    145  O        -22.6440   -3.8810   -2.2600 O.2    55  ILE55      -0.2718
    146  CB       -21.0990   -1.3350   -3.1710 C.3    55  ILE55       0.0266
    147  CG1      -20.5960   -1.4380   -4.6380 C.3    55  ILE55       0.0019
    148  CG2      -20.2730   -2.0910   -2.1430 C.3    55  ILE55       0.0020
    149  CD1      -19.3610   -0.5980   -4.8590 C.3    55  ILE55       0.0001
    150  N        -23.2760   -3.5640   -4.3610 N.am   56  GLY56      -0.1942
    151  CA       -23.4230   -4.9970   -4.5990 C.3    56  GLY56       0.2014
    152  C        -24.3750   -5.6610   -3.6150 C.2    56  GLY56       0.2639
    153  O        -25.5300   -5.2770   -3.4700 O.2    56  GLY56      -0.2714
    154  N        -23.8430   -6.6430   -2.9130 N.am   57  GLN57      -0.1963
    155  CA       -24.5860   -7.3950   -1.9000 C.3    57  GLN57       0.1733
    156  C        -24.8300   -6.6170   -0.5970 C.2    57  GLN57       0.2616
    157  O        -25.6210   -7.0380    0.1960 O.2    57  GLN57      -0.2715
    158  CB       -23.9100   -8.7280   -1.5610 C.3    57  GLN57       0.0408
    159  CG       -23.7740   -9.6190   -2.7820 C.3    57  GLN57       0.0908
    160  CD       -23.3390  -11.0150   -2.4490 C.2    57  GLN57       0.2608
    161  OE1      -23.3670  -11.4380   -1.2730 O.2    57  GLN57      -0.2717
    162  NE2      -22.9160  -11.7540   -3.4710 N.am   57  GLN57      -0.0878
    163  N        -24.1140   -5.5130   -0.3910 N.am   58  MET58      -0.1977
    164  CA       -24.2460   -4.7110    0.8120 C.3    58  MET58       0.1605
    165  C        -25.2510   -3.5940    0.6720 C.2    58  MET58       0.2287
    166  O        -25.1780   -2.8370   -0.2930 O.2    58  MET58      -0.2864
    167  CB       -22.8560   -4.1250    1.1870 C.3    58  MET58       0.0413
    168  CG       -22.8520   -3.4310    2.5230 C.3    58  MET58       0.0598
    169  SD       -21.3050   -2.4730    2.7430 S.3    58  MET58      -0.1393
    170  CE       -21.9270   -1.0210    3.6110 C.3    58  MET58       0.0692
    171  N        -26.1050    2.3650    4.8690 N.3    61  TYR61      -0.1241
    172  CA       -26.3770    2.6570    6.2920 C.3    61  TYR61       0.1605
    173  C        -26.4550    4.1540    6.5190 C.2    61  TYR61       0.2264
    174  O        -26.4730    4.5670    7.6760 O.2    61  TYR61      -0.2867
    175  CB       -25.2630    2.0510    7.1910 C.3    61  TYR61       0.0534
    176  CG       -25.3460    0.5280    7.1490 C.ar   61  TYR61      -0.0201
    177  CD1      -26.1840   -0.1510    8.0020 C.ar   61  TYR61      -0.0009
    178  CD2      -24.7250   -0.1940    6.1480 C.ar   61  TYR61      -0.0009
    179  CE1      -26.3600   -1.5220    7.8920 C.ar   61  TYR61       0.0417
    180  CE2      -24.9120   -1.5680    6.0080 C.ar   61  TYR61       0.0417
    181  CZ       -25.7460   -2.2270    6.8750 C.ar   61  TYR61       0.1957
    182  OH       -25.9210   -3.5710    6.7340 O.3    61  TYR61      -0.2866
    183  N        -26.3420    6.4230   10.1330 N.3    65  LEU65      -0.1245
    184  CA       -25.0760    6.9130   10.5670 C.3    65  LEU65       0.1561
    185  C        -25.0690    8.3690   11.1240 C.2    65  LEU65       0.2260
    186  O        -24.0730    8.8230   11.7170 O.2    65  LEU65      -0.2867
    187  CB       -24.0690    6.8080    9.4380 C.3    65  LEU65       0.0270
    188  CG       -23.6890    5.3900    9.0430 C.3    65  LEU65       0.0019
    189  CD1      -22.9410    5.3320    7.7130 C.3    65  LEU65       0.0001
    190  CD2      -22.7440    4.8370   10.0990 C.3    65  LEU65       0.0001
    191  N        -17.0400    7.1460    9.9700 N.3    73  VAL73      -0.1245
    192  CA       -16.7150    5.7100   10.0340 C.3    73  VAL73       0.1561
    193  C        -15.6510    5.3860    8.9710 C.2    73  VAL73       0.2260
    194  O        -14.7850    4.5720    9.1620 O.2    73  VAL73      -0.2867
    195  CB       -17.9950    4.8140    9.9500 C.3    73  VAL73       0.0252
    196  CG1      -18.6770    4.8180    8.5920 C.3    73  VAL73       0.0019
    197  CG2      -17.6670    3.4060   10.3760 C.3    73  VAL73       0.0019
    198  N        -12.0160    3.4290    9.3750 N.3    77  ILE77      -0.1245
    199  CA       -11.7140    2.2250    8.6000 C.3    77  ILE77       0.1561
    200  C        -10.4060    2.4380    7.8300 C.2    77  ILE77       0.2260
    201  O         -9.5730    1.5250    7.7910 O.2    77  ILE77      -0.2867
    202  CB       -12.8530    1.8930    7.6160 C.3    77  ILE77       0.0252
    203  CG1      -14.0880    1.3640    8.3900 C.3    77  ILE77       0.0019
    204  CG2      -12.4060    0.9190    6.5380 C.3    77  ILE77       0.0019
    205  CD1      -15.3610    1.2700    7.6730 C.3    77  ILE77       0.0001
@<TRIPOS>BOND
     1   107   106    2
     2   106   105    1
     3   105   104    1
     4   105   108    1
     5   109   108    1
     6   109   110    1
     7    63    61    1
     8    72    71    1
     9   111   110    2
    10   149   147    1
    11    62    61    1
    12   110   112   am
    13   147   146    1
    14   151   150    1
    15   151   152    1
    16    61    60    2
    17   150   144   am
    18    71    70    1
    19   120   118    1
    20   113   114    1
    21   152   153    2
    22   152   154   am
    23   118   119    1
    24   118   117    1
    25   162   160   am
    26    60    59    1
    27    70    69    1
    28    99    98    2
    29   144   143    1
    30   144   145    2
    31   146   143    1
    32   146   148    1
    33   143   142    1
    34   154   155    1
    35    92    91    2
    36   114   117    1
    37   114   115    1
    38   159   160    1
    39   159   158    1
    40   160   161    2
    41    98    97    1
    42    59    58    1
    43    69    68    1
    44   155   158    1
    45   155   156    1
    46    91    90    1
    47    91    96   am
    48   115   116    2
    49   136   134    1
    50    90    89    1
    51    90    93    1
    52   134   133    1
    53    97    96    1
    54    97   100    1
    55    58    57    1
    56    95    93    1
    57    68    65    1
    58   156   163   am
    59   156   157    2
    60   163   164    1
    61   166   165    2
    62    57    54    1
    63    65    64    1
    64    65    66    1
    65    93    94    1
    66   100   101    1
    67   129   130    1
    68   133   130    1
    69   133   135    1
    70   130   131    1
    71   165   164    1
    72   121   122    1
    73   164   167    1
    74    54    55    1
    75    54    53    1
    76   103   101    1
    77    66    73   am
    78    66    67    2
    79   167   168    1
    80   101   102    1
    81    55    56    2
    82    73    74    1
    83   131   132    2
    84   131   137   am
    85   122   123    1
    86   122   125    1
    87    48    47    2
    88    76    75    2
    89    53    47   am
    90   123   124    2
    91    51    49    1
    92   126   125    1
    93   126   128    1
    94    80    78   am
    95    47    46    1
    96    79    78    2
    97    44    42   am
    98   168   169    1
    99   137   138    1
   100   169   170    1
   101    78    77    1
   102   125   127    1
   103    74    75    1
   104    74    77    1
   105    75    81   am
   106    42    43    2
   107    42    41    1
   108    49    46    1
   109    49    50    1
   110    46    45    1
   111   139   138    1
   112   139   140    2
   113   138   141    1
   114    41    38    1
   115    81    82    1
   116    88    86    1
   117    82    83    1
   118    82    85    1
   119    83    84    2
   120    50    52    1
   121    40    39    2
   122    35    36   ar
   123    35    33   ar
   124   171   172    1
   125    36    34   ar
   126    38    39    1
   127    38    37    1
   128    85    86    1
   129    86    87    1
   130    33    32   ar
   131   180   178   ar
   132   180   181   ar
   133   178   176   ar
   134   172   173    1
   135   172   175    1
   136   173   174    2
   137   204   202    1
   138    34    32   ar
   139   182   181    1
   140   181   179   ar
   141    32    31    1
   142   176   175    1
   143   176   177   ar
   144   202   203    1
   145   202   199    1
   146   205   203    1
   147   189   188    1
   148   201   200    2
   149   200   199    1
   150    25    26    1
   151    25    22    1
   152   179   177   ar
   153    24    23    2
   154    31    28    1
   155   196   195    1
   156   199   198    1
   157    23    22    1
   158    23    27   am
   159   193   194    2
   160   193   192    1
   161   188   187    1
   162   188   190    1
   163    28    27    1
   164    28    29    1
   165    22    21    1
   166   187   184    1
   167    16    15    1
   168   195   192    1
   169   195   197    1
   170   191   192    1
   171    15    12    1
   172    30    29    2
   173   183   184    1
   174     4     3    2
   175    14    13    2
   176    21    19   am
   177   184   185    1
   178    12    13    1
   179    12    11    1
   180   185   186    2
   181     3    11   am
   182     3     2    1
   183    19    20    2
   184    19    18    1
   185     5     2    1
   186     5     6    1
   187     2     1    1
   188     6     7   ar
   189     6     8   ar
   190     7     9   ar
   191    18    17    1
   192     8    10   ar
   193     9    10   ar
