@<TRIPOS>MOLECULE
tmp/4kmnA00.pdb
 145 143 0 0 0
SMALL
GASTEIGER

@<TRIPOS>ATOM
      1  N          0.4140   42.2050   14.9380 N.3    42  VAL42      -0.1245
      2  CA         1.4230   42.4300   15.9770 C.3    42  VAL42       0.1561
      3  C          0.9660   41.8680   17.3180 C.2    42  VAL42       0.2260
      4  O          1.7650   41.7440   18.2330 O.2    42  VAL42      -0.2867
      5  CB         1.7320   43.9600   16.0870 C.3    42  VAL42       0.0252
      6  CG1        2.6590   44.2810   17.2020 C.3    42  VAL42       0.0019
      7  CG2        2.3380   44.4500   14.7980 C.3    42  VAL42       0.0019
      8  N         -1.7270   43.0230   19.2910 N.3    44  ARG44      -0.1245
      9  CA        -2.3230   43.9900   20.2090 C.3    44  ARG44       0.1563
     10  C         -3.2990   44.8410   19.4210 C.2    44  ARG44       0.2260
     11  O         -3.0300   45.2010   18.2640 O.2    44  ARG44      -0.2867
     12  CB        -1.2370   44.8540   20.8650 C.3    44  ARG44       0.0307
     13  CG        -0.4890   45.6860   19.8650 C.3    44  ARG44       0.0489
     14  CD         0.6960   46.4590   20.4190 C.3    44  ARG44       0.2205
     15  NE         1.2910   47.2450   19.3330 N.pl3  44  ARG44      -0.0865
     16  CZ         2.5840   47.4920   19.1740 C.cat  44  ARG44       0.5346
     17  NH1        3.4690   47.0270   20.0490 N.pl3  44  ARG44       0.1354
     18  NH2        2.9950   48.2200   18.1380 N.pl3  44  ARG44       0.1354
     19  N         -3.3600   46.4510   15.4860 N.3    47  ASP47      -0.1225
     20  CA        -2.0730   46.8570   14.9250 C.3    47  ASP47       0.1805
     21  C         -1.5150   45.7820   14.0030 C.2    47  ASP47       0.2598
     22  O         -1.3540   44.6270   14.4120 O.2    47  ASP47      -0.2718
     23  CB        -1.0420   47.0630   16.0350 C.3    47  ASP47       0.1424
     24  CG        -1.3090   48.2670   16.9080 C.2    47  ASP47       0.3668
     25  OD1       -2.4050   48.8520   16.8950 O.co2  47  ASP47      -0.2456
     26  OD2       -0.3900   48.6150   17.6630 O.co2  47  ASP47      -0.2456
     27  N         -1.1820   46.1760   12.7750 N.am   48  VAL48      -0.1966
     28  CA        -0.5270   45.2850   11.8260 C.3    48  VAL48       0.1727
     29  C          0.7050   45.9580   11.2670 C.2    48  VAL48       0.2616
     30  O          0.8310   47.1630   11.3310 O.2    48  VAL48      -0.2715
     31  CB        -1.4690   44.8810   10.6380 C.3    48  VAL48       0.0290
     32  CG1       -2.7120   44.2050   11.1560 C.3    48  VAL48       0.0023
     33  CG2       -1.8310   46.1110    9.7500 C.3    48  VAL48       0.0023
     34  N          1.6230   45.1740   10.7280 N.am   49  LYS49      -0.1977
     35  CA         2.8120   45.7040   10.0560 C.3    49  LYS49       0.1596
     36  C          3.0160   44.9750    8.7520 C.2    49  LYS49       0.2287
     37  O          2.6610   43.7980    8.6440 O.2    49  LYS49      -0.2864
     38  CB         4.0590   45.5080   10.9210 C.3    49  LYS49       0.0298
     39  CG         4.0540   46.3490   12.1750 C.3    49  LYS49       0.0038
     40  CD         5.3140   46.1840   12.9250 C.3    49  LYS49       0.0206
     41  CE         5.3000   47.1030   14.1450 C.3    49  LYS49       0.1093
     42  NZ         6.5530   46.9930   14.8750 N.3    49  LYS49      -0.1314
     43  N          3.4830   50.2270    9.9000 N.3    56  GLY56      -0.1210
     44  CA         2.4440   49.8180   10.8300 C.3    56  GLY56       0.1956
     45  C          1.1630   50.6080   10.6080 C.2    56  GLY56       0.2612
     46  O          1.1990   51.8230   10.3740 O.2    56  GLY56      -0.2717
     47  N          0.0250   49.9290   10.6980 N.am   57  LEU57      -0.1965
     48  CA        -1.2850   50.5680   10.6220 C.3    57  LEU57       0.1728
     49  C         -2.2140   50.0060   11.6900 C.2    57  LEU57       0.2616
     50  O         -2.1490   48.8120   12.0440 O.2    57  LEU57      -0.2715
     51  CB        -1.9020   50.3750    9.2190 C.3    57  LEU57       0.0311
     52  CG        -1.2480   51.2010    8.1180 C.3    57  LEU57       0.0022
     53  CD1       -1.8800   50.8270    6.7770 C.3    57  LEU57       0.0001
     54  CD2       -1.4030   52.6690    8.3730 C.3    57  LEU57       0.0001
     55  N         -3.0640   50.8800   12.2130 N.am   58  ARG58      -0.1963
     56  CA        -4.0620   50.5340   13.2200 C.3    58  ARG58       0.1729
     57  C         -5.3230   51.3840   12.9920 C.2    58  ARG58       0.2616
     58  O         -5.3910   52.1910   12.0460 O.2    58  ARG58      -0.2715
     59  CB        -3.5220   50.7810   14.6360 C.3    58  ARG58       0.0348
     60  CG        -3.2130   52.2520   14.9320 C.3    58  ARG58       0.0492
     61  CD        -2.9890   52.4930   16.3980 C.3    58  ARG58       0.2205
     62  NE        -1.8770   51.7010   16.8840 N.pl3  58  ARG58      -0.0865
     63  CZ        -0.6920   52.1980   17.2330 C.cat  58  ARG58       0.5346
     64  NH1       -0.4590   53.5050   17.1400 N.pl3  58  ARG58       0.1354
     65  NH2        0.2740   51.3870   17.6560 N.pl3  58  ARG58       0.1354
     66  N         -6.3190   51.1940   13.8590 N.am   59  CYS59      -0.1954
     67  CA        -7.5640   51.9500   13.7990 C.3    59  CYS59       0.1843
     68  C         -8.2310   51.7880   12.4410 C.2    59  CYS59       0.2625
     69  O         -8.6200   52.7560   11.7830 O.2    59  CYS59      -0.2714
     70  CB        -7.3120   53.4140   14.1140 C.3    59  CYS59       0.0997
     71  SG        -6.6840   53.5970   15.8330 S.3    59  CYS59      -0.0797
     72  N         -8.3530   50.5350   12.0340 N.am   60  TRP60      -0.1960
     73  CA        -9.0160   50.1770   10.7960 C.3    60  TRP60       0.1771
     74  C        -10.5090   50.5100   10.8720 C.2    60  TRP60       0.2619
     75  O        -11.1900   50.1990   11.8570 O.2    60  TRP60      -0.2715
     76  CB        -8.7870   48.6960   10.5350 C.3    60  TRP60       0.0590
     77  CG        -7.3470   48.4030   10.2250 C.ar   60  TRP60       0.0006
     78  CD1       -6.3630   48.0600   11.1170 C.ar   60  TRP60       0.0946
     79  CD2       -6.7230   48.4560    8.9390 C.ar   60  TRP60       0.0152
     80  NE1       -5.1660   47.9010   10.4550 N.ar   60  TRP60      -0.2442
     81  CE2       -5.3650   48.1300    9.1170 C.ar   60  TRP60       0.0810
     82  CE3       -7.1840   48.7340    7.6500 C.ar   60  TRP60       0.0012
     83  CZ2       -4.4650   48.0960    8.0620 C.ar   60  TRP60       0.0191
     84  CZ3       -6.2840   48.7060    6.5990 C.ar   60  TRP60       0.0001
     85  CH2       -4.9530   48.3710    6.8040 C.ar   60  TRP60       0.0015
     86  N        -10.9980   51.1810    9.8380 N.am   61  GLU61      -0.1977
     87  CA       -12.3820   51.6300    9.7770 C.3    61  GLU61       0.1602
     88  C        -13.1700   50.8660    8.7320 C.2    61  GLU61       0.2287
     89  O        -12.6150   50.2900    7.7860 O.2    61  GLU61      -0.2864
     90  CB       -12.4410   53.1180    9.4310 C.3    61  GLU61       0.0415
     91  CG       -11.6920   53.9900   10.4250 C.3    61  GLU61       0.1163
     92  CD       -11.7080   55.4530   10.0630 C.2    61  GLU61       0.3649
     93  OE1      -12.2100   55.8050    8.9740 O.co2  61  GLU61      -0.2457
     94  OE2      -11.2190   56.2580   10.8800 O.co2  61  GLU61      -0.2457
     95  N        -12.2920   50.4110    4.8530 N.3    64  ASP64      -0.1239
     96  CA       -10.8630   50.4770    4.6030 C.3    64  ASP64       0.1674
     97  C        -10.4450   49.3110    3.7180 C.2    64  ASP64       0.2266
     98  O        -10.8570   48.1620    3.9250 O.2    64  ASP64      -0.2867
     99  CB       -10.0600   50.4170    5.9130 C.3    64  ASP64       0.1410
    100  CG        -9.8280   51.7830    6.5380 C.2    64  ASP64       0.3668
    101  OD1      -10.3150   52.7810    5.9820 O.co2  64  ASP64      -0.2456
    102  OD2       -9.1870   51.8430    7.6210 O.co2  64  ASP64      -0.2456
    103  N         -4.8030   51.6630    1.8600 N.3    69  GLU69      -0.1245
    104  CA        -4.1370   52.2100    3.0450 C.3    69  GLU69       0.1567
    105  C         -2.6130   52.0210    2.9570 C.2    69  GLU69       0.2260
    106  O         -1.8470   52.9130    3.3390 O.2    69  GLU69      -0.2867
    107  CB        -4.7040   51.5900    4.3310 C.3    69  GLU69       0.0388
    108  CG        -6.1790   51.8550    4.5540 C.3    69  GLU69       0.1160
    109  CD        -6.5140   53.3390    4.5990 C.2    69  GLU69       0.3649
    110  OE1       -6.0690   54.0260    5.5410 O.co2  69  GLU69      -0.2457
    111  OE2       -7.2320   53.8270    3.6920 O.co2  69  GLU69      -0.2457
    112  N         -1.4650   54.6560    0.5900 N.3    72  LYS72      -0.1231
    113  CA        -1.6960   55.9790    1.1440 C.3    72  LYS72       0.1693
    114  C         -0.5590   56.3460    2.1100 C.2    72  LYS72       0.2592
    115  O         -0.0500   57.4740    2.1100 O.2    72  LYS72      -0.2718
    116  CB        -3.0490   55.9660    1.8790 C.3    72  LYS72       0.0285
    117  CG        -3.4860   57.2500    2.4760 C.3    72  LYS72       0.0035
    118  CD        -4.8570   57.0940    3.1540 C.3    72  LYS72       0.0206
    119  CE        -5.9410   56.5620    2.1930 C.3    72  LYS72       0.1093
    120  NZ        -7.3240   56.5370    2.8440 N.3    72  LYS72      -0.1314
    121  N         -0.1370   55.3750    2.9090 N.am   73  TRP73      -0.1962
    122  CA         0.7890   55.6230    4.0030 C.3    73  TRP73       0.1771
    123  C          2.2400   55.2350    3.7130 C.2    73  TRP73       0.2619
    124  O          3.1620   55.8940    4.2090 O.2    73  TRP73      -0.2715
    125  CB         0.2900   54.8760    5.2430 C.3    73  TRP73       0.0590
    126  CG        -0.9100   55.5230    5.8620 C.ar   73  TRP73       0.0006
    127  CD1       -2.2000   55.0700    5.8370 C.ar   73  TRP73       0.0946
    128  CD2       -0.9210   56.7290    6.6260 C.ar   73  TRP73       0.0152
    129  NE1       -3.0160   55.9350    6.5220 N.ar   73  TRP73      -0.2442
    130  CE2       -2.2560   56.9630    7.0180 C.ar   73  TRP73       0.0810
    131  CE3        0.0630   57.6520    6.9890 C.ar   73  TRP73       0.0012
    132  CZ2       -2.6290   58.0800    7.7780 C.ar   73  TRP73       0.0191
    133  CZ3       -0.2950   58.7470    7.7460 C.ar   73  TRP73       0.0001
    134  CH2       -1.6390   58.9620    8.1280 C.ar   73  TRP73       0.0015
    135  N          2.4390   54.1910    2.9000 N.am   74  PHE74      -0.1974
    136  CA         3.7840   53.6770    2.6160 C.3    74  PHE74       0.1639
    137  C          4.0210   53.4770    1.1320 C.2    74  PHE74       0.2290
    138  O          4.3460   52.3720    0.6960 O.2    74  PHE74      -0.2864
    139  CB         4.0320   52.3650    3.3800 C.3    74  PHE74       0.0560
    140  CG         3.6150   52.4350    4.8360 C.ar   74  PHE74      -0.0200
    141  CD1        4.3180   53.2170    5.7200 C.ar   74  PHE74      -0.0042
    142  CD2        2.5310   51.7320    5.2860 C.ar   74  PHE74      -0.0042
    143  CE1        3.9310   53.3180    7.0480 C.ar   74  PHE74      -0.0003
    144  CE2        2.1290   51.8230    6.5920 C.ar   74  PHE74      -0.0003
    145  CZ         2.8300   52.6090    7.4820 C.ar   74  PHE74      -0.0000
@<TRIPOS>BOND
     1   112   113    1
     2   138   137    2
     3   137   136    1
     4   113   116    1
     5   113   114    1
     6   103   104    1
     7   116   117    1
     8   115   114    2
     9   114   121   am
    10   119   120    1
    11   119   118    1
    12   117   118    1
    13   136   135    1
    14   136   139    1
    15   135   123   am
    16   121   122    1
    17   105   104    1
    18   105   106    2
    19   104   107    1
    20   139   140    1
    21   111   109   ar
    22   123   122    1
    23   123   124    2
    24    97    98    2
    25    97    96    1
    26   122   125    1
    27   107   108    1
    28   108   109    1
    29   109   110   ar
    30    96    95    1
    31    96    99    1
    32   140   142   ar
    33   140   141   ar
    34   125   126    1
    35   142   144   ar
    36   141   143   ar
    37   127   126   ar
    38   127   129   ar
    39   126   128   ar
    40    99   100    1
    41   101   100   ar
    42   129   130   ar
    43   100   102   ar
    44   144   145   ar
    45    84    85   ar
    46    84    82   ar
    47   128   131   ar
    48   128   130   ar
    49    53    52    1
    50    85    83   ar
    51   131   133   ar
    52   130   132   ar
    53   143   145   ar
    54    82    79   ar
    55   133   134   ar
    56   132   134   ar
    57    89    88    2
    58    83    81   ar
    59    52    54    1
    60    52    51    1
    61    37    36    2
    62    88    87    1
    63    36    35    1
    64    79    81   ar
    65    79    77   ar
    66    93    92   ar
    67    81    80   ar
    68    51    48    1
    69    90    87    1
    70    90    91    1
    71    33    31    1
    72    87    86    1
    73    86    74   am
    74    43    44    1
    75    35    34    1
    76    35    38    1
    77    92    91    1
    78    92    94   ar
    79    77    76    1
    80    77    78   ar
    81    46    45    2
    82    80    78   ar
    83    76    73    1
    84    45    47   am
    85    45    44    1
    86    48    47    1
    87    48    49    1
    88    31    32    1
    89    31    28    1
    90    34    29   am
    91    73    74    1
    92    73    72    1
    93    74    75    2
    94    38    39    1
    95    29    30    2
    96    29    28    1
    97    49    50    2
    98    49    55   am
    99    69    68    2
   100    28    27    1
   101    72    68   am
   102    58    57    2
   103    39    40    1
   104    55    56    1
   105    68    67    1
   106    27    21   am
   107    40    41    1
   108    57    56    1
   109    57    66   am
   110    56    59    1
   111    67    66    1
   112    67    70    1
   113    21    22    2
   114    21    20    1
   115    70    71    1
   116    41    42    1
   117    59    60    1
   118     7     5    1
   119    20    19    1
   120    20    23    1
   121    60    61    1
   122     1     2    1
   123     2     5    1
   124     2     3    1
   125    23    24    1
   126     5     6    1
   127    61    62    1
   128    62    63    2
   129    25    24   ar
   130    24    26   ar
   131    64    63    1
   132    63    65    1
   133     3     4    2
   134    18    16    1
   135    11    10    2
   136    16    15    2
   137    16    17    1
   138     8     9    1
   139    15    14    1
   140    10     9    1
   141    13    14    1
   142    13    12    1
   143     9    12    1
