@<TRIPOS>MOLECULE
tmp/4kmpB00.pdb
 145 143 0 0 0
SMALL
GASTEIGER

@<TRIPOS>ATOM
      1  N         17.4990    8.7170   11.0080 N.3    42  LEU42      -0.1245
      2  CA        18.4620    9.4030   10.1430 C.3    42  LEU42       0.1561
      3  C         18.0930   10.8650    9.8910 C.2    42  LEU42       0.2260
      4  O         18.9440   11.6860    9.5540 O.2    42  LEU42      -0.2867
      5  CB        18.5720    8.6890    8.7970 C.3    42  LEU42       0.0270
      6  CG        19.1330    7.2700    8.7330 C.3    42  LEU42       0.0019
      7  CD1       19.9330    7.0690    7.4420 C.3    42  LEU42       0.0001
      8  CD2       19.9740    6.9580    9.9400 C.3    42  LEU42       0.0001
      9  N         15.6630   11.4180    7.6200 N.3    44  GLU44      -0.1245
     10  CA        15.2750   11.3450    6.2170 C.3    44  GLU44       0.1567
     11  C         14.1000   10.3970    6.1170 C.2    44  GLU44       0.2260
     12  O         14.2800    9.1830    6.1730 O.2    44  GLU44      -0.2867
     13  CB        16.4330   10.8170    5.3710 C.3    44  GLU44       0.0388
     14  CG        16.0920   10.6490    3.8900 C.3    44  GLU44       0.1160
     15  CD        17.1770    9.9140    3.1200 C.2    44  GLU44       0.3649
     16  OE1       18.3240    9.8480    3.6240 O.co2  44  GLU44      -0.2457
     17  OE2       16.8800    9.3930    2.0210 O.co2  44  GLU44      -0.2457
     18  N         13.3830    6.6750    7.8490 N.3    47  LYS47      -0.1231
     19  CA        14.6010    5.8680    7.9490 C.3    47  LYS47       0.1693
     20  C         15.1750    5.8840    9.3520 C.2    47  LYS47       0.2592
     21  O         15.3850    6.9570    9.9410 O.2    47  LYS47      -0.2718
     22  CB        15.6700    6.3830    6.9940 C.3    47  LYS47       0.0285
     23  CG        15.4380    6.0050    5.5510 C.3    47  LYS47       0.0035
     24  CD        16.5950    6.4850    4.7080 C.3    47  LYS47       0.0206
     25  CE        16.4350    6.0110    3.2830 C.3    47  LYS47       0.1093
     26  NZ        17.6730    6.2470    2.5350 N.3    47  LYS47      -0.1314
     27  N         15.4310    4.6880    9.8790 N.am   48  VAL48      -0.1966
     28  CA        16.1840    4.5430   11.1100 C.3    48  VAL48       0.1727
     29  C         17.2820    3.5280   10.8680 C.2    48  VAL48       0.2616
     30  O         17.2200    2.7610    9.9160 O.2    48  VAL48      -0.2715
     31  CB        15.3050    4.0570   12.2720 C.3    48  VAL48       0.0290
     32  CG1       14.1370    5.0240   12.4850 C.3    48  VAL48       0.0023
     33  CG2       14.7950    2.6390   12.0020 C.3    48  VAL48       0.0023
     34  N         18.2850    3.5180   11.7320 N.am   49  LYS49      -0.1977
     35  CA        19.3170    2.4910   11.6630 C.3    49  LYS49       0.1596
     36  C         19.6140    1.9900   13.0670 C.2    49  LYS49       0.2287
     37  O         19.4690    2.7340   14.0260 O.2    49  LYS49      -0.2864
     38  CB        20.5970    3.0370   11.0430 C.3    49  LYS49       0.0298
     39  CG        20.5830    3.1060    9.5300 C.3    49  LYS49       0.0038
     40  CD        21.9540    3.5270    9.0210 C.3    49  LYS49       0.0206
     41  CE        22.0180    3.5340    7.5100 C.3    49  LYS49       0.1093
     42  NZ        23.3150    4.1100    7.0440 N.3    49  LYS49      -0.1314
     43  N         19.3520   -0.9050    8.6250 N.3    56  GLY56      -0.1210
     44  CA        18.3810    0.1570    8.4710 C.3    56  GLY56       0.1956
     45  C         16.9930   -0.3580    8.1480 C.2    56  GLY56       0.2612
     46  O         16.8250   -1.3590    7.4590 O.2    56  GLY56      -0.2717
     47  N         15.9890    0.3450    8.6420 N.am   57  LEU57      -0.1965
     48  CA        14.6080    0.0050    8.3540 C.3    57  LEU57       0.1728
     49  C         13.8840    1.2810    7.9870 C.2    57  LEU57       0.2617
     50  O         14.1340    2.3390    8.5760 O.2    57  LEU57      -0.2715
     51  CB        13.9430   -0.6330    9.5770 C.3    57  LEU57       0.0311
     52  CG        14.3610   -2.0570    9.9460 C.3    57  LEU57       0.0022
     53  CD1       13.6910   -2.4730   11.2470 C.3    57  LEU57       0.0001
     54  CD2       14.0140   -3.0370    8.8370 C.3    57  LEU57       0.0001
     55  N         12.9820    1.1760    7.0180 N.am   58  THR58      -0.1937
     56  CA        12.2010    2.3150    6.5580 C.3    58  THR58       0.2028
     57  C         10.8790    1.7800    5.9930 C.2    58  THR58       0.2642
     58  O         10.7000    0.5710    5.8820 O.2    58  THR58      -0.2714
     59  CB        12.9760    3.1050    5.4860 C.3    58  THR58       0.1808
     60  OG1       12.3570    4.3690    5.2790 O.3    58  THR58      -0.2208
     61  CG2       13.0030    2.3470    4.1590 C.3    58  THR58       0.0379
     62  N          9.9610    2.6750    5.6500 N.am   59  ASP59      -0.1957
     63  CA         8.6020    2.2870    5.2310 C.3    59  ASP59       0.1840
     64  C          7.8150    1.5250    6.3060 C.2    59  ASP59       0.2622
     65  O          7.2110    0.4850    6.0310 O.2    59  ASP59      -0.2715
     66  CB         8.6230    1.4750    3.9340 C.3    59  ASP59       0.1450
     67  CG         7.8750    2.1580    2.8130 C.2    59  ASP59       0.3671
     68  OD1        6.6260    2.0540    2.7780 O.co2  59  ASP59      -0.2456
     69  OD2        8.5400    2.8000    1.9700 O.co2  59  ASP59      -0.2456
     70  N          7.8260    2.0390    7.5320 N.am   60  TRP60      -0.1960
     71  CA         7.0940    1.3880    8.6100 C.3    60  TRP60       0.1771
     72  C          5.6060    1.4440    8.3110 C.2    60  TRP60       0.2619
     73  O          5.1000    2.4520    7.8090 O.2    60  TRP60      -0.2715
     74  CB         7.3860    2.0720    9.9490 C.3    60  TRP60       0.0590
     75  CG         8.7980    1.9240   10.3910 C.ar   60  TRP60       0.0006
     76  CD1        9.8460    2.7580   10.1130 C.ar   60  TRP60       0.0946
     77  CD2        9.3250    0.8660   11.1910 C.ar   60  TRP60       0.0152
     78  NE1       10.9990    2.2830   10.7050 N.ar   60  TRP60      -0.2442
     79  CE2       10.7020    1.1240   11.3750 C.ar   60  TRP60       0.0810
     80  CE3        8.7630   -0.2710   11.7770 C.ar   60  TRP60       0.0012
     81  CZ2       11.5280    0.2760   12.1150 C.ar   60  TRP60       0.0191
     82  CZ3        9.5840   -1.1070   12.5170 C.ar   60  TRP60       0.0001
     83  CH2       10.9540   -0.8270   12.6770 C.ar   60  TRP60       0.0015
     84  N          4.9050    0.3570    8.6020 N.am   61  LYS61      -0.1977
     85  CA         3.4590    0.3350    8.4530 C.3    61  LYS61       0.1596
     86  C          2.8100    0.2530    9.8360 C.2    61  LYS61       0.2287
     87  O          3.4030   -0.3000   10.7590 O.2    61  LYS61      -0.2864
     88  CB         3.0430   -0.8660    7.6040 C.3    61  LYS61       0.0298
     89  CG         3.9140   -1.1080    6.3740 C.3    61  LYS61       0.0038
     90  CD         3.7270   -0.0230    5.3230 C.3    61  LYS61       0.0206
     91  CE         4.2550   -0.4710    3.9620 C.3    61  LYS61       0.1093
     92  NZ         4.1320    0.6110    2.9450 N.3    61  LYS61      -0.1314
     93  N          3.2680   -2.4080   12.9760 N.3    64  GLU64      -0.1245
     94  CA         4.5620   -3.0700   12.9210 C.3    64  GLU64       0.1567
     95  C          5.3610   -2.8670   14.1990 C.2    64  GLU64       0.2260
     96  O          5.2870   -1.8220   14.8490 O.2    64  GLU64      -0.2867
     97  CB         5.3590   -2.6820   11.6710 C.3    64  GLU64       0.0388
     98  CG         4.7090   -3.2130   10.4060 C.3    64  GLU64       0.1160
     99  CD         5.6160   -3.2000    9.1930 C.2    64  GLU64       0.3649
    100  OE1        6.5300   -2.3470    9.1140 O.co2  64  GLU64      -0.2457
    101  OE2        5.3950   -4.0540    8.3070 O.co2  64  GLU64      -0.2457
    102  N         10.6810   -6.4090   13.3980 N.3    69  GLN69      -0.1245
    103  CA        11.2810   -6.0430   12.1240 C.3    69  GLN69       0.1566
    104  C         12.7970   -6.1250   12.2180 C.2    69  GLN69       0.2260
    105  O         13.4790   -6.5560   11.2760 O.2    69  GLN69      -0.2867
    106  CB        10.8070   -4.6640   11.6910 C.3    69  GLN69       0.0367
    107  CG         9.2990   -4.5940   11.4750 C.3    69  GLN69       0.0905
    108  CD         8.8420   -5.4810   10.3430 C.2    69  GLN69       0.2608
    109  OE1        9.4370   -5.4910    9.2650 O.2    69  GLN69      -0.2717
    110  NE2        7.7990   -6.2630   10.5900 N.am   69  GLN69      -0.0878
    111  N         13.5460   -9.7820   11.9330 N.3    72  LYS72      -0.1231
    112  CA        13.2130  -10.2540   10.5990 C.3    72  LYS72       0.1693
    113  C         14.3350   -9.9470    9.6250 C.2    72  LYS72       0.2592
    114  O         14.7920  -10.8230    8.8900 O.2    72  LYS72      -0.2718
    115  CB        11.9370   -9.5610   10.1080 C.3    72  LYS72       0.0285
    116  CG        11.6820   -9.7460    8.6250 C.3    72  LYS72       0.0035
    117  CD        10.3310   -9.1840    8.2100 C.3    72  LYS72       0.0206
    118  CE        10.0370   -9.5300    6.7660 C.3    72  LYS72       0.1093
    119  NZ         8.6760   -9.0690    6.3610 N.3    72  LYS72      -0.1314
    120  N         14.7700   -8.6970    9.6100 N.am   73  TRP73      -0.1962
    121  CA        15.7230   -8.2770    8.5880 C.3    73  TRP73       0.1771
    122  C         17.1940   -8.4520    8.9790 C.2    73  TRP73       0.2619
    123  O         18.0610   -8.6500    8.1150 O.2    73  TRP73      -0.2715
    124  CB        15.4430   -6.8330    8.1730 C.3    73  TRP73       0.0590
    125  CG        14.1740   -6.6820    7.3970 C.ar   73  TRP73       0.0006
    126  CD1       12.9870   -6.2070    7.8540 C.ar   73  TRP73       0.0946
    127  CD2       13.9680   -7.0280    6.0240 C.ar   73  TRP73       0.0152
    128  NE1       12.0540   -6.2130    6.8460 N.ar   73  TRP73      -0.2442
    129  CE2       12.6310   -6.7110    5.7090 C.ar   73  TRP73       0.0810
    130  CE3       14.7840   -7.5660    5.0290 C.ar   73  TRP73       0.0012
    131  CZ2       12.0850   -6.9300    4.4430 C.ar   73  TRP73       0.0191
    132  CZ3       14.2420   -7.7700    3.7580 C.ar   73  TRP73       0.0001
    133  CH2       12.9080   -7.4550    3.4810 C.ar   73  TRP73       0.0015
    134  N         17.4710   -8.3910   10.2740 N.am   74  TYR74      -0.1974
    135  CA        18.8470   -8.4760   10.7570 C.3    74  TYR74       0.1639
    136  C         19.0000   -9.4700   11.9130 C.2    74  TYR74       0.2290
    137  O         19.2950   -9.0790   13.0490 O.2    74  TYR74      -0.2864
    138  CB        19.3200   -7.0890   11.1770 C.3    74  TYR74       0.0560
    139  CG        19.0830   -6.0650   10.0910 C.ar   74  TYR74      -0.0198
    140  CD1       19.8990   -6.0220    8.9700 C.ar   74  TYR74      -0.0009
    141  CD2       18.0280   -5.1710   10.1670 C.ar   74  TYR74      -0.0009
    142  CE1       19.6760   -5.1100    7.9530 C.ar   74  TYR74       0.0417
    143  CE2       17.8040   -4.2460    9.1500 C.ar   74  TYR74       0.0417
    144  CZ        18.6320   -4.2210    8.0550 C.ar   74  TYR74       0.1957
    145  OH        18.4240   -3.3090    7.0410 O.3    74  TYR74      -0.2866
@<TRIPOS>BOND
     1    69    67   ar
     2    17    15   ar
     3    26    25    1
     4    68    67   ar
     5    67    66    1
     6    92    91    1
     7    15    16   ar
     8    15    14    1
     9    25    24    1
    10   133   132   ar
    11   133   131   ar
    12   132   130   ar
    13    14    13    1
    14    66    63    1
    15    91    90    1
    16    61    59    1
    17   131   129   ar
    18    24    23    1
    19   130   127   ar
    20    63    62    1
    21    63    64    1
    22    60    59    1
    23    90    89    1
    24    13    10    1
    25    59    56    1
    26    23    22    1
    27    62    57   am
    28   129   127   ar
    29   129   128   ar
    30    58    57    2
    31    57    56    1
    32   127   125   ar
    33    65    64    2
    34    11    12    2
    35    11    10    1
    36    10     9    1
    37    64    70   am
    38   119   118    1
    39    89    88    1
    40    56    55    1
    41   118   117    1
    42   128   126   ar
    43    22    19    1
    44    55    49   am
    45   145   144    1
    46    42    41    1
    47   125   126   ar
    48   125   124    1
    49     7     6    1
    50    46    45    2
    51    41    40    1
    52    70    71    1
    53    88    85    1
    54    73    72    2
    55    18    19    1
    56    19    20    1
    57   142   144   ar
    58   142   140   ar
    59    49    48    1
    60    49    50    2
    61   144   143   ar
    62   123   122    2
    63    45    44    1
    64    45    47   am
    65   124   121    1
    66   117   116    1
    67   101    99   ar
    68    72    84   am
    69    72    71    1
    70    48    47    1
    71    48    51    1
    72    85    84    1
    73    85    86    1
    74    44    43    1
    75   121   122    1
    76   121   120    1
    77    71    74    1
    78   116   115    1
    79     6     5    1
    80     6     8    1
    81     5     2    1
    82    54    52    1
    83   114   113    2
    84   140   139   ar
    85   122   134   am
    86    40    39    1
    87   100    99   ar
    88   143   141   ar
    89    99    98    1
    90   109   108    2
    91    20    27   am
    92    20    21    2
    93    39    38    1
    94     4     3    2
    95    51    52    1
    96   120   113   am
    97   113   112    1
    98    86    87    2
    99    27    28    1
   100     3     2    1
   101    30    29    2
   102    52    53    1
   103    74    75    1
   104   139   141   ar
   105   139   138    1
   106   115   112    1
   107    76    75   ar
   108    76    78   ar
   109     2     1    1
   110   134   135    1
   111   108   110   am
   112   108   107    1
   113    75    77   ar
   114    98    97    1
   115   112   111    1
   116    78    79   ar
   117   135   138    1
   118   135   136    1
   119    29    28    1
   120    29    34   am
   121    38    35    1
   122    28    31    1
   123    77    79   ar
   124    77    80   ar
   125   105   104    2
   126    79    81   ar
   127   107   106    1
   128    35    34    1
   129    35    36    1
   130    97    94    1
   131   106   103    1
   132    80    82   ar
   133   136   137    2
   134    33    31    1
   135    81    83   ar
   136   103   104    1
   137   103   102    1
   138    31    32    1
   139    82    83   ar
   140    94    93    1
   141    94    95    1
   142    36    37    2
   143    95    96    2
