@<TRIPOS>MOLECULE
tmp/4kn2C01.pdb
 214 221 0 0 0
SMALL
GASTEIGER

@<TRIPOS>ATOM
      1  N         28.9270   64.4630   12.6600 N.3    52  TYR52      -0.1241
      2  CA        27.6870   64.3570   11.9040 C.3    52  TYR52       0.1605
      3  C         26.8690   65.6470   11.9840 C.2    52  TYR52       0.2264
      4  O         25.8130   65.7600   11.3640 O.2    52  TYR52      -0.2867
      5  CB        26.8570   63.1670   12.4210 C.3    52  TYR52       0.0534
      6  CG        27.5710   61.8370   12.2890 C.ar   52  TYR52      -0.0201
      7  CD1       27.8160   61.2830   11.0340 C.ar   52  TYR52      -0.0009
      8  CD2       28.0120   61.1380   13.4130 C.ar   52  TYR52      -0.0009
      9  CE1       28.4790   60.0660   10.9000 C.ar   52  TYR52       0.0417
     10  CE2       28.6830   59.9180   13.2880 C.ar   52  TYR52       0.0417
     11  CZ        28.9120   59.3830   12.0320 C.ar   52  TYR52       0.1957
     12  OH        29.5710   58.1730   11.8830 O.3    52  TYR52      -0.2866
     13  N         25.1980   66.4070   14.4280 N.3    54  PHE54      -0.1241
     14  CA        23.9450   66.0160   15.0510 C.3    54  PHE54       0.1605
     15  C         23.7500   66.6970   16.3930 C.2    54  PHE54       0.2264
     16  O         24.5980   66.6110   17.2730 O.2    54  PHE54      -0.2867
     17  CB        23.8620   64.5020   15.2130 C.3    54  PHE54       0.0534
     18  CG        22.4680   63.9990   15.3860 C.ar   54  PHE54      -0.0203
     19  CD1       21.6880   63.7030   14.2820 C.ar   54  PHE54      -0.0042
     20  CD2       21.9270   63.8320   16.6620 C.ar   54  PHE54      -0.0042
     21  CE1       20.4000   63.2340   14.4400 C.ar   54  PHE54      -0.0003
     22  CE2       20.6530   63.3600   16.8320 C.ar   54  PHE54      -0.0003
     23  CZ        19.8770   63.0650   15.7200 C.ar   54  PHE54      -0.0000
     24  N         21.7770   66.8110   19.8170 N.3    56  TRP56      -0.1241
     25  CA        20.9240   66.0300   20.7250 C.3    56  TRP56       0.1605
     26  C         19.8230   66.9080   21.3180 C.2    56  TRP56       0.2264
     27  O         18.7770   66.4070   21.7460 O.2    56  TRP56      -0.2867
     28  CB        21.7180   65.4250   21.8860 C.3    56  TRP56       0.0550
     29  CG        22.9480   64.6250   21.5370 C.ar   56  TRP56       0.0003
     30  CD1       24.2370   64.8970   21.9190 C.ar   56  TRP56       0.0946
     31  CD2       23.0030   63.4050   20.7870 C.ar   56  TRP56       0.0152
     32  NE1       25.0830   63.9250   21.4500 N.ar   56  TRP56      -0.2442
     33  CE2       24.3550   63.0010   20.7440 C.ar   56  TRP56       0.0810
     34  CE3       22.0440   62.6110   20.1540 C.ar   56  TRP56       0.0012
     35  CZ2       24.7720   61.8460   20.0710 C.ar   56  TRP56       0.0191
     36  CZ3       22.4630   61.4570   19.4870 C.ar   56  TRP56       0.0001
     37  CH2       23.8110   61.0930   19.4460 C.ar   56  TRP56       0.0015
     38  N         26.0500   54.8720   23.1270 N.3    73  ASP73      -0.1225
     39  CA        25.6830   54.2960   21.8400 C.3    73  ASP73       0.1805
     40  C         26.6570   54.7240   20.7260 C.2    73  ASP73       0.2598
     41  O         27.0330   53.9120   19.8800 O.2    73  ASP73      -0.2718
     42  CB        24.2380   54.6700   21.4790 C.3    73  ASP73       0.1424
     43  CG        23.9800   54.6630   19.9610 C.2    73  ASP73       0.3668
     44  OD1       23.6100   53.5970   19.4180 O.co2  73  ASP73      -0.2456
     45  OD2       24.1460   55.7250   19.3130 O.co2  73  ASP73      -0.2456
     46  N         27.0660   55.9900   20.7220 N.am   74  THR74      -0.1953
     47  CA        27.9880   56.4610   19.6900 C.3    74  THR74       0.1897
     48  C         29.3930   55.8870   19.9070 C.2    74  THR74       0.2313
     49  O         30.1170   55.6290   18.9480 O.2    74  THR74      -0.2863
     50  CB        28.0190   58.0120   19.5990 C.3    74  THR74       0.1794
     51  OG1       26.6950   58.5030   19.3680 O.3    74  THR74      -0.2208
     52  CG2       28.9120   58.4770   18.4580 C.3    74  THR74       0.0378
     53  N         28.9350   52.4070   18.5020 N.3    77  TYR77      -0.1241
     54  CA        28.8460   52.5500   17.0520 C.3    77  TYR77       0.1605
     55  C         30.2000   52.8330   16.3760 C.2    77  TYR77       0.2264
     56  O         30.5470   52.1890   15.3870 O.2    77  TYR77      -0.2867
     57  CB        27.8040   53.6210   16.6630 C.3    77  TYR77       0.0534
     58  CG        27.7650   53.8780   15.1760 C.ar   77  TYR77      -0.0201
     59  CD1       26.9340   53.1460   14.3450 C.ar   77  TYR77      -0.0009
     60  CD2       28.6020   54.8270   14.5980 C.ar   77  TYR77      -0.0009
     61  CE1       26.9190   53.3700   12.9770 C.ar   77  TYR77       0.0417
     62  CE2       28.6010   55.0510   13.2410 C.ar   77  TYR77       0.0417
     63  CZ        27.7640   54.3240   12.4290 C.ar   77  TYR77       0.1957
     64  OH        27.7770   54.5640   11.0720 O.3    77  TYR77      -0.2866
     65  N         25.1030   54.1590    1.4960 N.3    92  GLN92      -0.1231
     66  CA        24.5150   55.4740    1.6850 C.3    92  GLN92       0.1698
     67  C         25.6060   56.4660    1.3220 C.2    92  GLN92       0.2593
     68  O         26.6880   56.0590    0.8990 O.2    92  GLN92      -0.2718
     69  CB        24.0660   55.6420    3.1340 C.3    92  GLN92       0.0381
     70  CG        23.1920   54.4940    3.5940 C.3    92  GLN92       0.0905
     71  CD        22.7290   54.6190    5.0330 C.2    92  GLN92       0.2608
     72  OE1       22.6280   55.7180    5.5730 O.2    92  GLN92      -0.2717
     73  NE2       22.4380   53.4830    5.6580 N.am   92  GLN92      -0.0878
     74  N         25.3480   57.7580    1.4790 N.am   93  SER93      -0.1938
     75  CA        26.3410   58.7430    1.0590 C.3    93  SER93       0.2055
     76  C         27.5300   58.8240    2.0170 C.2    93  SER93       0.2643
     77  O         28.5200   59.4830    1.7240 O.2    93  SER93      -0.2714
     78  CB        25.7060   60.1270    0.8480 C.3    93  SER93       0.2130
     79  OG        25.1810   60.6600    2.0520 O.3    93  SER93      -0.2179
     80  N         27.4390   58.1300    3.1450 N.am   94  TRP94      -0.1959
     81  CA        28.3970   58.3070    4.2350 C.3    94  TRP94       0.1771
     82  C         28.7730   56.9930    4.9370 C.2    94  TRP94       0.2619
     83  O         29.3650   57.0040    6.0110 O.2    94  TRP94      -0.2715
     84  CB        27.8630   59.3340    5.2460 C.3    94  TRP94       0.0590
     85  CG        26.4700   59.0330    5.7850 C.ar   94  TRP94       0.0006
     86  CD1       25.2780   59.2420    5.1470 C.ar   94  TRP94       0.0946
     87  CD2       26.1380   58.4860    7.0770 C.ar   94  TRP94       0.0152
     88  NE1       24.2320   58.8540    5.9560 N.ar   94  TRP94      -0.2442
     89  CE2       24.7340   58.3870    7.1420 C.ar   94  TRP94       0.0810
     90  CE3       26.8920   58.0730    8.1790 C.ar   94  TRP94       0.0012
     91  CZ2       24.0750   57.8920    8.2590 C.ar   94  TRP94       0.0191
     92  CZ3       26.2330   57.5770    9.2860 C.ar   94  TRP94       0.0001
     93  CH2       24.8410   57.4910    9.3180 C.ar   94  TRP94       0.0015
     94  N         28.4300   55.8670    4.3200 N.am   95  ARG95      -0.1977
     95  CA        28.8340   54.5620    4.8300 C.3    95  ARG95       0.1597
     96  C         28.4110   53.4450    3.8800 C.2    95  ARG95       0.2287
     97  O         27.2590   53.3840    3.4440 O.2    95  ARG95      -0.2864
     98  CB        28.2830   54.3230    6.2420 C.3    95  ARG95       0.0334
     99  CG        26.7700   54.4580    6.3750 C.3    95  ARG95       0.0492
    100  CD        26.3330   54.2250    7.8120 C.3    95  ARG95       0.2205
    101  NE        24.8800   54.1990    7.9760 N.pl3  95  ARG95      -0.0865
    102  CZ        24.2640   54.1720    9.1550 C.cat  95  ARG95       0.5346
    103  NH1       24.9700   54.1820   10.2780 N.pl3  95  ARG95       0.1354
    104  NH2       22.9430   54.1470    9.2120 N.pl3  95  ARG95       0.1354
    105  N         25.5330   48.2440   10.8790 N.3    99  PHE99      -0.1241
    106  CA        25.1150   47.0210   11.5440 C.3    99  PHE99       0.1605
    107  C         23.6220   47.0400   11.8380 C.2    99  PHE99       0.2264
    108  O         23.0160   48.1000   11.9920 O.2    99  PHE99      -0.2867
    109  CB        25.9710   46.6960   12.7800 C.3    99  PHE99       0.0534
    110  CG        26.0210   47.7930   13.8050 C.ar   99  PHE99      -0.0203
    111  CD1       24.9660   47.9710   14.7070 C.ar   99  PHE99      -0.0042
    112  CD2       27.1340   48.6290   13.8900 C.ar   99  PHE99      -0.0042
    113  CE1       25.0120   48.9860   15.6690 C.ar   99  PHE99      -0.0003
    114  CE2       27.1930   49.6420   14.8370 C.ar   99  PHE99      -0.0003
    115  CZ        26.1310   49.8210   15.7390 C.ar   99  PHE99      -0.0000
    116  N         15.7450   58.7780   13.8450 N.3   126  TRP126     -0.1227
    117  CA        16.6820   59.8890   13.8740 C.3   126  TRP126      0.1737
    118  C         17.6740   59.8520   12.7250 C.2   126  TRP126      0.2595
    119  O         18.5440   60.7140   12.6370 O.2   126  TRP126     -0.2718
    120  CB        17.4410   59.9130   15.2000 C.3   126  TRP126      0.0564
    121  CG        16.6370   60.4100   16.3240 C.ar  126  TRP126      0.0003
    122  CD1       15.2810   60.5440   16.3670 C.ar  126  TRP126      0.0946
    123  CD2       17.1280   60.8570   17.5920 C.ar  126  TRP126      0.0152
    124  NE1       14.8930   61.0450   17.5880 N.ar  126  TRP126     -0.2442
    125  CE2       16.0090   61.2450   18.3600 C.ar  126  TRP126      0.0810
    126  CE3       18.4050   60.9600   18.1580 C.ar  126  TRP126      0.0012
    127  CZ2       16.1320   61.7330   19.6640 C.ar  126  TRP126      0.0191
    128  CZ3       18.5210   61.4400   19.4440 C.ar  126  TRP126      0.0001
    129  CH2       17.3940   61.8240   20.1830 C.ar  126  TRP126      0.0015
    130  N         17.5380   58.8490   11.8640 N.am  127  HIS127     -0.1961
    131  CA        18.3850   58.7120   10.6740 C.3   127  HIS127      0.1787
    132  C         17.9150   59.5440    9.4770 C.2   127  HIS127      0.2620
    133  O         18.7200   60.1390    8.7700 O.2   127  HIS127     -0.2715
    134  CB        18.4780   57.2440   10.2480 C.3   127  HIS127      0.0785
    135  CG        19.6000   56.4950   10.8960 C.ar  127  HIS127      0.0821
    136  ND1       19.5130   55.1600   11.2280 N.ar  127  HIS127     -0.2267
    137  CD2       20.8420   56.8940   11.2570 C.ar  127  HIS127      0.1154
    138  CE1       20.6530   54.7680   11.7640 C.ar  127  HIS127      0.1986
    139  NE2       21.4760   55.8010   11.7950 N.ar  127  HIS127     -0.2212
    140  N         16.6150   59.5850    9.2400 N.am  128  ARG128     -0.1963
    141  CA        16.1390   60.2030    8.0260 C.3   128  ARG128      0.1729
    142  C         15.0450   61.2270    8.3130 C.2   128  ARG128      0.2617
    143  O         14.2100   61.0220    9.1870 O.2   128  ARG128     -0.2715
    144  CB        15.6680   59.1140    7.0210 C.3   128  ARG128      0.0348
    145  CG        16.8400   58.2650    6.5200 C.3   128  ARG128      0.0492
    146  CD        17.4840   59.0170    5.3500 C.3   128  ARG128      0.2205
    147  NE        18.5100   58.1110    4.7340 N.pl3 128  ARG128     -0.0865
    148  CZ        19.7310   57.9920    5.2560 C.cat 128  ARG128      0.5346
    149  NH1       20.1730   58.7120    6.2840 N.pl3 128  ARG128      0.1354
    150  NH2       20.5120   56.9800    4.8290 N.pl3 128  ARG128      0.1354
    151  N         15.0740   62.3440    7.5860 N.am  129  GLY129     -0.1940
    152  CA        14.0010   63.3240    7.6360 C.3   129  GLY129      0.2014
    153  C         14.2580   64.6470    8.3340 C.2   129  GLY129      0.2638
    154  O         13.3950   65.5120    8.3360 O.2   129  GLY129     -0.2714
    155  N         15.4290   64.8180    8.9350 N.am  130  TRP130     -0.1973
    156  CA        15.7560   66.0920    9.5730 C.3   130  TRP130      0.1640
    157  C         15.8210   67.2450    8.5660 C.2   130  TRP130      0.2290
    158  O         16.1410   67.0470    7.3790 O.2   130  TRP130     -0.2864
    159  CB        17.0930   66.0030   10.3140 C.3   130  TRP130      0.0576
    160  CG        17.0930   65.0100   11.4460 C.ar  130  TRP130      0.0006
    161  CD1       17.6040   63.7480   11.4260 C.ar  130  TRP130      0.0946
    162  CD2       16.5390   65.1990   12.7560 C.ar  130  TRP130      0.0152
    163  NE1       17.4140   63.1390   12.6440 N.ar  130  TRP130     -0.2442
    164  CE2       16.7520   64.0060   13.4740 C.ar  130  TRP130      0.0810
    165  CE3       15.8740   66.2550   13.3860 C.ar  130  TRP130      0.0012
    166  CZ2       16.3300   63.8420   14.7880 C.ar  130  TRP130      0.0191
    167  CZ3       15.4640   66.0930   14.6880 C.ar  130  TRP130      0.0001
    168  CH2       15.6950   64.8960   15.3800 C.ar  130  TRP130      0.0015
    169  N         18.0580   69.9430    7.4870 N.3   132  TRP132     -0.1241
    170  CA        19.4990   70.1670    7.5890 C.3   132  TRP132      0.1605
    171  C         19.9080   71.4860    6.9550 C.2   132  TRP132      0.2264
    172  O         21.1010   71.7660    6.8150 O.2   132  TRP132     -0.2867
    173  CB        20.2830   69.0200    6.9240 C.3   132  TRP132      0.0550
    174  CG        20.3000   67.7390    7.7370 C.ar  132  TRP132      0.0003
    175  CD1       19.4700   66.6590    7.5920 C.ar  132  TRP132      0.0946
    176  CD2       21.1910   67.4150    8.8150 C.ar  132  TRP132      0.0152
    177  NE1       19.7880   65.6850    8.5150 N.ar  132  TRP132     -0.2442
    178  CE2       20.8380   66.1240    9.2780 C.ar  132  TRP132      0.0810
    179  CE3       22.2540   68.0890    9.4340 C.ar  132  TRP132      0.0012
    180  CZ2       21.5060   65.4970   10.3330 C.ar  132  TRP132      0.0191
    181  CZ3       22.9190   67.4590   10.4900 C.ar  132  TRP132      0.0001
    182  CH2       22.5360   66.1790   10.9270 C.ar  132  TRP132      0.0015
    183  N         17.4650   54.2540   15.6510 N.3   163  TRP163     -0.1241
    184  CA        18.5120   54.1270   14.6240 C.3   163  TRP163      0.1605
    185  C         18.2050   53.0570   13.5830 C.2   163  TRP163      0.2264
    186  O         19.0890   52.2990   13.1970 O.2   163  TRP163     -0.2867
    187  CB        19.8980   53.8420   15.2180 C.3   163  TRP163      0.0550
    188  CG        20.4450   54.8930   16.1450 C.ar  163  TRP163      0.0003
    189  CD1       20.8630   54.7060   17.4310 C.ar  163  TRP163      0.0946
    190  CD2       20.6400   56.2850   15.8590 C.ar  163  TRP163      0.0152
    191  NE1       21.3150   55.8920   17.9640 N.ar  163  TRP163     -0.2442
    192  CE2       21.1920   56.8780   17.0210 C.ar  163  TRP163      0.0810
    193  CE3       20.3940   57.0910   14.7380 C.ar  163  TRP163      0.0012
    194  CZ2       21.4990   58.2370   17.1000 C.ar  163  TRP163      0.0191
    195  CZ3       20.7120   58.4490   14.8100 C.ar  163  TRP163      0.0001
    196  CH2       21.2500   59.0080   15.9940 C.ar  163  TRP163      0.0015
    197  N         19.3240   49.2670   14.0240 N.3   166  SER166     -0.1202
    198  CA        20.6780   48.9520   14.4870 C.3   166  SER166      0.2020
    199  C         20.6410   47.8310   15.5180 C.2   166  SER166      0.2618
    200  O         21.4670   46.9220   15.5190 O.2   166  SER166     -0.2717
    201  CB        21.3190   50.1700   15.1570 C.3   166  SER166      0.2103
    202  OG        21.8700   51.0490   14.1880 O.3   166  SER166     -0.2182
    203  N         19.6720   47.9190   16.4170 N.am  167  TYR167     -0.1975
    204  CA        19.5210   46.9300   17.4670 C.3   167  TYR167      0.1639
    205  C         18.2070   46.1720   17.3490 C.2   167  TYR167      0.2290
    206  O         17.2280   46.6780   16.8140 O.2   167  TYR167     -0.2864
    207  CB        19.5840   47.6100   18.8470 C.3   167  TYR167      0.0560
    208  CG        20.7910   48.4970   19.0430 C.ar  167  TYR167     -0.0198
    209  CD1       22.0680   47.9510   19.1510 C.ar  167  TYR167     -0.0009
    210  CD2       20.6550   49.8800   19.1390 C.ar  167  TYR167     -0.0009
    211  CE1       23.1740   48.7600   19.3300 C.ar  167  TYR167      0.0417
    212  CE2       21.7630   50.7030   19.3230 C.ar  167  TYR167      0.0417
    213  CZ        23.0190   50.1370   19.4090 C.ar  167  TYR167      0.1957
    214  OH        24.1130   50.9520   19.5800 O.3   167  TYR167     -0.2866
@<TRIPOS>BOND
     1    78    75    1
     2    78    79    1
     3    68    67    2
     4    75    74    1
     5    75    76    1
     6    67    74   am
     7    67    66    1
     8    65    66    1
     9    66    69    1
    10    77    76    2
    11    76    80   am
    12    69    70    1
    13    80    81    1
    14    97    96    2
    15    70    71    1
    16    96    95    1
    17    81    82    1
    18    81    84    1
    19    94    95    1
    20    94    82   am
    21   147   148    2
    22   147   146    1
    23   150   148    1
    24    95    98    1
    25    82    83    2
    26    71    72    2
    27    71    73   am
    28    86    85   ar
    29    86    88   ar
    30    84    85    1
    31   148   149    1
    32   146   145    1
    33    85    87   ar
    34    88    89   ar
    35    98    99    1
    36    99   100    1
    37   145   144    1
    38   172   171    2
    39   173   170    1
    40   173   174    1
    41   171   170    1
    42   144   141    1
    43    87    89   ar
    44    87    90   ar
    45    89    91   ar
    46   158   157    2
    47   169   170    1
    48   151   152    1
    49   151   142   am
    50   175   174   ar
    51   175   177   ar
    52   152   153    1
    53   174   176   ar
    54   100   101    1
    55   101   102    2
    56   141   142    1
    57   141   140    1
    58    90    92   ar
    59    91    93   ar
    60   142   143    2
    61   153   154    2
    62   153   155   am
    63   177   178   ar
    64   157   156    1
    65   133   132    2
    66   176   178   ar
    67   176   179   ar
    68   155   156    1
    69   102   104    1
    70   102   103    1
    71   140   132   am
    72   178   180   ar
    73    92    93   ar
    74   179   181   ar
    75   132   131    1
    76   156   159    1
    77   134   131    1
    78   134   135    1
    79   159   160    1
    80   180   182   ar
    81   181   182   ar
    82   131   130    1
    83   105   106    1
    84   135   136   ar
    85   135   137   ar
    86     9     7   ar
    87     9    11   ar
    88     7     6   ar
    89    64    63    1
    90   136   138   ar
    91   137   139   ar
    92     4     3    2
    93   161   160   ar
    94   161   163   ar
    95   160   162   ar
    96   106   107    1
    97   106   109    1
    98   138   139   ar
    99   107   108    2
   100   130   118   am
   101    12    11    1
   102     2     3    1
   103     2     5    1
   104     2     1    1
   105    11    10   ar
   106     6     5    1
   107     6     8   ar
   108    63    61   ar
   109    63    62   ar
   110   119   118    2
   111   163   164   ar
   112   118   117    1
   113   162   165   ar
   114   162   164   ar
   115   109   110    1
   116    61    59   ar
   117   186   185    2
   118    62    60   ar
   119    10     8   ar
   120   165   167   ar
   121   164   166   ar
   122   185   184    1
   123   110   112   ar
   124   110   111   ar
   125   116   117    1
   126   117   120    1
   127   112   114   ar
   128   197   198    1
   129   202   201    1
   130    19    21   ar
   131    19    18   ar
   132    59    58   ar
   133    13    14    1
   134    21    23   ar
   135   198   201    1
   136   198   199    1
   137    60    58   ar
   138   184   187    1
   139   184   183    1
   140   167   168   ar
   141   111   113   ar
   142   193   195   ar
   143   193   190   ar
   144   166   168   ar
   145   195   196   ar
   146   114   115   ar
   147    14    17    1
   148    14    15    1
   149    58    57    1
   150   120   121    1
   151    17    18    1
   152   187   188    1
   153    18    20   ar
   154    56    55    2
   155   199   200    2
   156   199   203   am
   157   113   115   ar
   158    23    22   ar
   159   190   188   ar
   160   190   192   ar
   161   196   194   ar
   162   188   189   ar
   163   121   122   ar
   164   121   123   ar
   165   122   124   ar
   166    55    54    1
   167    15    16    2
   168   203   204    1
   169    20    22   ar
   170    57    54    1
   171   206   205    2
   172   192   194   ar
   173   192   191   ar
   174    54    53    1
   175   205   204    1
   176   189   191   ar
   177   204   207    1
   178   124   125   ar
   179   123   126   ar
   180   123   125   ar
   181   126   128   ar
   182   125   127   ar
   183    52    50    1
   184   207   208    1
   185    49    48    2
   186   208   210   ar
   187   208   209   ar
   188   210   212   ar
   189   209   211   ar
   190    45    43   ar
   191   212   213   ar
   192   211   213   ar
   193    51    50    1
   194   213   214    1
   195    44    43   ar
   196   128   129   ar
   197    37    36   ar
   198    37    35   ar
   199    36    34   ar
   200    50    47    1
   201   127   129   ar
   202    47    48    1
   203    47    46    1
   204    24    25    1
   205    41    40    2
   206    43    42    1
   207    35    33   ar
   208    34    31   ar
   209    46    40   am
   210    25    26    1
   211    25    28    1
   212    40    39    1
   213    33    31   ar
   214    33    32   ar
   215    31    29   ar
   216    26    27    2
   217    32    30   ar
   218    42    39    1
   219    29    28    1
   220    29    30   ar
   221    39    38    1
