@<TRIPOS>MOLECULE
tmp/4kn3A02.pdb
 97 94 0 0 0
SMALL
GASTEIGER

@<TRIPOS>ATOM
      1  N         10.9360    5.2910   22.6320 N.3    20  ILE20      -0.1231
      2  CA         9.7830    5.7510   21.8790 C.3    20  ILE20       0.1692
      3  C          8.7890    4.6030   21.6230 C.2    20  ILE20       0.2592
      4  O          7.5970    4.7730   21.8430 O.2    20  ILE20      -0.2718
      5  CB        10.1590    6.5280   20.6200 C.3    20  ILE20       0.0266
      6  CG1       10.9020    7.7770   20.9830 C.3    20  ILE20       0.0019
      7  CG2        8.9100    6.8820   19.8030 C.3    20  ILE20       0.0020
      8  CD1       11.6500    8.4050   19.8340 C.3    20  ILE20       0.0001
      9  N          9.2620    3.4100   21.2860 N.am   21  PHE21      -0.1976
     10  CA         8.3610    2.2860   21.0660 C.3    21  PHE21       0.1639
     11  C          7.6950    1.8980   22.3510 C.2    21  PHE21       0.2290
     12  O          6.4800    1.6130   22.3480 O.2    21  PHE21      -0.2864
     13  CB         9.0810    1.1230   20.4540 C.3    21  PHE21       0.0560
     14  CG         8.1900   -0.0410   20.0720 C.ar   21  PHE21      -0.0200
     15  CD1        7.0890    0.1020   19.3110 C.ar   21  PHE21      -0.0042
     16  CD2        8.5240   -1.3030   20.4910 C.ar   21  PHE21      -0.0042
     17  CE1        6.3060   -0.9990   18.9520 C.ar   21  PHE21      -0.0003
     18  CE2        7.7820   -2.3870   20.1430 C.ar   21  PHE21      -0.0003
     19  CZ         6.6630   -2.2330   19.3860 C.ar   21  PHE21      -0.0000
     20  N          4.8970    4.3010   23.0140 N.3    24  PHE24      -0.1241
     21  CA         3.7900    3.8980   22.1490 C.3    24  PHE24       0.1605
     22  C          2.9750    2.7570   22.7540 C.2    24  PHE24       0.2264
     23  O          1.7330    2.8880   22.9230 O.2    24  PHE24      -0.2867
     24  CB         4.3370    3.5520   20.7590 C.3    24  PHE24       0.0534
     25  CG         3.3650    2.8550   19.8670 C.ar   24  PHE24      -0.0203
     26  CD1        2.2650    3.5360   19.3540 C.ar   24  PHE24      -0.0042
     27  CD2        3.5870    1.5700   19.4680 C.ar   24  PHE24      -0.0042
     28  CE1        1.3930    2.9060   18.4910 C.ar   24  PHE24      -0.0003
     29  CE2        2.7190    0.9190   18.6180 C.ar   24  PHE24      -0.0003
     30  CZ         1.6100    1.6150   18.1310 C.ar   24  PHE24      -0.0000
     31  N          1.8210   -7.6440   19.1300 N.3    35  PHE35      -0.1241
     32  CA         3.1820   -8.1380   19.2410 C.3    35  PHE35       0.1605
     33  C          3.1760   -9.2370   20.3110 C.2    35  PHE35       0.2264
     34  O          3.3770   -8.9700   21.4930 O.2    35  PHE35      -0.2867
     35  CB         4.1310   -7.0110   19.6450 C.3    35  PHE35       0.0534
     36  CG         4.1580   -5.8280   18.6740 C.ar   35  PHE35      -0.0203
     37  CD1        5.0670   -5.7980   17.6080 C.ar   35  PHE35      -0.0042
     38  CD2        3.2880   -4.7830   18.8010 C.ar   35  PHE35      -0.0042
     39  CE1        5.0990   -4.7260   16.7060 C.ar   35  PHE35      -0.0003
     40  CE2        3.3080   -3.6920   17.8970 C.ar   35  PHE35      -0.0003
     41  CZ         4.2190   -3.6720   16.8610 C.ar   35  PHE35      -0.0000
     42  N         14.4720   -5.1980   16.4430 N.3    55  HIS55      -0.1226
     43  CA        13.3330   -4.7570   15.6920 C.3    55  HIS55       0.1752
     44  C         13.1460   -3.2570   15.8430 C.2    55  HIS55       0.2596
     45  O         12.9250   -2.5590   14.8200 O.2    55  HIS55      -0.2718
     46  CB        12.0850   -5.5690   16.0570 C.3    55  HIS55       0.0759
     47  CG        12.1130   -6.9830   15.5060 C.ar   55  HIS55       0.0818
     48  ND1       11.0310   -7.8370   15.5410 N.ar   55  HIS55      -0.2268
     49  CD2       13.1010   -7.6690   14.8820 C.ar   55  HIS55       0.1154
     50  CE1       11.3530   -8.9860   14.9670 C.ar   55  HIS55       0.1986
     51  NE2       12.6080   -8.9060   14.5610 N.ar   55  HIS55      -0.2212
     52  N         13.2890   -2.7380   17.0620 N.am   56  THR56      -0.1953
     53  CA        13.1400   -1.2920   17.2420 C.3    56  THR56       0.1897
     54  C         14.2030   -0.4950   16.4720 C.2    56  THR56       0.2313
     55  O         13.8590    0.4880   15.8010 O.2    56  THR56      -0.2863
     56  CB        13.0610   -0.8240   18.6820 C.3    56  THR56       0.1794
     57  OG1       14.2720   -1.1530   19.3730 O.3    56  THR56      -0.2208
     58  CG2       11.8820   -1.4090   19.3860 C.3    56  THR56       0.0378
     59  N         13.2260   -0.6300   12.6830 N.3    59  VAL59      -0.1231
     60  CA        12.0980    0.2740   12.4070 C.3    59  VAL59       0.1692
     61  C         12.5250    1.7380   12.3690 C.2    59  VAL59       0.2592
     62  O         12.1880    2.4870   11.4270 O.2    59  VAL59      -0.2718
     63  CB        10.9620    0.0470   13.4330 C.3    59  VAL59       0.0266
     64  CG1        9.8880    1.1490   13.3700 C.3    59  VAL59       0.0020
     65  CG2       10.3810   -1.3340   13.1790 C.3    59  VAL59       0.0020
     66  N         13.2810    2.1420   13.3910 N.am   60  PHE60      -0.1976
     67  CA        13.6850    3.5350   13.4970 C.3    60  PHE60       0.1639
     68  C         14.7520    3.8640   12.4820 C.2    60  PHE60       0.2290
     69  O         14.7750    4.9800   11.9790 O.2    60  PHE60      -0.2864
     70  CB        14.0780    3.9320   14.9040 C.3    60  PHE60       0.0560
     71  CG        12.8870    4.3360   15.7200 C.ar   60  PHE60      -0.0200
     72  CD1       12.6310    5.6540   15.9990 C.ar   60  PHE60      -0.0042
     73  CD2       11.9700    3.3780   16.0820 C.ar   60  PHE60      -0.0042
     74  CE1       11.4880    6.0140   16.6930 C.ar   60  PHE60      -0.0003
     75  CE2       10.8360    3.7270   16.7840 C.ar   60  PHE60      -0.0003
     76  CZ        10.5760    5.0560   17.0510 C.ar   60  PHE60      -0.0000
     77  N         -2.7880    3.1190   13.0810 N.3    96  ASN96      -0.1240
     78  CA        -1.6730    2.5490   13.8140 C.3    96  ASN96       0.1653
     79  C         -0.4910    3.5310   13.7820 C.2    96  ASN96       0.2266
     80  O          0.2230    3.7110   14.7690 O.2    96  ASN96      -0.2867
     81  CB        -1.2150    1.2400   13.1820 C.3    96  ASN96       0.1155
     82  CG        -2.2880    0.1640   13.1720 C.2    96  ASN96       0.2627
     83  OD1       -2.6740   -0.3090   12.1150 O.2    96  ASN96      -0.2716
     84  ND2       -2.7510   -0.2390   14.3450 N.am   96  ASN96      -0.0877
     85  N          1.4990    5.9780   16.6460 N.3   100  LEU100     -0.1245
     86  CA         2.9280    5.9740   16.8440 C.3   100  LEU100      0.1561
     87  C          3.4550    7.4020   16.8720 C.2   100  LEU100      0.2260
     88  O          4.2460    7.7510   17.7570 O.2   100  LEU100     -0.2867
     89  CB         3.6420    5.1240   15.7690 C.3   100  LEU100      0.0270
     90  CG         5.1580    5.2380   15.5390 C.3   100  LEU100      0.0019
     91  CD1        5.6600    4.1180   14.6310 C.3   100  LEU100      0.0001
     92  CD2        5.5540    6.5930   14.9100 C.3   100  LEU100      0.0001
     93  N          2.6070    9.3490   20.0050 N.3   103  ALA103     -0.1245
     94  CA         3.5170    8.9310   21.0940 C.3   103  ALA103      0.1562
     95  C          4.9150    9.5240   20.9220 C.2   103  ALA103      0.2260
     96  O          5.5390   10.0120   21.8890 O.2   103  ALA103     -0.2867
     97  CB         3.5550    7.4220   21.1990 C.3   103  ALA103      0.0290
@<TRIPOS>BOND
     1    62    61    2
     2    69    68    2
     3    83    82    2
     4    61    60    1
     5    61    66   am
     6    60    59    1
     7    60    63    1
     8    68    67    1
     9    77    78    1
    10    82    81    1
    11    82    84   am
    12    65    63    1
    13    81    78    1
    14    64    63    1
    15    66    67    1
    16    67    70    1
    17    79    78    1
    18    79    80    2
    19    51    49   ar
    20    51    50   ar
    21    91    90    1
    22    45    44    2
    23    49    47   ar
    24    70    71    1
    25    92    90    1
    26    50    48   ar
    27    47    48   ar
    28    47    46    1
    29    90    89    1
    30    43    44    1
    31    43    46    1
    32    43    42    1
    33    71    72   ar
    34    71    73   ar
    35    89    86    1
    36    55    54    2
    37    44    52   am
    38    72    74   ar
    39    73    75   ar
    40    54    53    1
    41    85    86    1
    42    74    76   ar
    43    39    41   ar
    44    39    37   ar
    45    75    76   ar
    46    86    87    1
    47    41    40   ar
    48    87    88    2
    49    52    53    1
    50    53    56    1
    51    37    36   ar
    52    40    38   ar
    53    30    28   ar
    54    30    29   ar
    55    28    26   ar
    56    29    27   ar
    57    36    38   ar
    58    36    35    1
    59    56    57    1
    60    56    58    1
    61    17    15   ar
    62    17    19   ar
    63    31    32    1
    64    32    35    1
    65    32    33    1
    66    15    14   ar
    67    26    25   ar
    68    19    18   ar
    69    27    25   ar
    70     7     5    1
    71     8     6    1
    72    25    24    1
    73    93    94    1
    74    14    13    1
    75    14    16   ar
    76    18    16   ar
    77    33    34    2
    78    13    10    1
    79     5     6    1
    80     5     2    1
    81    24    21    1
    82    95    94    1
    83    95    96    2
    84    10     9    1
    85    10    11    1
    86    94    97    1
    87     9     3   am
    88     3     4    2
    89     3     2    1
    90     2     1    1
    91    21    22    1
    92    21    20    1
    93    12    11    2
    94    22    23    2
