@<TRIPOS>MOLECULE
tmp/4kn3A01.pdb
 96 94 0 0 0
SMALL
GASTEIGER

@<TRIPOS>ATOM
      1  N          9.2620    3.4100   21.2860 N.3    21  PHE21      -0.1241
      2  CA         8.3610    2.2860   21.0660 C.3    21  PHE21       0.1605
      3  C          7.6950    1.8980   22.3510 C.2    21  PHE21       0.2264
      4  O          6.4800    1.6130   22.3480 O.2    21  PHE21      -0.2867
      5  CB         9.0810    1.1230   20.4540 C.3    21  PHE21       0.0534
      6  CG         8.1900   -0.0410   20.0720 C.ar   21  PHE21      -0.0203
      7  CD1        7.0890    0.1020   19.3110 C.ar   21  PHE21      -0.0042
      8  CD2        8.5240   -1.3030   20.4910 C.ar   21  PHE21      -0.0042
      9  CE1        6.3060   -0.9990   18.9520 C.ar   21  PHE21      -0.0003
     10  CE2        7.7820   -2.3870   20.1430 C.ar   21  PHE21      -0.0003
     11  CZ         6.6630   -2.2330   19.3860 C.ar   21  PHE21      -0.0000
     12  N          1.8210   -7.6440   19.1300 N.3    35  PHE35      -0.1241
     13  CA         3.1820   -8.1380   19.2410 C.3    35  PHE35       0.1605
     14  C          3.1760   -9.2370   20.3110 C.2    35  PHE35       0.2264
     15  O          3.3770   -8.9700   21.4930 O.2    35  PHE35      -0.2867
     16  CB         4.1310   -7.0110   19.6450 C.3    35  PHE35       0.0534
     17  CG         4.1580   -5.8280   18.6740 C.ar   35  PHE35      -0.0203
     18  CD1        5.0670   -5.7980   17.6080 C.ar   35  PHE35      -0.0042
     19  CD2        3.2880   -4.7830   18.8010 C.ar   35  PHE35      -0.0042
     20  CE1        5.0990   -4.7260   16.7060 C.ar   35  PHE35      -0.0003
     21  CE2        3.3080   -3.6920   17.8970 C.ar   35  PHE35      -0.0003
     22  CZ         4.2190   -3.6720   16.8610 C.ar   35  PHE35      -0.0000
     23  N          5.6850   -9.6850   23.2100 N.3    38  TYR38      -0.1241
     24  CA         5.8830   -8.5450   24.1180 C.3    38  TYR38       0.1605
     25  C          4.7560   -8.4060   25.1320 C.2    38  TYR38       0.2264
     26  O          4.8280   -7.5690   26.0260 O.2    38  TYR38      -0.2867
     27  CB         6.0250   -7.2350   23.3200 C.3    38  TYR38       0.0534
     28  CG         7.0930   -7.2280   22.2680 C.ar   38  TYR38      -0.0201
     29  CD1        8.1980   -8.0670   22.3450 C.ar   38  TYR38      -0.0009
     30  CD2        6.9860   -6.3830   21.1500 C.ar   38  TYR38      -0.0009
     31  CE1        9.1730   -8.0700   21.3420 C.ar   38  TYR38       0.0417
     32  CE2        7.9580   -6.3890   20.1650 C.ar   38  TYR38       0.0417
     33  CZ         9.0470   -7.2380   20.2730 C.ar   38  TYR38       0.1957
     34  OH        10.0630   -7.3050   19.3300 O.3    38  TYR38      -0.2866
     35  N         13.6330   -7.4990   20.4380 N.3    52  PHE52      -0.1241
     36  CA        13.0690   -6.1810   20.7770 C.3    52  PHE52       0.1605
     37  C         14.0240   -5.0660   20.3940 C.2    52  PHE52       0.2264
     38  O         13.6240   -4.1290   19.6960 O.2    52  PHE52      -0.2867
     39  CB        12.6700   -6.0890   22.2330 C.3    52  PHE52       0.0534
     40  CG        12.0350   -4.7690   22.6130 C.ar   52  PHE52      -0.0203
     41  CD1       10.6780   -4.5320   22.3890 C.ar   52  PHE52      -0.0042
     42  CD2       12.7930   -3.7480   23.1760 C.ar   52  PHE52      -0.0042
     43  CE1       10.0900   -3.3140   22.6820 C.ar   52  PHE52      -0.0003
     44  CE2       12.1840   -2.5440   23.5200 C.ar   52  PHE52      -0.0003
     45  CZ        10.8460   -2.3420   23.2750 C.ar   52  PHE52      -0.0000
     46  N         14.4720   -5.1980   16.4430 N.3    55  HIS55      -0.1226
     47  CA        13.3330   -4.7570   15.6920 C.3    55  HIS55       0.1752
     48  C         13.1460   -3.2570   15.8430 C.2    55  HIS55       0.2596
     49  O         12.9250   -2.5590   14.8200 O.2    55  HIS55      -0.2718
     50  CB        12.0850   -5.5690   16.0570 C.3    55  HIS55       0.0759
     51  CG        12.1130   -6.9830   15.5060 C.ar   55  HIS55       0.0818
     52  ND1       11.0310   -7.8370   15.5410 N.ar   55  HIS55      -0.2268
     53  CD2       13.1010   -7.6690   14.8820 C.ar   55  HIS55       0.1154
     54  CE1       11.3530   -8.9860   14.9670 C.ar   55  HIS55       0.1986
     55  NE2       12.6080   -8.9060   14.5610 N.ar   55  HIS55      -0.2212
     56  N         13.2890   -2.7380   17.0620 N.am   56  THR56      -0.1953
     57  CA        13.1400   -1.2920   17.2420 C.3    56  THR56       0.1897
     58  C         14.2030   -0.4950   16.4720 C.2    56  THR56       0.2313
     59  O         13.8590    0.4880   15.8010 O.2    56  THR56      -0.2863
     60  CB        13.0610   -0.8240   18.6820 C.3    56  THR56       0.1794
     61  OG1       14.2720   -1.1530   19.3730 O.3    56  THR56      -0.2208
     62  CG2       11.8820   -1.4090   19.3860 C.3    56  THR56       0.0378
     63  N         13.2260   -0.6300   12.6830 N.3    59  VAL59      -0.1245
     64  CA        12.0980    0.2740   12.4070 C.3    59  VAL59       0.1561
     65  C         12.5250    1.7380   12.3690 C.2    59  VAL59       0.2260
     66  O         12.1880    2.4870   11.4270 O.2    59  VAL59      -0.2867
     67  CB        10.9620    0.0470   13.4330 C.3    59  VAL59       0.0252
     68  CG1        9.8880    1.1490   13.3700 C.3    59  VAL59       0.0019
     69  CG2       10.3810   -1.3340   13.1790 C.3    59  VAL59       0.0019
     70  N          5.0310   -7.2850    6.5360 N.3    88  GLN88      -0.1231
     71  CA         4.9470   -7.0170    7.9720 C.3    88  GLN88       0.1698
     72  C          3.7630   -6.1070    8.3110 C.2    88  GLN88       0.2592
     73  O          3.1590   -6.2310    9.3840 O.2    88  GLN88      -0.2718
     74  CB         6.2650   -6.3920    8.4720 C.3    88  GLN88       0.0381
     75  CG         7.5160   -7.2640    8.2490 C.3    88  GLN88       0.0905
     76  CD         8.1860   -7.1780    6.8770 C.2    88  GLN88       0.2608
     77  OE1        7.5260   -7.2290    5.8330 O.2    88  GLN88      -0.2717
     78  NE2        9.5250   -7.1050    6.8790 N.am   88  GLN88      -0.0878
     79  N          3.4180   -5.2260    7.3630 N.am   89  HIS89      -0.1976
     80  CA         2.3810   -4.2200    7.5550 C.3    89  HIS89       0.1656
     81  C          1.0110   -4.5530    6.9880 C.2    89  HIS89       0.2291
     82  O          0.1310   -3.6850    6.9680 O.2    89  HIS89      -0.2864
     83  CB         2.8610   -2.8710    6.9690 C.3    89  HIS89       0.0771
     84  CG         4.0160   -2.2680    7.7120 C.ar   89  HIS89       0.0820
     85  ND1        4.7170   -1.1780    7.2370 N.ar   89  HIS89      -0.2267
     86  CD2        4.5790   -2.5920    8.8970 C.ar   89  HIS89       0.1154
     87  CE1        5.6550   -0.8460    8.1040 C.ar   89  HIS89       0.1986
     88  NE2        5.5960   -1.6910    9.1230 N.ar   89  HIS89      -0.2212
     89  N          1.4990    5.9780   16.6460 N.3   100  LEU100     -0.1245
     90  CA         2.9280    5.9740   16.8440 C.3   100  LEU100      0.1561
     91  C          3.4550    7.4020   16.8720 C.2   100  LEU100      0.2260
     92  O          4.2460    7.7510   17.7570 O.2   100  LEU100     -0.2867
     93  CB         3.6420    5.1240   15.7690 C.3   100  LEU100      0.0270
     94  CG         5.1580    5.2380   15.5390 C.3   100  LEU100      0.0019
     95  CD1        5.6600    4.1180   14.6310 C.3   100  LEU100      0.0001
     96  CD2        5.5540    6.5930   14.9100 C.3   100  LEU100      0.0001
@<TRIPOS>BOND
     1    77    76    2
     2    70    71    1
     3    76    78   am
     4    76    75    1
     5    82    81    2
     6    83    80    1
     7    83    84    1
     8    81    80    1
     9    85    84   ar
    10    85    87   ar
    11    79    80    1
    12    79    72   am
    13    84    86   ar
    14    71    72    1
    15    71    74    1
    16    87    88   ar
    17    75    74    1
    18    72    73    2
    19    86    88   ar
    20    66    65    2
    21    65    64    1
    22    64    63    1
    23    64    67    1
    24    69    67    1
    25    68    67    1
    26    55    53   ar
    27    55    54   ar
    28    95    94    1
    29    49    48    2
    30    53    51   ar
    31    96    94    1
    32    54    52   ar
    33    51    52   ar
    34    51    50    1
    35    94    93    1
    36    47    48    1
    37    47    50    1
    38    47    46    1
    39    93    90    1
    40    59    58    2
    41    48    56   am
    42    58    57    1
    43    89    90    1
    44    20    22   ar
    45    20    18   ar
    46    90    91    1
    47    22    21   ar
    48    91    92    2
    49    56    57    1
    50    57    60    1
    51    18    17   ar
    52    21    19   ar
    53    17    19   ar
    54    17    16    1
    55    60    61    1
    56    60    62    1
    57     9     7   ar
    58     9    11   ar
    59    12    13    1
    60    13    16    1
    61    13    14    1
    62     7     6   ar
    63    34    33    1
    64    11    10   ar
    65    38    37    2
    66     6     5    1
    67     6     8   ar
    68    10     8   ar
    69    32    33   ar
    70    32    30   ar
    71    33    31   ar
    72    14    15    2
    73    37    36    1
    74    35    36    1
    75     5     2    1
    76    36    39    1
    77     2     1    1
    78     2     3    1
    79    30    28   ar
    80    31    29   ar
    81    39    40    1
    82    28    29   ar
    83    28    27    1
    84     4     3    2
    85    41    40   ar
    86    41    43   ar
    87    40    42   ar
    88    43    45   ar
    89    42    44   ar
    90    23    24    1
    91    45    44   ar
    92    27    24    1
    93    24    25    1
    94    25    26    2
