@<TRIPOS>MOLECULE
tmp/4kn6A00.pdb
 148 142 0 0 0
SMALL
GASTEIGER

@<TRIPOS>ATOM
      1  N          2.5300  -23.7310   -6.5500 N.3    64  LYS64      -0.1245
      2  CA         3.8280  -24.2180   -7.0020 C.3    64  LYS64       0.1561
      3  C          4.9420  -23.5510   -6.1980 C.2    64  LYS64       0.2260
      4  O          5.1840  -23.9170   -5.0470 O.2    64  LYS64      -0.2867
      5  CB         4.0160  -23.9680   -8.4990 C.3    64  LYS64       0.0271
      6  CG         3.1990  -24.8930   -9.3870 C.3    64  LYS64       0.0035
      7  CD         2.1320  -24.1360  -10.1600 C.3    64  LYS64       0.0206
      8  CE         2.7450  -23.1720  -11.1630 C.3    64  LYS64       0.1093
      9  NZ         1.7060  -22.4390  -11.9340 N.3    64  LYS64      -0.1314
     10  N          1.2540  -28.7490   -7.3030 N.3    96  LEU96      -0.1245
     11  CA         1.6660  -29.3890   -8.5470 C.3    96  LEU96       0.1561
     12  C          3.1650  -29.2110   -8.7600 C.2    96  LEU96       0.2260
     13  O          3.7590  -28.2480   -8.2730 O.2    96  LEU96      -0.2867
     14  CB         0.8910  -28.8010   -9.7320 C.3    96  LEU96       0.0270
     15  CG         1.3160  -29.2630  -11.1300 C.3    96  LEU96       0.0019
     16  CD1        0.1240  -29.2780  -12.0730 C.3    96  LEU96       0.0001
     17  CD2        2.4160  -28.3720  -11.6930 C.3    96  LEU96       0.0001
     18  N         -4.7260  -19.5660  -10.8240 N.3   108  GLU108     -0.1231
     19  CA        -3.4200  -19.8980  -11.3800 C.3   108  GLU108      0.1699
     20  C         -2.6870  -18.6170  -11.7650 C.2   108  GLU108      0.2592
     21  O         -3.3160  -17.5840  -11.9960 O.2   108  GLU108     -0.2718
     22  CB        -3.5830  -20.8060  -12.6010 C.3   108  GLU108      0.0402
     23  CG        -2.2820  -21.1960  -13.2830 C.3   108  GLU108      0.1161
     24  CD        -1.3910  -22.0590  -12.4130 C.2   108  GLU108      0.3649
     25  OE1       -1.1060  -21.6630  -11.2630 O.co2 108  GLU108     -0.2457
     26  OE2       -0.9780  -23.1410  -12.8810 O.co2 108  GLU108     -0.2457
     27  N         -1.3600  -18.6790  -11.8280 N.am  109  ASP109     -0.1960
     28  CA        -0.5700  -17.5030  -12.1860 C.3   109  ASP109      0.1840
     29  C         -0.4970  -17.3020  -13.7010 C.2   109  ASP109      0.2622
     30  O         -0.7560  -16.2060  -14.1940 O.2   109  ASP109     -0.2715
     31  CB         0.8380  -17.5620  -11.5710 C.3   109  ASP109      0.1450
     32  CG         1.5570  -18.8700  -11.8530 C.2   109  ASP109      0.3671
     33  OD1        1.0720  -19.6560  -12.6940 O.co2 109  ASP109     -0.2456
     34  OD2        2.6170  -19.1060  -11.2340 O.co2 109  ASP109     -0.2456
     35  N         -0.1590  -18.3560  -14.4400 N.am  110  ILE110     -0.1963
     36  CA        -0.0440  -18.2470  -15.8900 C.3   110  ILE110      0.1727
     37  C         -0.3250  -19.5620  -16.6120 C.2   110  ILE110      0.2616
     38  O          0.0590  -20.6380  -16.1510 O.2   110  ILE110     -0.2715
     39  CB         1.3550  -17.7500  -16.3040 C.3   110  ILE110      0.0290
     40  CG1        1.4180  -17.5480  -17.8190 C.3   110  ILE110      0.0022
     41  CG2        2.4260  -18.7330  -15.8520 C.3   110  ILE110      0.0023
     42  CD1        2.6400  -16.7890  -18.2840 C.3   110  ILE110      0.0001
     43  N         -1.0030  -19.4530  -17.7510 N.am  111  ILE111     -0.1963
     44  CA        -1.2660  -20.5880  -18.6250 C.3   111  ILE111      0.1727
     45  C         -0.4540  -20.4360  -19.9040 C.2   111  ILE111      0.2616
     46  O         -0.5610  -19.4240  -20.5970 O.2   111  ILE111     -0.2715
     47  CB        -2.7600  -20.6710  -18.9970 C.3   111  ILE111      0.0290
     48  CG1       -3.5670  -21.3380  -17.8810 C.3   111  ILE111      0.0022
     49  CG2       -2.9520  -21.4730  -20.2760 C.3   111  ILE111      0.0023
     50  CD1       -3.0000  -21.1510  -16.4930 C.3   111  ILE111      0.0001
     51  N          0.3610  -21.4390  -20.2140 N.am  112  ASP112     -0.1957
     52  CA         1.1580  -21.4150  -21.4350 C.3   112  ASP112      0.1840
     53  C          0.5460  -22.3250  -22.4950 C.2   112  ASP112      0.2623
     54  O         -0.0130  -21.8450  -23.4800 O.2   112  ASP112     -0.2715
     55  CB         2.6040  -21.8250  -21.1480 C.3   112  ASP112      0.1450
     56  CG         3.5420  -21.4940  -22.2940 C.2   112  ASP112      0.3671
     57  OD1        3.0850  -21.4710  -23.4560 O.co2 112  ASP112     -0.2456
     58  OD2        4.7400  -21.2530  -22.0340 O.co2 112  ASP112     -0.2456
     59  N          0.6480  -23.6350  -22.2930 N.am  113  THR113     -0.1937
     60  CA         0.0860  -24.5950  -23.2360 C.3   113  THR113      0.2028
     61  C         -1.3360  -24.9910  -22.8430 C.2   113  THR113      0.2643
     62  O         -2.1500  -25.3350  -23.7000 O.2   113  THR113     -0.2714
     63  CB         0.9560  -25.8640  -23.3460 C.3   113  THR113      0.1808
     64  OG1        1.1440  -26.4380  -22.0480 O.3   113  THR113     -0.2208
     65  CG2        2.3140  -25.5310  -23.9470 C.3   113  THR113      0.0379
     66  N         -1.6300  -24.9470  -21.5470 N.am  114  GLY114     -0.1939
     67  CA        -2.9660  -25.2410  -21.0580 C.3   114  GLY114      0.2014
     68  C         -3.0860  -26.6050  -20.4060 C.2   114  GLY114      0.2639
     69  O         -3.8920  -26.7910  -19.4970 O.2   114  GLY114     -0.2714
     70  N         -2.2910  -27.5620  -20.8770 N.am  115  LYS115     -0.1963
     71  CA        -2.3250  -28.9250  -20.3520 C.3   115  LYS115      0.1728
     72  C         -2.3990  -28.9480  -18.8260 C.2   115  LYS115      0.2616
     73  O         -3.2560  -29.6190  -18.2510 O.2   115  LYS115     -0.2715
     74  CB        -1.1090  -29.7060  -20.8340 C.3   115  LYS115      0.0311
     75  CG        -1.2000  -31.1860  -20.5830 C.3   115  LYS115      0.0038
     76  CD        -2.0280  -31.7730  -21.6910 C.3   115  LYS115      0.0206
     77  CE        -2.1890  -33.2620  -21.6100 C.3   115  LYS115      0.1093
     78  NZ        -2.9190  -33.7180  -22.7920 N.3   115  LYS115     -0.1314
     79  N         -1.4980  -28.2170  -18.1760 N.am  116  THR116     -0.1951
     80  CA        -1.4570  -28.1600  -16.7170 C.3   116  THR116      0.1897
     81  C         -2.8430  -27.9290  -16.1270 C.2   116  THR116      0.2313
     82  O         -3.2920  -28.6780  -15.2620 O.2   116  THR116     -0.2863
     83  CB        -0.5200  -27.0360  -16.2300 C.3   116  THR116      0.1794
     84  OG1        0.8190  -27.5360  -16.1330 O.3   116  THR116     -0.2208
     85  CG2       -0.9530  -26.5140  -14.8670 C.3   116  THR116      0.0378
     86  N         -0.9950  -16.8320  -22.2920 N.3   140  LYS140     -0.1245
     87  CA        -0.0570  -16.5820  -23.3760 C.3   140  LYS140      0.1561
     88  C         -0.6210  -16.9990  -24.7330 C.2   140  LYS140      0.2260
     89  O         -1.0850  -18.1270  -24.8980 O.2   140  LYS140     -0.2867
     90  CB         1.2400  -17.3430  -23.1030 C.3   140  LYS140      0.0271
     91  CG         2.4390  -16.8190  -23.8600 C.3   140  LYS140      0.0035
     92  CD         3.6500  -17.7150  -23.6650 C.3   140  LYS140      0.0206
     93  CE         4.0230  -17.8590  -22.2030 C.3   140  LYS140      0.1093
     94  NZ         5.3270  -18.5630  -22.0680 N.3   140  LYS140     -0.1314
     95  N          1.4080  -23.4010  -29.2040 N.3   144  ARG144     -0.1245
     96  CA         1.6540  -24.5560  -28.3510 C.3   144  ARG144      0.1563
     97  C          0.4890  -24.7920  -27.3940 C.2   144  ARG144      0.2260
     98  O          0.4740  -25.7770  -26.6570 O.2   144  ARG144     -0.2867
     99  CB         2.9470  -24.3510  -27.5600 C.3   144  ARG144      0.0307
    100  CG         4.1820  -24.2160  -28.4380 C.3   144  ARG144      0.0489
    101  CD         5.3260  -23.5170  -27.7200 C.3   144  ARG144      0.2205
    102  NE         5.7410  -24.2240  -26.5090 N.pl3 144  ARG144     -0.0865
    103  CZ         5.6710  -23.7340  -25.2720 C.cat 144  ARG144      0.5346
    104  NH1        5.2050  -22.5130  -25.0390 N.pl3 144  ARG144      0.1354
    105  NH2        6.0790  -24.4730  -24.2510 N.pl3 144  ARG144      0.1354
    106  N          6.3470  -15.2370  -24.9830 N.3   160  LYS160     -0.1231
    107  CA         7.6730  -15.0300  -24.4180 C.3   160  LYS160      0.1693
    108  C          7.6920  -15.5910  -23.0040 C.2   160  LYS160      0.2592
    109  O          6.6590  -15.6340  -22.3370 O.2   160  LYS160     -0.2718
    110  CB         8.0130  -13.5390  -24.3790 C.3   160  LYS160      0.0285
    111  CG         7.6320  -12.7750  -25.6360 C.3   160  LYS160      0.0035
    112  CD         8.5370  -13.1080  -26.8100 C.3   160  LYS160      0.0206
    113  CE         9.9210  -12.5040  -26.6380 C.3   160  LYS160      0.1093
    114  NZ        10.7440  -12.6480  -27.8700 N.3   160  LYS160     -0.1314
    115  N          8.8610  -16.0260  -22.5460 N.am  161  PHE161     -0.1962
    116  CA         8.9990  -16.4910  -21.1730 C.3   161  PHE161      0.1771
    117  C          9.2380  -15.2980  -20.2580 C.2   161  PHE161      0.2619
    118  O         10.2890  -14.6600  -20.3160 O.2   161  PHE161     -0.2715
    119  CB        10.1460  -17.4900  -21.0450 C.3   161  PHE161      0.0574
    120  CG        10.1730  -18.2110  -19.7260 C.ar  161  PHE161     -0.0200
    121  CD1       10.8700  -17.6900  -18.6490 C.ar  161  PHE161     -0.0042
    122  CD2        9.4950  -19.4080  -19.5630 C.ar  161  PHE161     -0.0042
    123  CE1       10.8930  -18.3520  -17.4360 C.ar  161  PHE161     -0.0003
    124  CE2        9.5150  -20.0740  -18.3510 C.ar  161  PHE161     -0.0003
    125  CZ        10.2140  -19.5450  -17.2870 C.ar  161  PHE161     -0.0000
    126  N          8.2520  -14.9930  -19.4230 N.am  162  VAL162     -0.1977
    127  CA         8.3470  -13.8580  -18.5180 C.3   162  VAL162      0.1596
    128  C          8.6110  -14.3010  -17.0840 C.2   162  VAL162      0.2287
    129  O          8.3850  -15.4530  -16.7210 O.2   162  VAL162     -0.2864
    130  CB         7.0630  -12.9950  -18.5490 C.3   162  VAL162      0.0276
    131  CG1        6.8040  -12.4800  -19.9560 C.3   162  VAL162      0.0022
    132  CG2        5.8650  -13.7840  -18.0320 C.3   162  VAL162      0.0022
    133  N          6.0560  -14.9460  -10.7700 N.3   167  LEU167     -0.1231
    134  CA         6.7830  -15.9360  -11.5510 C.3   167  LEU167      0.1693
    135  C          8.2770  -15.8410  -11.2750 C.2   167  LEU167      0.2592
    136  O          8.8260  -14.7490  -11.1440 O.2   167  LEU167     -0.2718
    137  CB         6.5120  -15.7300  -13.0410 C.3   167  LEU167      0.0284
    138  CG         5.0320  -15.6950  -13.4250 C.3   167  LEU167      0.0019
    139  CD1        4.8670  -15.4170  -14.9100 C.3   167  LEU167      0.0001
    140  CD2        4.3470  -16.9970  -13.0390 C.3   167  LEU167      0.0001
    141  N          8.9290  -16.9950  -11.1840 N.am  168  ASP168     -0.1974
    142  CA        10.3530  -17.0460  -10.8990 C.3   168  ASP168      0.1709
    143  C         11.0860  -17.7870  -12.0070 C.2   168  ASP168      0.2293
    144  O         10.4910  -18.1810  -13.0080 O.2   168  ASP168     -0.2864
    145  CB        10.5930  -17.7400   -9.5570 C.3   168  ASP168      0.1436
    146  CG        10.2010  -19.2020   -9.5780 C.2   168  ASP168      0.3671
    147  OD1        8.9860  -19.4940   -9.5500 O.co2 168  ASP168     -0.2456
    148  OD2       11.1070  -20.0610   -9.6130 O.co2 168  ASP168     -0.2456
@<TRIPOS>BOND
     1    95    96    1
     2   100   101    1
     3   100    99    1
     4    96    99    1
     5    96    97    1
     6   114   113    1
     7   101   102    1
     8    97    98    2
     9   112   113    1
    10   112   111    1
    11   102   103    2
    12   111   110    1
    13   103   104    1
    14   103   105    1
    15   106   107    1
    16    89    88    2
    17    88    87    1
    18   107   110    1
    19   107   108    1
    20    65    63    1
    21    91    92    1
    22    91    90    1
    23    62    61    2
    24    92    93    1
    25    54    53    2
    26    57    56   ar
    27    87    90    1
    28    87    86    1
    29    63    60    1
    30    63    64    1
    31    60    61    1
    32    60    59    1
    33   108   115   am
    34   108   109    2
    35    61    66   am
    36    78    77    1
    37   115   116    1
    38    53    59   am
    39    53    52    1
    40    56    58   ar
    41    56    55    1
    42    93    94    1
    43    76    77    1
    44    76    75    1
    45    66    67    1
    46    52    55    1
    47    52    51    1
    48   116   119    1
    49   116   117    1
    50    67    68    1
    51   119   120    1
    52    70    68   am
    53    70    71    1
    54    74    75    1
    55    74    71    1
    56    46    45    2
    57    68    69    2
    58    71    72    1
    59   118   117    2
    60    49    47    1
    61   117   126   am
    62    51    45   am
    63   131   130    1
    64    45    44    1
    65   120   122   ar
    66   120   121   ar
    67   122   124   ar
    68   126   127    1
    69    47    44    1
    70    47    48    1
    71    72    73    2
    72    72    79   am
    73   121   123   ar
    74    44    43    1
    75   130   127    1
    76   130   132    1
    77   127   128    1
    78   124   125   ar
    79    42    40    1
    80    79    80    1
    81    48    50    1
    82    40    39    1
    83    43    37   am
    84   123   125   ar
    85   128   129    2
    86    80    83    1
    87    80    81    1
    88    37    38    2
    89    37    36    1
    90    39    36    1
    91    39    41    1
    92    83    84    1
    93    83    85    1
    94    81    82    2
    95    36    35    1
    96   139   138    1
    97    35    29   am
    98    30    29    2
    99    29    28    1
   100   138   137    1
   101   138   140    1
   102    23    22    1
   103    23    24    1
   104   137   134    1
   105   144   143    2
   106    26    24   ar
   107    33    32   ar
   108    22    19    1
   109    24    25   ar
   110    28    27    1
   111    28    31    1
   112    16    15    1
   113   143   142    1
   114    21    20    2
   115     9     8    1
   116    32    31    1
   117    32    34   ar
   118    27    20   am
   119    20    19    1
   120    17    15    1
   121   134   135    1
   122   134   133    1
   123    19    18    1
   124   135   141   am
   125   135   136    2
   126   141   142    1
   127     8     7    1
   128    15    14    1
   129   142   145    1
   130     7     6    1
   131    14    11    1
   132   148   146   ar
   133   146   145    1
   134   146   147   ar
   135     6     5    1
   136    12    11    1
   137    12    13    2
   138    11    10    1
   139     5     2    1
   140     2     1    1
   141     2     3    1
   142     3     4    2
