@<TRIPOS>MOLECULE
tmp/4knbD00.pdb
 162 155 0 0 0
SMALL
GASTEIGER

@<TRIPOS>ATOM
      1  N          2.0770   43.2850   11.1830 N.3    21  ILE21      -0.1231
      2  CA         2.7040   43.3620   12.5150 C.3    21  ILE21       0.1692
      3  C          4.0570   44.0890   12.5170 C.2    21  ILE21       0.2592
      4  O          4.8580   43.9080   13.4320 O.2    21  ILE21      -0.2718
      5  CB         2.8890   41.9510   13.1510 C.3    21  ILE21       0.0266
      6  CG1        3.8240   41.0800   12.3090 C.3    21  ILE21       0.0019
      7  CG2        1.5440   41.2650   13.3250 C.3    21  ILE21       0.0020
      8  CD1        4.3470   39.8700   13.0470 C.3    21  ILE21       0.0001
      9  N          4.3030   44.9180   11.5070 N.am   22  GLY22      -0.1957
     10  CA         5.5740   45.6280   11.3960 C.3    22  GLY22       0.1869
     11  C          5.7330   46.3150   10.0550 C.2    22  GLY22       0.2309
     12  O          5.8280   45.6560    9.0210 O.2    22  GLY22      -0.2863
     13  N          5.9870   43.5390    7.4790 N.3    29  VAL29      -0.1245
     14  CA         6.0580   42.2920    8.2410 C.3    29  VAL29       0.1561
     15  C          4.6400   41.8350    8.5800 C.2    29  VAL29       0.2260
     16  O          3.8690   42.5850    9.1800 O.2    29  VAL29      -0.2867
     17  CB         6.8730   42.4490    9.5530 C.3    29  VAL29       0.0252
     18  CG1        7.0320   41.1080   10.2510 C.3    29  VAL29       0.0019
     19  CG2        8.2390   43.0430    9.2740 C.3    29  VAL29       0.0019
     20  N          6.5560   35.4530   12.1290 N.3    43  ALA43      -0.1245
     21  CA         6.6610   36.8100   11.6180 C.3    43  ALA43       0.1562
     22  C          7.2610   36.7090   10.2180 C.2    43  ALA43       0.2260
     23  O          8.4140   36.3040   10.0620 O.2    43  ALA43      -0.2867
     24  CB         7.5410   37.6440   12.5170 C.3    43  ALA43       0.0290
     25  N          8.4310   38.4950    6.7700 N.3    45  LYS45      -0.1245
     26  CA         8.9160   39.7890    6.2860 C.3    45  LYS45       0.1561
     27  C          9.0690   39.7870    4.7660 C.2    45  LYS45       0.2260
     28  O          9.7560   38.9350    4.2090 O.2    45  LYS45      -0.2867
     29  CB        10.2600   40.1130    6.9440 C.3    45  LYS45       0.0271
     30  CG        10.8540   41.4630    6.5630 C.3    45  LYS45       0.0035
     31  CD        12.2160   41.6560    7.2120 C.3    45  LYS45       0.0206
     32  CE        12.9300   42.8910    6.6750 C.3    45  LYS45       0.1093
     33  NZ        14.3770   42.8800    7.0330 N.3    45  LYS45      -0.1314
     34  N         17.7280   35.1580   17.5400 N.3    71  LEU71      -0.1245
     35  CA        16.5210   34.8170   16.7820 C.3    71  LEU71       0.1561
     36  C         16.8750   33.9700   15.5710 C.2    71  LEU71       0.2260
     37  O         17.7770   34.3070   14.8100 O.2    71  LEU71      -0.2867
     38  CB        15.7790   36.0760   16.3280 C.3    71  LEU71       0.0270
     39  CG        14.3810   35.8550   15.7490 C.3    71  LEU71       0.0019
     40  CD1       13.4400   35.2960   16.8160 C.3    71  LEU71       0.0001
     41  CD2       13.8380   37.1490   15.1860 C.3    71  LEU71       0.0001
     42  N         10.3950   34.1450   10.3230 N.3    86  LEU86      -0.1231
     43  CA        10.9680   34.0900   11.6690 C.3    86  LEU86       0.1678
     44  C          9.9350   33.5480   12.6590 C.2    86  LEU86       0.2434
     45  O          8.7460   33.5460   12.3640 O.2    86  LEU86      -0.2733
     46  CB        11.3930   35.4890   12.1230 C.3    86  LEU86       0.0284
     47  CG        12.2140   36.3260   11.1450 C.3    86  LEU86       0.0019
     48  CD1       12.2760   37.7470   11.6470 C.3    86  LEU86       0.0001
     49  CD2       13.6190   35.7550   10.9440 C.3    86  LEU86       0.0001
     50  N         10.3830   33.1240   13.8560 N.am   87  PRO87      -0.2718
     51  CA         9.4170   32.7020   14.8620 C.3    87  PRO87       0.1535
     52  C          8.7680   33.9280   15.4970 C.2    87  PRO87       0.2599
     53  O          9.4660   34.8610   15.8460 O.2    87  PRO87      -0.2715
     54  CB        10.2720   31.9350   15.8920 C.3    87  PRO87       0.0310
     55  CG        11.6920   31.9790   15.3880 C.3    87  PRO87       0.0237
     56  CD        11.7650   33.0500   14.3600 C.3    87  PRO87       0.0939
     57  N          7.4460   33.9360   15.6270 N.am   88  TYR88      -0.1960
     58  CA         6.7760   35.0610   16.2740 C.3    88  TYR88       0.1771
     59  C          7.1820   35.1230   17.7480 C.2    88  TYR88       0.2619
     60  O          7.0960   34.1260   18.4700 O.2    88  TYR88      -0.2715
     61  CB         5.2570   34.9650   16.1400 C.3    88  TYR88       0.0574
     62  CG         4.5290   36.1630   16.7170 C.ar   88  TYR88      -0.0198
     63  CD1        4.5310   37.3910   16.0550 C.ar   88  TYR88      -0.0009
     64  CD2        3.8430   36.0730   17.9290 C.ar   88  TYR88      -0.0009
     65  CE1        3.8620   38.5000   16.5830 C.ar   88  TYR88       0.0417
     66  CE2        3.1730   37.1760   18.4630 C.ar   88  TYR88       0.0417
     67  CZ         3.1860   38.3840   17.7860 C.ar   88  TYR88       0.1957
     68  OH         2.5240   39.4730   18.3120 O.3    88  TYR88      -0.2866
     69  N          7.6380   36.2990   18.1700 N.am   89  MET89      -0.1963
     70  CA         8.0800   36.5340   19.5380 C.3    89  MET89       0.1736
     71  C          6.9930   37.2500   20.3350 C.2    89  MET89       0.2616
     72  O          6.7610   38.4450   20.1540 O.2    89  MET89      -0.2715
     73  CB         9.3710   37.3480   19.5210 C.3    89  MET89       0.0427
     74  CG        10.5490   36.5980   18.9110 C.3    89  MET89       0.0599
     75  SD        11.2410   35.3750   20.0420 S.3    89  MET89      -0.1393
     76  CE        10.4530   33.8630   19.5050 C.3    89  MET89       0.0692
     77  N          6.3470   36.4990   21.2260 N.am   90  LYS90      -0.1963
     78  CA         5.1340   36.9350   21.9380 C.3    90  LYS90       0.1728
     79  C          5.1770   38.3640   22.4810 C.2    90  LYS90       0.2616
     80  O          4.2700   39.1520   22.2280 O.2    90  LYS90      -0.2715
     81  CB         4.8330   35.9730   23.0970 C.3    90  LYS90       0.0311
     82  CG         3.4680   36.1680   23.7500 C.3    90  LYS90       0.0038
     83  CD         3.3450   35.3440   25.0170 C.3    90  LYS90       0.0206
     84  CE         1.9920   35.5370   25.6870 C.3    90  LYS90       0.1093
     85  NZ         1.9870   34.9810   27.0660 N.3    90  LYS90      -0.1314
     86  N          6.2250   38.6870   23.2320 N.am   91  HIS91      -0.1959
     87  CA         6.3050   39.9770   23.9270 C.3    91  HIS91       0.1787
     88  C          7.0680   41.0640   23.1550 C.2    91  HIS91       0.2621
     89  O          7.4290   42.0970   23.7280 O.2    91  HIS91      -0.2715
     90  CB         6.8980   39.7790   25.3280 C.3    91  HIS91       0.0785
     91  CG         6.0180   38.9770   26.2340 C.ar   91  HIS91       0.0821
     92  ND1        6.3940   37.7590   26.7560 N.ar   91  HIS91      -0.2267
     93  CD2        4.7610   39.2060   26.6810 C.ar   91  HIS91       0.1154
     94  CE1        5.4130   37.2780   27.4970 C.ar   91  HIS91       0.1986
     95  NE2        4.4110   38.1380   27.4700 N.ar   91  HIS91      -0.2212
     96  N          7.2910   40.8350   21.8610 N.am   92  GLY92      -0.1940
     97  CA         7.8610   41.8490   20.9740 C.3    92  GLY92       0.2014
     98  C          9.2600   42.2930   21.3560 C.2    92  GLY92       0.2638
     99  O          9.9760   41.5770   22.0600 O.2    92  GLY92      -0.2714
    100  N          9.6440   43.4830   20.8940 N.am   93  ASP93      -0.1971
    101  CA        10.9880   44.0100   21.1440 C.3    93  ASP93       0.1709
    102  C         11.1730   44.4350   22.6010 C.2    93  ASP93       0.2293
    103  O         10.2190   44.8210   23.2770 O.2    93  ASP93      -0.2864
    104  CB        11.3330   45.1690   20.1930 C.3    93  ASP93       0.1436
    105  CG        10.5190   46.4200   20.4630 C.2    93  ASP93       0.3671
    106  OD1        9.2850   46.3930   20.2540 O.co2  93  ASP93      -0.2456
    107  OD2       11.1180   47.4370   20.8700 O.co2  93  ASP93      -0.2456
    108  N          3.6980   45.6370   32.6050 N.3   103  HIS103     -0.1241
    109  CA         4.7920   44.9740   33.3040 C.3   103  HIS103      0.1621
    110  C          5.6000   46.0190   34.0650 C.2   103  HIS103      0.2264
    111  O          5.5550   47.2090   33.7540 O.2   103  HIS103     -0.2867
    112  CB         5.7080   44.2410   32.3240 C.3   103  HIS103      0.0745
    113  CG         4.9880   43.6210   31.1710 C.ar  103  HIS103      0.0817
    114  ND1        4.9390   44.2100   29.9250 N.ar  103  HIS103     -0.2268
    115  CD2        4.2830   42.4690   31.0720 C.ar  103  HIS103      0.1154
    116  CE1        4.2390   43.4440   29.1070 C.ar  103  HIS103      0.1986
    117  NE2        3.8280   42.3830   29.7790 N.ar  103  HIS103     -0.2212
    118  N         15.5010   47.8980   20.7120 N.3   137  ARG137     -0.1231
    119  CA        14.4460   47.7620   19.7010 C.3   137  ARG137      0.1694
    120  C         14.6350   46.5670   18.7410 C.2   137  ARG137      0.2592
    121  O         13.7300   46.2520   17.9660 O.2   137  ARG137     -0.2718
    122  CB        14.3200   49.0590   18.8930 C.3   137  ARG137      0.0321
    123  CG        15.5300   49.3810   18.0200 C.3   137  ARG137      0.0489
    124  CD        15.3470   50.6760   17.2420 C.3   137  ARG137      0.2205
    125  NE        16.2290   50.7010   16.0770 N.pl3 137  ARG137     -0.0865
    126  CZ        17.5390   50.9540   16.1080 C.cat 137  ARG137      0.5346
    127  NH1       18.1590   51.2340   17.2540 N.pl3 137  ARG137      0.1354
    128  NH2       18.2350   50.9330   14.9760 N.pl3 137  ARG137      0.1354
    129  N         15.8020   45.9260   18.7900 N.am  138  ASN138     -0.1974
    130  CA        16.1230   44.7660   17.9480 C.3   138  ASN138      0.1688
    131  C         16.2510   43.4480   18.7230 C.2   138  ASN138      0.2292
    132  O         16.5400   42.4050   18.1360 O.2   138  ASN138     -0.2864
    133  CB        17.4420   45.0140   17.2060 C.3   138  ASN138      0.1181
    134  CG        17.3260   46.0580   16.1240 C.2   138  ASN138      0.2629
    135  OD1       16.2420   46.3400   15.6240 O.2   138  ASN138     -0.2716
    136  ND2       18.4560   46.6290   15.7420 N.am  138  ASN138     -0.0877
    137  N         14.3350   40.6660   20.8550 N.3   140  MET140     -0.1245
    138  CA        12.9590   40.2130   20.9880 C.3   140  MET140      0.1570
    139  C         12.7540   39.3290   22.2130 C.2   140  MET140      0.2261
    140  O         13.7110   38.8060   22.7850 O.2   140  MET140     -0.2867
    141  CB        12.5390   39.4520   19.7360 C.3   140  MET140      0.0387
    142  CG        12.7860   40.1970   18.4360 C.3   140  MET140      0.0595
    143  SD        11.9610   41.7910   18.3370 S.3   140  MET140     -0.1393
    144  CE        10.2410   41.3030   18.2650 C.3   140  MET140      0.0692
    145  N         18.1650   39.9250   17.3630 N.3   150  ALA150     -0.1231
    146  CA        17.5060   39.8640   16.0610 C.3   150  ALA150      0.1694
    147  C         17.8400   41.1020   15.2280 C.2   150  ALA150      0.2592
    148  O         18.6370   41.9420   15.6470 O.2   150  ALA150     -0.2718
    149  CB        15.9980   39.7290   16.2460 C.3   150  ALA150      0.0304
    150  N         17.2450   41.1830   14.0390 N.am  151  ASP151     -0.1974
    151  CA        17.3950   42.3300   13.1330 C.3   151  ASP151      0.1709
    152  C         18.8260   42.4640   12.6200 C.2   151  ASP151      0.2293
    153  O         19.3710   43.5680   12.5420 O.2   151  ASP151     -0.2864
    154  CB        16.9400   43.6320   13.8100 C.3   151  ASP151      0.1436
    155  CG        16.5410   44.7080   12.8090 C.2   151  ASP151      0.3671
    156  OD1       17.2750   45.7170   12.6850 O.co2 151  ASP151     -0.2456
    157  OD2       15.4940   44.5420   12.1460 O.co2 151  ASP151     -0.2456
    158  N         17.1300   39.9560    8.2160 N.3   155  ALA155     -0.1245
    159  CA        16.0770   40.6380    8.9670 C.3   155  ALA155      0.1562
    160  C         16.4300   42.0880    9.3220 C.2   155  ALA155      0.2260
    161  O         15.6730   42.7410   10.0400 O.2   155  ALA155     -0.2867
    162  CB        15.7540   39.8560   10.2390 C.3   155  ALA155      0.0290
@<TRIPOS>BOND
     1    28    27    2
     2    27    26    1
     3    26    25    1
     4    26    29    1
     5    30    29    1
     6    30    31    1
     7    32    33    1
     8    32    31    1
     9    13    14    1
    10   158   159    1
    11    14    15    1
    12    14    17    1
    13    15    16    2
    14   159   160    1
    15   159   162    1
    16    12    11    2
    17    19    17    1
    18   160   161    2
    19    17    18    1
    20    11    10    1
    21    23    22    2
    22    22    21    1
    23    42    43    1
    24    49    47    1
    25    47    48    1
    26    47    46    1
    27     1     2    1
    28    10     9    1
    29     9     3   am
    30    21    20    1
    31    21    24    1
    32    43    46    1
    33    43    44    1
    34   157   155   ar
    35     6     8    1
    36     6     5    1
    37    45    44    2
    38     2     3    1
    39     2     5    1
    40     3     4    2
    41   153   152    2
    42   152   151    1
    43    44    50   am
    44   156   155   ar
    45   155   154    1
    46   151   154    1
    47   151   150    1
    48     5     7    1
    49    50    56    1
    50    50    51    1
    51   150   147   am
    52    56    55    1
    53    37    36    2
    54    51    52    1
    55    51    54    1
    56   128   126    1
    57    41    39    1
    58   147   148    2
    59   147   146    1
    60    55    54    1
    61    52    57   am
    62    52    53    2
    63    36    35    1
    64   135   134    2
    65    57    58    1
    66   136   134   am
    67    39    38    1
    68    39    40    1
    69    63    65   ar
    70    63    62   ar
    71   146   149    1
    72   146   145    1
    73   125   126    2
    74   125   124    1
    75   126   127    1
    76   134   133    1
    77    61    58    1
    78    61    62    1
    79    58    59    1
    80    38    35    1
    81    65    67   ar
    82    62    64   ar
    83    35    34    1
    84   133   130    1
    85   124   123    1
    86    59    69   am
    87    59    60    2
    88    67    68    1
    89    67    66   ar
    90    64    66   ar
    91   130   131    1
    92   130   129    1
    93   121   120    2
    94   123   122    1
    95   132   131    2
    96    69    70    1
    97   144   143    1
    98   143   142    1
    99   142   141    1
   100   120   129   am
   101   120   119    1
   102   122   119    1
   103    74    73    1
   104    74    75    1
   105    76    75    1
   106    73    70    1
   107    70    71    1
   108   119   118    1
   109   141   138    1
   110    72    71    2
   111   104   105    1
   112   104   101    1
   113   106   105   ar
   114    71    77   am
   115   105   107   ar
   116   137   138    1
   117   100   101    1
   118   100    98   am
   119    97    98    1
   120    97    96    1
   121   138   139    1
   122   101   102    1
   123    77    78    1
   124    98    99    2
   125    96    88   am
   126    78    79    1
   127    78    81    1
   128   139   140    2
   129    80    79    2
   130    79    86   am
   131   102   103    2
   132    81    82    1
   133    88    89    2
   134    88    87    1
   135    86    87    1
   136    82    83    1
   137    87    90    1
   138    83    84    1
   139    90    91    1
   140    84    85    1
   141    91    93   ar
   142    91    92   ar
   143    93    95   ar
   144    92    94   ar
   145    95    94   ar
   146   116   117   ar
   147   116   114   ar
   148   117   115   ar
   149   114   113   ar
   150   115   113   ar
   151   113   112    1
   152   112   109    1
   153   108   109    1
   154   109   110    1
   155   111   110    2
