@<TRIPOS>MOLECULE
tmp/4knbC00.pdb
 190 181 0 0 0
SMALL
GASTEIGER

@<TRIPOS>ATOM
      1  N         19.6660  -20.1720   57.8010 N.3    25  ILE25      -0.1231
      2  CA        18.6250  -20.0750   56.7670 C.3    25  ILE25       0.1692
      3  C         17.4040  -19.2470   57.2040 C.2    25  ILE25       0.2592
      4  O         16.2930  -19.4690   56.7200 O.2    25  ILE25      -0.2718
      5  CB        18.1590  -21.4870   56.3000 C.3    25  ILE25       0.0266
      6  CG1       17.7490  -22.3510   57.4900 C.3    25  ILE25       0.0019
      7  CG2       19.2600  -22.1730   55.5200 C.3    25  ILE25       0.0020
      8  CD1       16.9730  -23.6050   57.1020 C.3    25  ILE25       0.0001
      9  N         17.6070  -18.2830   58.0970 N.am   26  GLY26      -0.1957
     10  CA        16.4980  -17.4680   58.5830 C.3    26  GLY26       0.1869
     11  C         16.8890  -16.4610   59.6440 C.2    26  GLY26       0.2309
     12  O         17.7100  -16.7490   60.5130 O.2    26  GLY26      -0.2863
     13  N         17.3330  -19.2030   62.2780 N.3    33  VAL33      -0.1245
     14  CA        17.0170  -20.5790   61.8650 C.3    33  VAL33       0.1561
     15  C         18.2380  -21.2060   61.1860 C.2    33  VAL33       0.2260
     16  O         18.9610  -20.5290   60.4490 O.2    33  VAL33      -0.2867
     17  CB        15.8010  -20.6330   60.8990 C.3    33  VAL33       0.0252
     18  CG1       15.4090  -22.0770   60.5890 C.3    33  VAL33       0.0019
     19  CG2       14.6060  -19.8970   61.4870 C.3    33  VAL33       0.0019
     20  N         20.2460  -25.0500   59.4890 N.3    35  HIS35      -0.1241
     21  CA        20.1700  -26.4200   58.9850 C.3    35  HIS35       0.1621
     22  C         20.4550  -27.3890   60.1280 C.2    35  HIS35       0.2264
     23  O         21.2880  -27.1120   60.9970 O.2    35  HIS35      -0.2867
     24  CB        21.1850  -26.6630   57.8630 C.3    35  HIS35       0.0745
     25  CG        20.7500  -26.1490   56.5250 C.ar   35  HIS35       0.0817
     26  ND1       19.9410  -26.8750   55.6770 N.ar   35  HIS35      -0.2268
     27  CD2       21.0250  -24.9900   55.8820 C.ar   35  HIS35       0.1154
     28  CE1       19.7340  -26.1840   54.5700 C.ar   35  HIS35       0.1986
     29  NE2       20.3770  -25.0350   54.6710 N.ar   35  HIS35      -0.2212
     30  N         14.8380  -28.2220   59.7670 N.3    42  ALA42      -0.1245
     31  CA        15.1180  -26.8070   59.9930 C.3    42  ALA42       0.1562
     32  C         15.0110  -26.5130   61.4840 C.2    42  ALA42       0.2260
     33  O         13.9640  -26.7600   62.1000 O.2    42  ALA42      -0.2867
     34  CB        14.1480  -25.9330   59.1990 C.3    42  ALA42       0.0290
     35  N         15.1580  -23.8880   64.6280 N.3    44  LYS44      -0.1245
     36  CA        15.0210  -22.4950   65.0540 C.3    44  LYS44       0.1561
     37  C         15.3640  -22.3180   66.5280 C.2    44  LYS44       0.2260
     38  O         14.8220  -23.0110   67.3870 O.2    44  LYS44      -0.2867
     39  CB        13.6010  -21.9720   64.8070 C.3    44  LYS44       0.0271
     40  CG        13.4640  -20.4700   65.0730 C.3    44  LYS44       0.0035
     41  CD        12.0190  -20.0320   65.1290 C.3    44  LYS44       0.0206
     42  CE        11.8980  -18.5640   65.5100 C.3    44  LYS44       0.1093
     43  NZ        10.5090  -18.2330   65.9340 N.3    44  LYS44      -0.1314
     44  N          2.2810  -27.5850   58.0270 N.3    71  LEU71      -0.1245
     45  CA         3.6380  -27.9390   58.4410 C.3    71  LEU71       0.1561
     46  C          3.6490  -28.4140   59.8900 C.2    71  LEU71       0.2260
     47  O          3.0500  -27.7910   60.7730 O.2    71  LEU71      -0.2867
     48  CB         4.5930  -26.7540   58.2670 C.3    71  LEU71       0.0270
     49  CG         6.0870  -27.0660   58.4320 C.3    71  LEU71       0.0019
     50  CD1        6.6000  -27.9020   57.2810 C.3    71  LEU71       0.0001
     51  CD2        6.8950  -25.7910   58.5410 C.3    71  LEU71       0.0001
     52  N         11.7580  -28.6910   62.7910 N.3    84  LEU84      -0.1231
     53  CA        10.7030  -28.8120   61.7790 C.3    84  LEU84       0.1678
     54  C         11.2570  -29.4990   60.5310 C.2    84  LEU84       0.2434
     55  O         12.4670  -29.5200   60.3340 O.2    84  LEU84      -0.2733
     56  CB        10.1890  -27.4240   61.3750 C.3    84  LEU84       0.0284
     57  CG         9.8180  -26.4230   62.4750 C.3    84  LEU84       0.0019
     58  CD1        9.8030  -25.0190   61.9080 C.3    84  LEU84       0.0001
     59  CD2        8.4750  -26.7600   63.1160 C.3    84  LEU84       0.0001
     60  N         10.3740  -30.0530   59.6750 N.am   85  PRO85      -0.2718
     61  CA        10.8430  -30.6570   58.4260 C.3    85  PRO85       0.1535
     62  C         11.4280  -29.6190   57.4740 C.2    85  PRO85       0.2599
     63  O         10.8540  -28.5460   57.3180 O.2    85  PRO85      -0.2715
     64  CB         9.5660  -31.2580   57.8250 C.3    85  PRO85       0.0310
     65  CG         8.6080  -31.3580   58.9620 C.3    85  PRO85       0.0237
     66  CD         8.9140  -30.1770   59.8120 C.3    85  PRO85       0.0939
     67  N         12.5600  -29.9370   56.8530 N.am   86  TYR86      -0.1960
     68  CA        13.1850  -29.0250   55.9020 C.3    86  TYR86       0.1771
     69  C         12.3660  -29.0360   54.6170 C.2    86  TYR86       0.2619
     70  O         12.0100  -30.1010   54.1040 O.2    86  TYR86      -0.2715
     71  CB        14.6390  -29.4280   55.6210 C.3    86  TYR86       0.0574
     72  CG        15.3300  -28.5330   54.6210 C.ar   86  TYR86      -0.0198
     73  CD1       15.7800  -27.2680   54.9880 C.ar   86  TYR86      -0.0009
     74  CD2       15.5250  -28.9430   53.3080 C.ar   86  TYR86      -0.0009
     75  CE1       16.4060  -26.4350   54.0750 C.ar   86  TYR86       0.0417
     76  CE2       16.1570  -28.1190   52.3820 C.ar   86  TYR86       0.0417
     77  CZ        16.5930  -26.8660   52.7710 C.ar   86  TYR86       0.1957
     78  OH        17.2180  -26.0430   51.8600 O.3    86  TYR86      -0.2866
     79  N         12.0530  -27.8480   54.1150 N.am   87  MET87      -0.1963
     80  CA        11.2300  -27.7080   52.9210 C.3    87  MET87       0.1736
     81  C         12.1110  -27.2400   51.7700 C.2    87  MET87       0.2616
     82  O         12.5310  -26.0830   51.7220 O.2    87  MET87      -0.2715
     83  CB        10.0720  -26.7460   53.1900 C.3    87  MET87       0.0427
     84  CG         9.1030  -27.2780   54.2410 C.3    87  MET87       0.0599
     85  SD         8.0230  -28.5460   53.5600 S.3    87  MET87      -0.1393
     86  CE         8.1830  -29.8670   54.7470 C.3    87  MET87       0.0692
     87  N         12.3770  -28.1720   50.8560 N.am   88  LYS88      -0.1963
     88  CA        13.3690  -28.0270   49.7820 C.3    88  LYS88       0.1728
     89  C         13.2950  -26.7070   49.0240 C.2    88  LYS88       0.2616
     90  O         14.3070  -26.0300   48.8520 O.2    88  LYS88      -0.2715
     91  CB        13.2100  -29.1890   48.7940 C.3    88  LYS88       0.0311
     92  CG        14.1740  -29.1770   47.6130 C.3    88  LYS88       0.0038
     93  CD        14.1830  -30.5250   46.9120 C.3    88  LYS88       0.0206
     94  CE        15.0550  -30.5060   45.6750 C.3    88  LYS88       0.1093
     95  NZ        15.2670  -31.8810   45.1400 N.3    88  LYS88      -0.1314
     96  N         12.0910  -26.3470   48.5880 N.am   89  HIS89      -0.1959
     97  CA        11.8820  -25.1730   47.7360 C.3    89  HIS89       0.1787
     98  C         11.5430  -23.8800   48.4980 C.2    89  HIS89       0.2621
     99  O         11.0200  -22.9240   47.9180 O.2    89  HIS89      -0.2715
    100  CB        10.8060  -25.4910   46.6930 C.3    89  HIS89       0.0785
    101  CG        11.2330  -26.5240   45.7030 C.ar   89  HIS89       0.0821
    102  ND1       12.2750  -26.3200   44.8230 N.ar   89  HIS89      -0.2267
    103  CD2       10.7800  -27.7780   45.4700 C.ar   89  HIS89       0.1154
    104  CE1       12.4390  -27.4020   44.0830 C.ar   89  HIS89       0.1986
    105  NE2       11.5480  -28.3030   44.4570 N.ar   89  HIS89      -0.2212
    106  N         11.8660  -23.8430   49.7890 N.am   90  GLY90      -0.1940
    107  CA        11.7150  -22.6320   50.5870 C.3    90  GLY90       0.2014
    108  C         10.2770  -22.1750   50.6580 C.2    90  GLY90       0.2638
    109  O          9.3590  -22.9730   50.4600 O.2    90  GLY90      -0.2714
    110  N         10.0900  -20.8820   50.9220 N.am   91  ASP91      -0.1971
    111  CA         8.7610  -20.2790   50.9510 C.3    91  ASP91       0.1709
    112  C          8.1820  -20.1680   49.5450 C.2    91  ASP91       0.2293
    113  O          8.9130  -20.2000   48.5440 O.2    91  ASP91      -0.2864
    114  CB         8.7790  -18.9070   51.6380 C.3    91  ASP91       0.1436
    115  CG         9.5660  -17.8700   50.8630 C.2    91  ASP91       0.3671
    116  OD1       10.8000  -18.0150   50.7550 O.co2  91  ASP91      -0.2456
    117  OD2        8.9580  -16.8980   50.3690 O.co2  91  ASP91      -0.2456
    118  N          9.1240  -16.8210   47.3350 N.3    94  ASN94      -0.1240
    119  CA        10.4350  -16.9230   46.6830 C.3    94  ASN94       0.1653
    120  C         10.4420  -17.9300   45.5470 C.2    94  ASN94       0.2266
    121  O         11.1160  -17.7180   44.5460 O.2    94  ASN94      -0.2867
    122  CB        11.5320  -17.2850   47.6840 C.3    94  ASN94       0.1155
    123  CG        11.9770  -16.0960   48.5110 C.2    94  ASN94       0.2627
    124  OD1       13.1400  -15.6980   48.4630 O.2    94  ASN94      -0.2716
    125  ND2       11.0470  -15.5070   49.2560 N.am   94  ASN94      -0.0877
    126  N         11.1240  -17.0640   41.4290 N.3    98  ASN98      -0.1240
    127  CA        12.2950  -17.9090   41.2200 C.3    98  ASN98       0.1653
    128  C         12.6820  -17.9450   39.7470 C.2    98  ASN98       0.2266
    129  O         11.8250  -17.8160   38.8710 O.2    98  ASN98      -0.2867
    130  CB        11.9730  -19.3220   41.7140 C.3    98  ASN98       0.1155
    131  CG        13.1890  -20.1950   41.8760 C.2    98  ASN98       0.2627
    132  OD1       14.3150  -19.8070   41.5530 O.2    98  ASN98      -0.2716
    133  ND2       12.9640  -21.4050   42.3780 N.am   98  ASN98      -0.0877
    134  N          4.7560  -15.8540   51.8840 N.3   135  ARG135     -0.1231
    135  CA         6.0560  -16.0030   52.5440 C.3   135  ARG135      0.1694
    136  C          6.0630  -17.0400   53.6720 C.2   135  ARG135      0.2592
    137  O          7.1260  -17.4950   54.0920 O.2   135  ARG135     -0.2718
    138  CB         6.5400  -14.6530   53.0870 C.3   135  ARG135      0.0321
    139  CG         5.6710  -14.0540   54.1840 C.3   135  ARG135      0.0489
    140  CD         6.2980  -12.7950   54.7780 C.3   135  ARG135      0.2205
    141  NE         5.3110  -12.0870   55.5900 N.pl3 135  ARG135     -0.0865
    142  CZ         4.3720  -11.2700   55.1110 C.cat 135  ARG135      0.5346
    143  NH1        4.2890  -11.0090   53.8070 N.pl3 135  ARG135      0.1354
    144  NH2        3.5060  -10.6990   55.9420 N.pl3 135  ARG135      0.1354
    145  N          4.8800  -17.3940   54.1650 N.am  136  ASN136     -0.1974
    146  CA         4.7280  -18.3370   55.2710 C.3   136  ASN136      0.1688
    147  C          4.1650  -19.6960   54.8410 C.2   136  ASN136      0.2292
    148  O          3.8080  -20.5190   55.6770 O.2   136  ASN136     -0.2864
    149  CB         3.8540  -17.6940   56.3480 C.3   136  ASN136      0.1181
    150  CG         4.5120  -16.4840   56.9650 C.2   136  ASN136      0.2629
    151  OD1        5.7410  -16.4200   57.0570 O.2   136  ASN136     -0.2716
    152  ND2        3.7090  -15.5100   57.3790 N.am  136  ASN136     -0.0877
    153  N          5.3250  -23.0540   52.8210 N.3   138  MET138     -0.1245
    154  CA         6.5460  -23.7250   52.4070 C.3   138  MET138      0.1570
    155  C          6.2480  -24.8350   51.3950 C.2   138  MET138      0.2261
    156  O          5.1490  -25.3830   51.3760 O.2   138  MET138     -0.2867
    157  CB         7.2600  -24.2880   53.6390 C.3   138  MET138      0.0387
    158  CG         7.5520  -23.2540   54.7370 C.3   138  MET138      0.0595
    159  SD         8.6370  -21.8910   54.2200 S.3   138  MET138     -0.1393
    160  CE        10.1920  -22.7420   54.0000 C.3   138  MET138      0.0692
    161  N          2.4050  -22.5900   57.3800 N.3   148  ALA148     -0.1231
    162  CA         3.4850  -22.5690   58.3540 C.3   148  ALA148      0.1694
    163  C          3.6190  -21.1920   58.9950 C.2   148  ALA148      0.2592
    164  O          2.8370  -20.2920   58.6990 O.2   148  ALA148     -0.2718
    165  CB         4.8040  -22.9900   57.6720 C.3   148  ALA148      0.0304
    166  N          4.6130  -21.0510   59.8740 N.am  149  ASP149     -0.1974
    167  CA         4.8760  -19.8110   60.6180 C.3   149  ASP149      0.1709
    168  C          3.7520  -19.5070   61.6070 C.2   149  ASP149      0.2293
    169  O          3.3250  -18.3600   61.7670 O.2   149  ASP149     -0.2864
    170  CB         5.1080  -18.6160   59.6770 C.3   149  ASP149      0.1436
    171  CG         5.7620  -17.4360   60.3820 C.2   149  ASP149      0.3671
    172  OD1        5.5540  -16.2900   59.9390 O.co2 149  ASP149     -0.2456
    173  OD2        6.4720  -17.6520   61.3850 O.co2 149  ASP149     -0.2456
    174  N          7.1680  -21.8650   65.9580 N.3   153  ALA153     -0.1245
    175  CA         8.0460  -21.2810   64.9460 C.3   153  ALA153      0.1562
    176  C          7.5300  -19.9330   64.4300 C.2   153  ALA153      0.2260
    177  O          7.9350  -19.4890   63.3510 O.2   153  ALA153     -0.2867
    178  CB         8.2140  -22.2580   63.7910 C.3   153  ALA153      0.0290
    179  N         10.1850  -12.9690   59.5100 N.3   157  TYR157     -0.1241
    180  CA        11.4380  -13.2330   58.8120 C.3   157  TYR157      0.1605
    181  C         11.7270  -12.1960   57.7280 C.2   157  TYR157      0.2264
    182  O         12.8820  -11.8210   57.5150 O.2   157  TYR157     -0.2867
    183  CB        11.4170  -14.6500   58.2420 C.3   157  TYR157      0.0534
    184  CG        11.2590  -15.6950   59.3250 C.ar  157  TYR157     -0.0201
    185  CD1       12.3520  -16.1090   60.0840 C.ar  157  TYR157     -0.0009
    186  CD2       10.0140  -16.2460   59.6120 C.ar  157  TYR157     -0.0009
    187  CE1       12.2120  -17.0590   61.0830 C.ar  157  TYR157      0.0417
    188  CE2        9.8660  -17.2010   60.6100 C.ar  157  TYR157      0.0417
    189  CZ        10.9660  -17.6030   61.3380 C.ar  157  TYR157      0.1957
    190  OH        10.8180  -18.5450   62.3290 O.3   157  TYR157     -0.2866
@<TRIPOS>BOND
     1   129   128    2
     2   128   127    1
     3   127   126    1
     4   127   130    1
     5   132   131    2
     6   130   131    1
     7   131   133   am
     8   104   105   ar
     9   104   102   ar
    10   105   103   ar
    11   121   120    2
    12   102   101   ar
    13    95    94    1
    14   103   101   ar
    15   120   119    1
    16    94    93    1
    17   101   100    1
    18   119   118    1
    19   119   122    1
    20   100    97    1
    21    93    92    1
    22    92    91    1
    23   122   123    1
    24    97    98    1
    25    97    96    1
    26    99    98    2
    27   124   123    2
    28    98   106   am
    29   123   125   am
    30   113   112    2
    31    96    89   am
    32    91    88    1
    33    90    89    2
    34    89    88    1
    35   112   111    1
    36    88    87    1
    37   106   107    1
    38   117   115   ar
    39   109   108    2
    40   107   108    1
    41   108   110   am
    42   116   115   ar
    43    87    81   am
    44   115   114    1
    45   110   111    1
    46   111   114    1
    47   156   155    2
    48   155   154    1
    49    82    81    2
    50    81    80    1
    51    78    77    1
    52   134   135    1
    53    76    77   ar
    54    76    74   ar
    55   154   153    1
    56   154   157    1
    57   135   138    1
    58   135   136    1
    59    77    75   ar
    60    80    83    1
    61    80    79    1
    62   138   139    1
    63    83    84    1
    64    74    72   ar
    65    85    84    1
    66    85    86    1
    67   157   158    1
    68   136   137    2
    69   136   145   am
    70   143   142    1
    71   160   159    1
    72    75    73   ar
    73    70    69    2
    74    79    69   am
    75   145   146    1
    76   139   140    1
    77   159   158    1
    78    28    29   ar
    79    28    26   ar
    80    69    68    1
    81    72    73   ar
    82    72    71    1
    83    29    27   ar
    84   140   141    1
    85   147   146    1
    86   147   148    2
    87   142   141    2
    88   142   144    1
    89   146   149    1
    90     7     5    1
    91    71    68    1
    92    26    25   ar
    93    27    25   ar
    94    68    67    1
    95     5     2    1
    96     5     6    1
    97   149   150    1
    98    25    24    1
    99     4     3    2
   100     2     3    1
   101     2     1    1
   102    67    62   am
   103   150   151    2
   104   150   152   am
   105     8     6    1
   106     3     9   am
   107    50    49    1
   108    63    62    2
   109   161   162    1
   110    62    61    1
   111   182   181    2
   112   165   162    1
   113   181   180    1
   114    64    61    1
   115    64    65    1
   116    24    21    1
   117    44    45    1
   118     9    10    1
   119   183   180    1
   120   183   184    1
   121    48    49    1
   122    48    45    1
   123   162   163    1
   124    61    60    1
   125    49    51    1
   126    45    46    1
   127    10    11    1
   128   164   163    2
   129   180   179    1
   130    65    66    1
   131    21    20    1
   132    21    22    1
   133   163   166   am
   134    34    31    1
   135   184   186   ar
   136   184   185   ar
   137   186   188   ar
   138    11    12    2
   139    60    66    1
   140    60    54   am
   141   170   171    1
   142   170   167    1
   143    30    31    1
   144   166   167    1
   145    46    47    2
   146   172   171   ar
   147    31    32    1
   148   185   187   ar
   149    22    23    2
   150    55    54    2
   151   171   173   ar
   152    16    15    2
   153    54    53    1
   154    18    17    1
   155   188   189   ar
   156   167   168    1
   157    17    19    1
   158    17    14    1
   159   187   189   ar
   160    15    14    1
   161   189   190    1
   162    56    53    1
   163    56    57    1
   164    32    33    2
   165   168   169    2
   166    53    52    1
   167    14    13    1
   168    58    57    1
   169    57    59    1
   170   177   176    2
   171   178   175    1
   172   176   175    1
   173    35    36    1
   174    39    36    1
   175    39    40    1
   176   175   174    1
   177    36    37    1
   178    40    41    1
   179    41    42    1
   180    42    43    1
   181    37    38    2
