@<TRIPOS>MOLECULE
tmp/4kneA00.pdb
 133 128 0 0 0
SMALL
GASTEIGER

@<TRIPOS>ATOM
      1  N          1.9470   -9.9890    3.7490 N.3     5  ILE5       -0.1231
      2  CA         2.4530  -10.5940    2.5150 C.3     5  ILE5        0.1692
      3  C          1.4060  -11.4960    1.8490 C.2     5  ILE5        0.2592
      4  O          0.7790  -12.3150    2.4990 O.2     5  ILE5       -0.2718
      5  CB         3.7910  -11.3600    2.7350 C.3     5  ILE5        0.0266
      6  CG1        4.2540  -12.0200    1.4280 C.3     5  ILE5        0.0019
      7  CG2        3.6740  -12.3990    3.8750 C.3     5  ILE5        0.0020
      8  CD1        5.7150  -12.4440    1.4110 C.3     5  ILE5        0.0001
      9  N          1.2050  -11.3350    0.5440 N.am    6  TRP6       -0.1962
     10  CA         0.2290  -12.1550   -0.1580 C.3     6  TRP6        0.1771
     11  C          0.5470  -12.1860   -1.6440 C.2     6  TRP6        0.2619
     12  O          1.3400  -11.3730   -2.1240 O.2     6  TRP6       -0.2715
     13  CB        -1.2170  -11.6660    0.0820 C.3     6  TRP6        0.0590
     14  CG        -1.5940  -10.4070   -0.6470 C.ar    6  TRP6        0.0006
     15  CD1       -2.0620  -10.3070   -1.9340 C.ar    6  TRP6        0.0946
     16  CD2       -1.5560   -9.0680   -0.1300 C.ar    6  TRP6        0.0152
     17  NE1       -2.2860   -8.9900   -2.2510 N.ar    6  TRP6       -0.2442
     18  CE2       -1.9980   -8.2090   -1.1610 C.ar    6  TRP6        0.0810
     19  CE3       -1.1980   -8.5130    1.1090 C.ar    6  TRP6        0.0012
     20  CZ2       -2.0820   -6.8210   -0.9970 C.ar    6  TRP6        0.0191
     21  CZ3       -1.2730   -7.1410    1.2710 C.ar    6  TRP6        0.0001
     22  CH2       -1.7110   -6.3080    0.2200 C.ar    6  TRP6        0.0015
     23  N         -0.0540  -13.1450   -2.3450 N.am    7  ALA7       -0.1977
     24  CA         0.0560  -13.2540   -3.7980 C.3     7  ALA7        0.1597
     25  C         -1.3510  -13.2710   -4.3750 C.2     7  ALA7        0.2287
     26  O         -2.1740  -14.0780   -3.9580 O.2     7  ALA7       -0.2864
     27  CB         0.7980  -14.5120   -4.1990 C.3     7  ALA7        0.0319
     28  N         -4.2970  -21.9300   -3.8510 N.3    20  ILE20      -0.1245
     29  CA        -3.6850  -20.9170   -4.6950 C.3    20  ILE20       0.1561
     30  C         -3.9650  -21.3730   -6.1230 C.2    20  ILE20       0.2260
     31  O         -3.6320  -22.5120   -6.4880 O.2    20  ILE20      -0.2867
     32  CB        -2.1630  -20.8690   -4.4970 C.3    20  ILE20       0.0252
     33  CG1       -1.8040  -20.6950   -3.0120 C.3    20  ILE20       0.0019
     34  CG2       -1.5630  -19.7410   -5.3220 C.3    20  ILE20       0.0019
     35  CD1       -0.3290  -20.9010   -2.7050 C.3    20  ILE20       0.0001
     36  N          7.3430  -17.4990   -6.4060 N.3    27  ASP27      -0.1225
     37  CA         6.5920  -16.8860   -5.3240 C.3    27  ASP27       0.1805
     38  C          6.8990  -17.5330   -3.9660 C.2    27  ASP27       0.2597
     39  O          7.0570  -16.8340   -2.9640 O.2    27  ASP27      -0.2718
     40  CB         5.0860  -16.9180   -5.6080 C.3    27  ASP27       0.1424
     41  CG         4.2590  -16.3230   -4.4690 C.2    27  ASP27       0.3668
     42  OD1        3.3170  -16.9920   -3.9840 O.co2  27  ASP27      -0.2456
     43  OD2        4.5410  -15.1720   -4.0690 O.co2  27  ASP27      -0.2456
     44  N          6.9620  -18.8620   -3.9320 N.am   28  GLN28      -0.1979
     45  CA         7.2640  -19.5710   -2.6870 C.3    28  GLN28       0.1601
     46  C          8.6470  -19.1500   -2.1790 C.2    28  GLN28       0.2287
     47  O          8.8320  -18.8450   -0.9960 O.2    28  GLN28      -0.2864
     48  CB         7.2280  -21.0850   -2.8810 C.3    28  GLN28       0.0394
     49  CG         5.8810  -21.6930   -3.1510 C.3    28  GLN28       0.0908
     50  CD         5.0270  -21.6430   -1.9040 C.2    28  GLN28       0.2608
     51  OE1        5.5740  -21.6610   -0.7910 O.2    28  GLN28      -0.2717
     52  NE2        3.6960  -21.5670   -2.0660 N.am   28  GLN28      -0.0878
     53  N         10.2110  -16.3850   -2.9560 N.3    30  HIS30      -0.1226
     54  CA        10.0740  -14.9810   -2.5810 C.3    30  HIS30       0.1752
     55  C          9.5000  -14.8480   -1.1650 C.2    30  HIS30       0.2596
     56  O          9.9990  -14.0740   -0.3440 O.2    30  HIS30      -0.2718
     57  CB         9.1750  -14.2480   -3.5760 C.3    30  HIS30       0.0759
     58  CG         8.7940  -12.8590   -3.1510 C.ar   30  HIS30       0.0818
     59  ND1        9.7230  -11.8750   -2.9000 N.ar   30  HIS30      -0.2268
     60  CD2        7.5780  -12.2960   -2.9410 C.ar   30  HIS30       0.1154
     61  CE1        9.0980  -10.7640   -2.5420 C.ar   30  HIS30       0.1986
     62  NE2        7.7980  -10.9910   -2.5720 N.ar   30  HIS30      -0.2212
     63  N          8.4560  -15.6170   -0.8910 N.am   31  PHE31      -0.1976
     64  CA         7.7590  -15.5660    0.3880 C.3    31  PHE31       0.1639
     65  C          8.7010  -15.9390    1.5250 C.2    31  PHE31       0.2290
     66  O          8.7930  -15.2450    2.5460 O.2    31  PHE31      -0.2864
     67  CB         6.5430  -16.4980    0.3420 C.3    31  PHE31       0.0560
     68  CG         5.9280  -16.7640    1.6830 C.ar   31  PHE31      -0.0200
     69  CD1        5.0490  -15.8520    2.2460 C.ar   31  PHE31      -0.0042
     70  CD2        6.2210  -17.9310    2.3760 C.ar   31  PHE31      -0.0042
     71  CE1        4.4690  -16.0840    3.4800 C.ar   31  PHE31      -0.0003
     72  CE2        5.6370  -18.1820    3.6160 C.ar   31  PHE31      -0.0003
     73  CZ         4.7630  -17.2540    4.1730 C.ar   31  PHE31      -0.0000
     74  N         -5.9420  -21.1670    8.4310 N.3    46  THR46      -0.1218
     75  CA        -4.7610  -21.2700    7.5800 C.3    46  THR46       0.1862
     76  C         -3.7790  -22.3610    8.0720 C.2    46  THR46       0.2287
     77  O         -3.2940  -23.1790    7.2830 O.2    46  THR46      -0.2866
     78  CB        -4.0770  -19.8800    7.4330 C.3    46  THR46       0.1770
     79  OG1       -4.9430  -18.9930    6.7120 O.3    46  THR46      -0.2211
     80  CG2       -2.7430  -19.9700    6.6950 C.3    46  THR46       0.0375
     81  N         -5.1580  -25.6790    7.2290 N.3    49  SER49      -0.1202
     82  CA        -5.1120  -26.0460    5.8280 C.3    49  SER49       0.2020
     83  C         -3.6910  -26.4420    5.3760 C.2    49  SER49       0.2618
     84  O         -3.5100  -27.0460    4.3240 O.2    49  SER49      -0.2717
     85  CB        -5.6940  -24.9290    4.9510 C.3    49  SER49       0.2103
     86  OG        -4.8990  -23.7590    4.9890 O.3    49  SER49      -0.2182
     87  N         -2.6850  -26.1160    6.1720 N.am   50  LEU50      -0.1979
     88  CA        -1.3270  -26.5840    5.8650 C.3    50  LEU50       0.1596
     89  C         -1.1670  -28.0660    6.2220 C.2    50  LEU50       0.2287
     90  O         -1.6540  -28.5100    7.2650 O.2    50  LEU50      -0.2864
     91  CB        -0.2750  -25.7710    6.6260 C.3    50  LEU50       0.0297
     92  CG         0.0660  -24.3220    6.2660 C.3    50  LEU50       0.0022
     93  CD1        0.7770  -23.6600    7.4440 C.3    50  LEU50       0.0001
     94  CD2        0.9360  -24.2620    5.0040 C.3    50  LEU50       0.0001
     95  N          5.9650  -23.6710    9.5990 N.3    57  LEU57      -0.1245
     96  CA         6.9120  -23.2900    8.5680 C.3    57  LEU57       0.1561
     97  C          8.2500  -23.0230    9.2410 C.2    57  LEU57       0.2260
     98  O          8.3330  -22.2250   10.1700 O.2    57  LEU57      -0.2867
     99  CB         6.4170  -22.0520    7.8140 C.3    57  LEU57       0.0270
    100  CG         4.9450  -22.0550    7.3810 C.3    57  LEU57       0.0019
    101  CD1        4.6310  -20.8470    6.4860 C.3    57  LEU57       0.0001
    102  CD2        4.5520  -23.3480    6.6720 C.3    57  LEU57       0.0001
    103  N          0.4570  -13.7510    7.1470 N.3    94  ILE94      -0.1231
    104  CA         0.5110  -14.5450    5.9090 C.3    94  ILE94       0.1692
    105  C         -0.8350  -15.0860    5.4160 C.2    94  ILE94       0.2592
    106  O         -0.9020  -15.7320    4.3630 O.2    94  ILE94      -0.2718
    107  CB         1.5170  -15.7080    6.0090 C.3    94  ILE94       0.0266
    108  CG1        1.0260  -16.7620    7.0030 C.3    94  ILE94       0.0019
    109  CG2        2.9030  -15.1850    6.3820 C.3    94  ILE94       0.0020
    110  CD1        1.9060  -18.0070    7.0610 C.3    94  ILE94       0.0001
    111  N         -1.8980  -14.8140    6.1670 N.am   95  GLY95      -0.1957
    112  CA        -3.2410  -15.2540    5.8020 C.3    95  GLY95       0.1869
    113  C         -4.0310  -15.6130    7.0490 C.2    95  GLY95       0.2309
    114  O         -3.4480  -15.7770    8.1090 O.2    95  GLY95      -0.2863
    115  N         -5.9000  -11.0140    7.5670 N.3   100  TYR100     -0.1241
    116  CA        -5.4610   -9.9220    6.6990 C.3   100  TYR100      0.1605
    117  C         -6.2250   -8.6460    7.0260 C.2   100  TYR100      0.2264
    118  O         -5.6360   -7.5980    7.2870 O.2   100  TYR100     -0.2867
    119  CB        -5.7360  -10.2930    5.2460 C.3   100  TYR100      0.0534
    120  CG        -4.6450  -11.0830    4.5710 C.ar  100  TYR100     -0.0201
    121  CD1       -3.3130  -10.9050    4.9210 C.ar  100  TYR100     -0.0009
    122  CD2       -4.9450  -11.9870    3.5680 C.ar  100  TYR100     -0.0009
    123  CE1       -2.3220  -11.6130    4.2960 C.ar  100  TYR100      0.0417
    124  CE2       -3.9510  -12.7040    2.9310 C.ar  100  TYR100      0.0417
    125  CZ        -2.6410  -12.5160    3.2960 C.ar  100  TYR100      0.1957
    126  OH        -1.6340  -13.2340    2.6630 O.3   100  TYR100     -0.2866
    127  N          2.8250  -10.2220   -4.4170 N.3   113  THR113     -0.1218
    128  CA         3.1260  -10.7850   -5.7110 C.3   113  THR113      0.1862
    129  C          1.8490  -10.7040   -6.5350 C.2   113  THR113      0.2287
    130  O          0.8270  -11.2850   -6.1660 O.2   113  THR113     -0.2866
    131  CB         3.5140  -12.2480   -5.5910 C.3   113  THR113      0.1770
    132  OG1        4.5890  -12.3740   -4.6650 O.3   113  THR113     -0.2211
    133  CG2        3.9460  -12.8100   -6.9530 C.3   113  THR113      0.0375
@<TRIPOS>BOND
     1   133   131    1
     2   129   130    2
     3   129   128    1
     4    31    30    2
     5    36    37    1
     6    30    29    1
     7   128   131    1
     8   128   127    1
     9    40    37    1
    10    40    41    1
    11   131   132    1
    12    37    38    1
    13    34    32    1
    14    29    32    1
    15    29    28    1
    16    32    33    1
    17    41    43   ar
    18    41    42   ar
    19    25    26    2
    20    25    24    1
    21    27    24    1
    22    38    44   am
    23    38    39    2
    24    44    45    1
    25    24    23    1
    26    57    58    1
    27    57    54    1
    28    58    60   ar
    29    58    59   ar
    30    49    48    1
    31    49    50    1
    32    33    35    1
    33    53    54    1
    34    60    62   ar
    35    59    61   ar
    36    48    45    1
    37    45    46    1
    38    54    55    1
    39    62    61   ar
    40    23    11   am
    41    17    15   ar
    42    17    18   ar
    43    46    47    2
    44    12    11    2
    45    52    50   am
    46    15    14   ar
    47    50    51    2
    48    11    10    1
    49    55    63   am
    50    55    56    2
    51    18    20   ar
    52    18    16   ar
    53    20    22   ar
    54    63    64    1
    55    14    16   ar
    56    14    13    1
    57    10    13    1
    58    10     9    1
    59    16    19   ar
    60    22    21   ar
    61    67    64    1
    62    67    68    1
    63    64    65    1
    64     9     3   am
    65    19    21   ar
    66     8     6    1
    67     6     5    1
    68    65    66    2
    69    68    69   ar
    70    68    70   ar
    71     3     4    2
    72     3     2    1
    73    69    71   ar
    74    70    72   ar
    75     2     5    1
    76     2     1    1
    77   126   125    1
    78     5     7    1
    79   124   125   ar
    80   124   122   ar
    81   125   123   ar
    82    71    73   ar
    83   122   120   ar
    84    72    73   ar
    85   123   121   ar
    86    84    83    2
    87   106   105    2
    88   120   121   ar
    89   120   119    1
    90    85    86    1
    91    85    82    1
    92    94    92    1
    93   119   116    1
    94    83    82    1
    95    83    87   am
    96   105   104    1
    97   105   111   am
    98   112   111    1
    99   112   113    1
   100    82    81    1
   101    88    87    1
   102    88    89    1
   103    88    91    1
   104   104   107    1
   105   104   103    1
   106   107   109    1
   107   107   108    1
   108    89    90    2
   109    92    91    1
   110    92    93    1
   111   101   100    1
   112   102   100    1
   113    80    78    1
   114   116   117    1
   115   116   115    1
   116    79    78    1
   117   108   110    1
   118   117   118    2
   119   113   114    2
   120    77    76    2
   121   100    99    1
   122    78    75    1
   123    75    76    1
   124    75    74    1
   125    99    96    1
   126    96    97    1
   127    96    95    1
   128    97    98    2
