@<TRIPOS>MOLECULE
tmp/4knfC00.pdb
 187 184 0 0 0
SMALL
GASTEIGER

@<TRIPOS>ATOM
      1  N        -66.5240   29.8120   -0.9930 N.3    48  ILE48      -0.1245
      2  CA       -67.1950   30.7720   -1.8900 C.3    48  ILE48       0.1561
      3  C        -66.2270   31.7740   -2.5190 C.2    48  ILE48       0.2260
      4  O        -66.2030   31.9480   -3.7550 O.2    48  ILE48      -0.2867
      5  CB       -68.3210   31.5530   -1.1410 C.3    48  ILE48       0.0252
      6  CG1      -69.6000   30.7030   -1.0390 C.3    48  ILE48       0.0019
      7  CG2      -68.6350   32.9050   -1.8050 C.3    48  ILE48       0.0019
      8  CD1      -70.4930   31.0350    0.1510 C.3    48  ILE48       0.0001
      9  N        -71.5610   32.8950  -14.9810 N.3    75  TYR75      -0.1241
     10  CA       -72.6920   32.1150  -14.5140 C.3    75  TYR75       0.1605
     11  C        -72.2690   30.8010  -13.9260 C.2    75  TYR75       0.2264
     12  O        -72.9730   30.2710  -13.0500 O.2    75  TYR75      -0.2867
     13  CB       -73.7600   31.9270  -15.6060 C.3    75  TYR75       0.0534
     14  CG       -74.6840   33.1180  -15.6900 C.ar   75  TYR75      -0.0201
     15  CD1      -74.2820   34.2840  -16.3490 C.ar   75  TYR75      -0.0009
     16  CD2      -75.9410   33.0960  -15.0800 C.ar   75  TYR75      -0.0009
     17  CE1      -75.1020   35.3970  -16.4060 C.ar   75  TYR75       0.0417
     18  CE2      -76.7780   34.2060  -15.1300 C.ar   75  TYR75       0.0417
     19  CZ       -76.3470   35.3540  -15.7970 C.ar   75  TYR75       0.1957
     20  OH       -77.1470   36.4640  -15.8740 O.3    75  TYR75      -0.2866
     21  N        -71.4150   31.6840  -10.3850 N.3    78  TRP78      -0.1241
     22  CA       -72.6690   31.8470   -9.6210 C.3    78  TRP78       0.1605
     23  C        -73.3690   30.5310   -9.3350 C.2    78  TRP78       0.2264
     24  O        -73.7930   30.2760   -8.2000 O.2    78  TRP78      -0.2867
     25  CB       -73.6330   32.8030  -10.3030 C.3    78  TRP78       0.0550
     26  CG       -73.1340   34.1990  -10.3410 C.ar   78  TRP78       0.0003
     27  CD1      -72.1180   34.7270   -9.6020 C.ar   78  TRP78       0.0946
     28  CD2      -73.6320   35.2590  -11.1580 C.ar   78  TRP78       0.0152
     29  NE1      -71.9430   36.0540   -9.9120 N.ar   78  TRP78      -0.2442
     30  CE2      -72.8590   36.4080  -10.8660 C.ar   78  TRP78       0.0810
     31  CE3      -74.6410   35.3460  -12.1250 C.ar   78  TRP78       0.0012
     32  CZ2      -73.0740   37.6290  -11.4900 C.ar   78  TRP78       0.0191
     33  CZ3      -74.8620   36.5630  -12.7360 C.ar   78  TRP78       0.0001
     34  CH2      -74.0790   37.6920  -12.4150 C.ar   78  TRP78       0.0015
     35  N        -71.3200   28.9760   -6.5310 N.3    81  THR81      -0.1203
     36  CA       -71.2720   29.6980   -5.2530 C.3    81  THR81       0.1994
     37  C        -72.6310   30.0840   -4.6440 C.2    81  THR81       0.2617
     38  O        -72.7710   30.1290   -3.4110 O.2    81  THR81      -0.2717
     39  CB       -70.3970   30.9530   -5.3510 C.3    81  THR81       0.1784
     40  OG1      -70.7950   31.6930   -6.5050 O.3    81  THR81      -0.2211
     41  CG2      -68.9200   30.5620   -5.4780 C.3    81  THR81       0.0376
     42  N        -73.6230   30.3610   -5.4900 N.am   82  VAL82      -0.1979
     43  CA       -74.9540   30.7120   -4.9880 C.3    82  VAL82       0.1595
     44  C        -75.5280   29.6440   -4.0380 C.2    82  VAL82       0.2287
     45  O        -76.0100   30.0040   -2.9660 O.2    82  VAL82      -0.2864
     46  CB       -75.9370   31.0580   -6.1290 C.3    82  VAL82       0.0276
     47  CG1      -77.3610   31.1300   -5.6120 C.3    82  VAL82       0.0022
     48  CG2      -75.5450   32.3790   -6.7830 C.3    82  VAL82       0.0022
     49  N        -73.8820   29.9760   -0.6250 N.3    85  LEU85      -0.1245
     50  CA       -74.4870   31.0870    0.1240 C.3    85  LEU85       0.1561
     51  C        -75.8430   30.6070    0.6830 C.2    85  LEU85       0.2260
     52  O        -76.1460   30.8050    1.8650 O.2    85  LEU85      -0.2867
     53  CB       -74.6140   32.3760   -0.7190 C.3    85  LEU85       0.0270
     54  CG       -74.2850   33.7050    0.0070 C.3    85  LEU85       0.0019
     55  CD1      -72.7880   33.8350    0.2670 C.3    85  LEU85       0.0001
     56  CD2      -74.7350   34.9640   -0.7220 C.3    85  LEU85       0.0001
     57  N        -83.8430   31.8420  -10.8950 N.3   114  MET114     -0.1230
     58  CA       -83.2050   33.1640  -11.0090 C.3   114  MET114      0.1702
     59  C        -82.0120   33.1620  -11.9820 C.2   114  MET114      0.2592
     60  O        -81.9440   33.9930  -12.9040 O.2   114  MET114     -0.2718
     61  CB       -82.7510   33.6370   -9.6420 C.3   114  MET114      0.0401
     62  CG       -82.0060   34.9470   -9.6440 C.3   114  MET114      0.0596
     63  SD       -81.5520   35.2870   -7.9180 S.3   114  MET114     -0.1393
     64  CE       -80.0200   34.3470   -7.8450 C.3   114  MET114      0.0692
     65  N        -81.0990   32.2030  -11.7740 N.am  115  LEU115     -0.1980
     66  CA       -79.8600   32.1180  -12.5250 C.3   115  LEU115      0.1596
     67  C        -80.0460   31.6290  -13.9670 C.2   115  LEU115      0.2287
     68  O        -79.3970   32.1320  -14.8890 O.2   115  LEU115     -0.2864
     69  CB       -78.8610   31.2340  -11.7860 C.3   115  LEU115      0.0297
     70  CG       -78.1030   31.8670  -10.6200 C.3   115  LEU115      0.0022
     71  CD1      -77.2200   30.8200   -9.9360 C.3   115  LEU115      0.0001
     72  CD2      -77.3080   33.0800  -11.1000 C.3   115  LEU115      0.0001
     73  N        -81.6590   34.5590  -15.8990 N.3   118  GLY118     -0.1225
     74  CA       -80.5600   35.4910  -16.1720 C.3   118  GLY118      0.1811
     75  C        -79.7040   35.0340  -17.3430 C.2   118  GLY118      0.2280
     76  O        -79.5840   35.7480  -18.3410 O.2   118  GLY118     -0.2866
     77  N        -85.1760   38.7420  -17.8080 N.3   132  PHE132     -0.1241
     78  CA       -85.0440   39.5730  -16.6180 C.3   132  PHE132      0.1605
     79  C        -86.2260   39.3980  -15.6560 C.2   132  PHE132      0.2264
     80  O        -86.0180   39.1920  -14.4500 O.2   132  PHE132     -0.2867
     81  CB       -84.8970   41.0400  -17.0230 C.3   132  PHE132      0.0534
     82  CG       -84.7150   41.9820  -15.8620 C.ar  132  PHE132     -0.0203
     83  CD1      -83.5040   42.0490  -15.1800 C.ar  132  PHE132     -0.0042
     84  CD2      -85.7470   42.8230  -15.4690 C.ar  132  PHE132     -0.0042
     85  CE1      -83.3350   42.9280  -14.1200 C.ar  132  PHE132     -0.0003
     86  CE2      -85.5880   43.7040  -14.4120 C.ar  132  PHE132     -0.0003
     87  CZ       -84.3810   43.7570  -13.7320 C.ar  132  PHE132     -0.0000
     88  N        -86.1880   35.9990  -13.9800 N.3   135  GLY135     -0.1210
     89  CA       -85.0650   36.0670  -13.0330 C.3   135  GLY135      0.1956
     90  C        -85.4460   36.7500  -11.7200 C.2   135  GLY135      0.2611
     91  O        -85.2650   36.1950  -10.6110 O.2   135  GLY135     -0.2717
     92  N        -85.9970   37.9560  -11.8680 N.am  136  MET136     -0.1979
     93  CA       -86.5800   38.7120  -10.7760 C.3   136  MET136      0.1605
     94  C        -87.6050   37.9010   -9.9810 C.2   136  MET136      0.2287
     95  O        -87.6040   37.9280   -8.7410 O.2   136  MET136     -0.2864
     96  CB       -87.2110   39.9740  -11.3290 C.3   136  MET136      0.0413
     97  CG       -86.1940   41.0470  -11.6660 C.3   136  MET136      0.0598
     98  SD       -85.5650   41.6920  -10.1130 S.3   136  MET136     -0.1393
     99  CE       -85.4040   43.4450  -10.4500 C.3   136  MET136      0.0692
    100  N        -85.5550   35.4760   -7.7880 N.3   139  TRP139     -0.1241
    101  CA       -85.0150   36.2060   -6.6430 C.3   139  TRP139      0.1605
    102  C        -86.0740   36.5970   -5.6140 C.2   139  TRP139      0.2264
    103  O        -85.8850   36.3570   -4.4180 O.2   139  TRP139     -0.2867
    104  CB       -84.2400   37.4470   -7.0910 C.3   139  TRP139      0.0550
    105  CG       -83.7480   38.3070   -5.9440 C.ar  139  TRP139      0.0003
    106  CD1      -83.2060   37.8810   -4.7630 C.ar  139  TRP139      0.0946
    107  CD2      -83.7390   39.7360   -5.8930 C.ar  139  TRP139      0.0152
    108  NE1      -82.8570   38.9580   -3.9770 N.ar  139  TRP139     -0.2442
    109  CE2      -83.1780   40.1090   -4.6450 C.ar  139  TRP139      0.0810
    110  CE3      -84.1560   40.7420   -6.7760 C.ar  139  TRP139      0.0012
    111  CZ2      -83.0290   41.4500   -4.2570 C.ar  139  TRP139      0.0191
    112  CZ3      -84.0000   42.0800   -6.3900 C.ar  139  TRP139      0.0001
    113  CH2      -83.4420   42.4180   -5.1380 C.ar  139  TRP139      0.0015
    114  N        -77.9580   41.5400   -2.8480 N.3   177  TRP177     -0.1241
    115  CA       -78.1780   40.9000   -4.1320 C.3   177  TRP177      0.1605
    116  C        -78.7870   41.8020   -5.2090 C.2   177  TRP177      0.2264
    117  O        -78.6590   41.5090   -6.3960 O.2   177  TRP177     -0.2867
    118  CB       -79.0650   39.6680   -3.9400 C.3   177  TRP177      0.0550
    119  CG       -78.3450   38.4820   -3.3470 C.ar  177  TRP177      0.0003
    120  CD1      -77.1940   38.5010   -2.6040 C.ar  177  TRP177      0.0946
    121  CD2      -78.7450   37.1080   -3.4240 C.ar  177  TRP177      0.0152
    122  NE1      -76.8550   37.2270   -2.2230 N.ar  177  TRP177     -0.2442
    123  CE2      -77.7910   36.3530   -2.7120 C.ar  177  TRP177      0.0810
    124  CE3      -79.8240   36.4440   -4.0120 C.ar  177  TRP177      0.0012
    125  CZ2      -77.8830   34.9630   -2.5750 C.ar  177  TRP177      0.0191
    126  CZ3      -79.9030   35.0630   -3.8930 C.ar  177  TRP177      0.0001
    127  CH2      -78.9380   34.3380   -3.1750 C.ar  177  TRP177      0.0015
    128  N        -76.9860   42.8270   -8.6250 N.3   180  TYR180     -0.1228
    129  CA       -76.8450   42.0340   -9.8460 C.3   180  TYR180      0.1721
    130  C        -77.8570   42.4430  -10.8980 C.2   180  TYR180      0.2437
    131  O        -77.4410   42.8980  -11.9560 O.2   180  TYR180     -0.2733
    132  CB       -76.8560   40.5170   -9.5880 C.3   180  TYR180      0.0547
    133  CG       -75.7120   40.0620   -8.7110 C.ar  180  TYR180     -0.0200
    134  CD1      -74.4650   39.7170   -9.2640 C.ar  180  TYR180     -0.0009
    135  CD2      -75.8650   40.0040   -7.3110 C.ar  180  TYR180     -0.0009
    136  CE1      -73.4070   39.3100   -8.4440 C.ar  180  TYR180      0.0417
    137  CE2      -74.8160   39.6170   -6.4880 C.ar  180  TYR180      0.0417
    138  CZ       -73.5950   39.2670   -7.0490 C.ar  180  TYR180      0.1957
    139  OH       -72.5810   38.8870   -6.2110 O.3   180  TYR180     -0.2866
    140  N        -79.1820   42.3330  -10.5950 N.am  181  PRO181     -0.2729
    141  CA       -80.2370   42.7950  -11.5300 C.3   181  PRO181      0.1401
    142  C        -80.0750   44.2750  -11.9530 C.2   181  PRO181      0.2269
    143  O        -80.3330   44.6050  -13.1160 O.2   181  PRO181     -0.2865
    144  CB       -81.5430   42.5680  -10.7490 C.3   181  PRO181      0.0296
    145  CG       -81.1350   42.5040   -9.3190 C.3   181  PRO181      0.0237
    146  CD       -79.7560   41.9140   -9.2990 C.3   181  PRO181      0.0939
    147  N        -77.5590   43.8090  -14.6540 N.3   184  TYR184     -0.1241
    148  CA       -78.2300   43.2540  -15.8260 C.3   184  TYR184      0.1605
    149  C        -79.0200   44.3150  -16.6140 C.2   184  TYR184      0.2264
    150  O        -78.9480   44.3590  -17.8460 O.2   184  TYR184     -0.2867
    151  CB       -79.1500   42.1170  -15.3960 C.3   184  TYR184      0.0534
    152  CG       -79.8470   41.4110  -16.5360 C.ar  184  TYR184     -0.0201
    153  CD1      -80.8840   42.0320  -17.2430 C.ar  184  TYR184     -0.0009
    154  CD2      -79.4910   40.1100  -16.8900 C.ar  184  TYR184     -0.0009
    155  CE1      -81.5280   41.3830  -18.2850 C.ar  184  TYR184      0.0417
    156  CE2      -80.1300   39.4520  -17.9260 C.ar  184  TYR184      0.0417
    157  CZ       -81.1520   40.0910  -18.6090 C.ar  184  TYR184      0.1957
    158  OH       -81.7810   39.4430  -19.6260 O.3   184  TYR184     -0.2866
    159  N        -71.4510   43.8750  -11.9010 N.3   203  TYR203     -0.1241
    160  CA       -71.2750   42.4720  -11.4530 C.3   203  TYR203      0.1605
    161  C        -70.0980   42.3220  -10.4910 C.2   203  TYR203      0.2264
    162  O        -70.2520   41.7270   -9.4180 O.2   203  TYR203     -0.2867
    163  CB       -71.0980   41.5030  -12.6190 C.3   203  TYR203      0.0534
    164  CG       -72.3840   41.1700  -13.3440 C.ar  203  TYR203     -0.0201
    165  CD1      -73.6450   41.4760  -12.7870 C.ar  203  TYR203     -0.0009
    166  CD2      -72.3490   40.5390  -14.5860 C.ar  203  TYR203     -0.0009
    167  CE1      -74.8190   41.1640  -13.4560 C.ar  203  TYR203      0.0417
    168  CE2      -73.5160   40.2270  -15.2690 C.ar  203  TYR203      0.0417
    169  CZ       -74.7470   40.5420  -14.7110 C.ar  203  TYR203      0.1957
    170  OH       -75.8960   40.2140  -15.4100 O.3   203  TYR203     -0.2866
    171  N        -71.1540   40.9870   -2.0560 N.3   210  ASN210     -0.1225
    172  CA       -71.8870   39.7880   -1.6380 C.3   210  ASN210      0.1785
    173  C        -71.0680   38.5730   -1.1850 C.2   210  ASN210      0.2597
    174  O        -71.5120   37.8040   -0.3380 O.2   210  ASN210     -0.2718
    175  CB       -72.9830   39.4320   -2.6510 C.3   210  ASN210      0.1169
    176  CG       -74.0890   40.4750   -2.6640 C.2   210  ASN210      0.2627
    177  OD1      -74.3780   41.0870   -3.6930 O.2   210  ASN210     -0.2716
    178  ND2      -74.6630   40.7300   -1.4950 N.am  210  ASN210     -0.0877
    179  N        -69.8700   38.4170   -1.7370 N.am  211  LYS211     -0.1980
    180  CA       -68.9780   37.3400   -1.3380 C.3   211  LYS211      0.1596
    181  C        -68.0180   37.7950   -0.2410 C.2   211  LYS211      0.2287
    182  O        -67.9370   37.1400    0.8010 O.2   211  LYS211     -0.2864
    183  CB       -68.2470   36.7570   -2.5570 C.3   211  LYS211      0.0298
    184  CG       -69.2070   36.3590   -3.6670 C.3   211  LYS211      0.0038
    185  CD       -68.6420   35.3420   -4.6490 C.3   211  LYS211      0.0206
    186  CE       -69.3990   35.4240   -5.9740 C.3   211  LYS211      0.1093
    187  NZ       -70.5700   34.5440   -5.8990 N.3   211  LYS211     -0.1314
@<TRIPOS>BOND
     1   158   157    1
     2   157   155   ar
     3   157   156   ar
     4    76    75    2
     5   155   153   ar
     6   156   154   ar
     7   150   149    2
     8    77    78    1
     9    75    74    1
    10   153   152   ar
    11    81    78    1
    12    81    82    1
    13   154   152   ar
    14    78    79    1
    15   149   148    1
    16   152   151    1
    17    17    15   ar
    18    17    19   ar
    19    15    14   ar
    20    74    73    1
    21    20    19    1
    22    82    84   ar
    23    82    83   ar
    24   148   151    1
    25   148   147    1
    26    19    18   ar
    27    14    13    1
    28    14    16   ar
    29    79    80    2
    30    13    10    1
    31    84    86   ar
    32   170   169    1
    33   168   169   ar
    34   168   166   ar
    35    83    85   ar
    36    18    16   ar
    37     9    10    1
    38    68    67    2
    39   169   167   ar
    40   166   164   ar
    41    10    11    1
    42    86    87   ar
    43    85    87   ar
    44    88    89    1
    45    67    66    1
    46    11    12    2
    47   167   165   ar
    48   164   165   ar
    49   164   163    1
    50   143   142    2
    51    89    90    1
    52    60    59    2
    53    33    34   ar
    54    33    31   ar
    55   163   160    1
    56    66    69    1
    57    66    65    1
    58    34    32   ar
    59    31    28   ar
    60    59    65   am
    61    59    58    1
    62   131   130    2
    63   142   141    1
    64   159   160    1
    65    92    90   am
    66    92    93    1
    67    69    70    1
    68    90    91    2
    69    97    96    1
    70    97    98    1
    71   141   144    1
    72   141   140    1
    73    32    30   ar
    74   160   161    1
    75    96    93    1
    76    28    30   ar
    77    28    26   ar
    78    72    70    1
    79    58    57    1
    80    58    61    1
    81   130   140   am
    82   130   129    1
    83    30    29   ar
    84    93    94    1
    85   144   145    1
    86    70    71    1
    87   140   146    1
    88   161   162    2
    89    99    98    1
    90    21    22    1
    91    26    25    1
    92    26    27   ar
    93    25    22    1
    94    94    95    2
    95    29    27   ar
    96   129   132    1
    97   129   128    1
    98    62    61    1
    99    62    63    1
   100    22    23    1
   101   132   133    1
   102    23    24    2
   103   145   146    1
   104   134   133   ar
   105   134   136   ar
   106   133   135   ar
   107   136   138   ar
   108    63    64    1
   109   100   101    1
   110   135   137   ar
   111   104   101    1
   112   104   105    1
   113   138   137   ar
   114   138   139    1
   115    48    46    1
   116   110   112   ar
   117   110   107   ar
   118   101   102    1
   119    35    36    1
   120    40    39    1
   121   117   116    2
   122   112   113   ar
   123    46    47    1
   124    46    43    1
   125   186   187    1
   126   186   185    1
   127   105   107   ar
   128   105   106   ar
   129   107   109   ar
   130   102   103    2
   131    42    43    1
   132    42    37   am
   133    41    39    1
   134    39    36    1
   135    36    37    1
   136   116   115    1
   137   113   111   ar
   138    43    44    1
   139   106   108   ar
   140   185   184    1
   141   109   111   ar
   142   109   108   ar
   143    37    38    2
   144   115   118    1
   145   115   114    1
   146    44    45    2
   147   124   126   ar
   148   124   121   ar
   149   118   119    1
   150   126   127   ar
   151     4     3    2
   152   177   176    2
   153   184   183    1
   154   121   119   ar
   155   121   123   ar
   156   119   120   ar
   157   127   125   ar
   158   123   125   ar
   159   123   122   ar
   160   176   175    1
   161   176   178   am
   162   175   172    1
   163   120   122   ar
   164   183   180    1
   165     3     2    1
   166   171   172    1
   167     2     5    1
   168     2     1    1
   169     7     5    1
   170   179   180    1
   171   179   173   am
   172   172   173    1
   173   180   181    1
   174   173   174    2
   175     5     6    1
   176     6     8    1
   177    56    54    1
   178    53    54    1
   179    53    50    1
   180    49    50    1
   181   181   182    2
   182    54    55    1
   183    50    51    1
   184    51    52    2
