@<TRIPOS>MOLECULE
tmp/4kniA01.pdb
 166 162 0 0 0
SMALL
GASTEIGER

@<TRIPOS>ATOM
      1  N          8.5140   -0.5310   10.3160 N.3     2  TRP2       -0.1241
      2  CA         7.7700   -1.4240   11.2650 C.3     2  TRP2        0.1605
      3  C          6.7900   -2.2380   10.4970 C.2     2  TRP2        0.2264
      4  O          6.2270   -1.7830    9.4780 O.2     2  TRP2       -0.2867
      5  CB         7.0710   -0.6910   12.4530 C.3     2  TRP2        0.0550
      6  CG         5.8030    0.1040   12.0630 C.ar    2  TRP2        0.0003
      7  CD1        5.7240    1.4530   11.7250 C.ar    2  TRP2        0.0946
      8  CD2        4.4630   -0.3980   12.0080 C.ar    2  TRP2        0.0152
      9  NE1        4.4150    1.7870   11.4540 N.ar    2  TRP2       -0.2442
     10  CE2        3.6220    0.6800   11.6310 C.ar    2  TRP2        0.0810
     11  CE3        3.8800   -1.6660   12.2680 C.ar    2  TRP2        0.0012
     12  CZ2        2.2340    0.5370   11.4650 C.ar    2  TRP2        0.0191
     13  CZ3        2.4660   -1.7960   12.1070 C.ar    2  TRP2        0.0001
     14  CH2        1.6750   -0.6920   11.7350 C.ar    2  TRP2        0.0015
     15  N         -3.0000    0.2110    3.5550 N.3    59  ASN59      -0.1240
     16  CA        -1.8510    1.0430    4.0130 C.3    59  ASN59       0.1653
     17  C         -0.6120    0.2070    4.2420 C.2    59  ASN59       0.2266
     18  O          0.3500    0.6500    4.8960 O.2    59  ASN59      -0.2867
     19  CB        -2.2210    1.8930    5.2750 C.3    59  ASN59       0.1155
     20  CG        -2.5090    1.0130    6.5000 C.2    59  ASN59       0.2627
     21  OD1       -2.3990   -0.2130    6.4150 O.2    59  ASN59      -0.2716
     22  ND2       -2.8540    1.6360    7.6470 N.am   59  ASN59      -0.0877
     23  N        -13.6710    8.1710   12.6960 N.3    88  ILE88      -0.1231
     24  CA       -12.7890    8.5430   11.6190 C.3    88  ILE88       0.1692
     25  C        -12.5480    7.3620   10.6640 C.2    88  ILE88       0.2591
     26  O        -12.5260    7.5580    9.4390 O.2    88  ILE88      -0.2718
     27  CB       -11.3990    9.1450   12.1010 C.3    88  ILE88       0.0266
     28  CG1      -10.4910    9.4530   10.8610 C.3    88  ILE88       0.0019
     29  CG2      -10.6380    8.2240   13.1100 C.3    88  ILE88       0.0020
     30  CD1       -9.3870   10.4390   11.2330 C.3    88  ILE88       0.0001
     31  N        -12.3340    6.1290   11.1940 N.am   89  GLN89      -0.1979
     32  CA       -12.1310    5.0120   10.2840 C.3    89  GLN89       0.1601
     33  C        -12.3530    3.7190   11.0630 C.2    89  GLN89       0.2287
     34  O        -12.4230    3.7820   12.2680 O.2    89  GLN89      -0.2864
     35  CB       -10.7140    5.0260    9.6710 C.3    89  GLN89       0.0394
     36  CG        -9.6290    5.0040   10.7920 C.3    89  GLN89       0.0908
     37  CD        -8.8830    3.6560   10.8120 C.2    89  GLN89       0.2608
     38  OE1       -9.3830    2.6590   11.2470 O.2    89  GLN89      -0.2717
     39  NE2       -7.7120    3.6470   10.2400 N.am   89  GLN89      -0.0878
     40  N        -10.8540   -0.6420   10.8100 N.3    91  HIS91      -0.1241
     41  CA        -9.9310   -1.5400   10.2040 C.3    91  HIS91       0.1621
     42  C        -10.0420   -2.8040   11.0550 C.2    91  HIS91       0.2264
     43  O        -10.7120   -2.8120   12.0990 O.2    91  HIS91      -0.2867
     44  CB        -8.4850   -0.9940   10.2080 C.3    91  HIS91       0.0745
     45  CG        -7.9430   -0.7320   11.6110 C.ar   91  HIS91       0.0817
     46  ND1       -8.1110    0.4870   12.2670 N.ar   91  HIS91      -0.2268
     47  CD2       -7.3750   -1.5730   12.5080 C.ar   91  HIS91       0.1154
     48  CE1       -7.6250    0.3820   13.4930 C.ar   91  HIS91       0.1986
     49  NE2       -7.1950   -0.8690   13.6790 N.ar   91  HIS91      -0.2212
     50  N         -7.8060   -6.6120   12.3310 N.3    93  HIS93      -0.1241
     51  CA        -6.5620   -7.3370   12.5300 C.3    93  HIS93       0.1621
     52  C         -6.9960   -8.7810   12.3960 C.2    93  HIS93       0.2264
     53  O         -8.0600   -9.1040   12.9130 O.2    93  HIS93      -0.2867
     54  CB        -6.0570   -7.1340   13.9710 C.3    93  HIS93       0.0745
     55  CG        -5.7250   -5.6860   14.2630 C.ar   93  HIS93       0.0817
     56  ND1       -4.4820   -5.1770   14.0200 N.ar   93  HIS93      -0.2268
     57  CD2       -6.5070   -4.6350   14.5830 C.ar   93  HIS93       0.1154
     58  CE1       -4.4590   -3.8860   14.3120 C.ar   93  HIS93       0.1986
     59  NE2       -5.6880   -3.5150   14.6210 N.ar   93  HIS93      -0.2212
     60  N        -11.7880   -2.6810   14.7810 N.3   116  HIS116     -0.1241
     61  CA       -11.5050   -1.4610   15.5540 C.3   116  HIS116      0.1621
     62  C        -12.2060   -0.3200   14.8480 C.2   116  HIS116      0.2264
     63  O        -11.8460   -0.0310   13.6780 O.2   116  HIS116     -0.2867
     64  CB        -9.9820   -1.2470   15.6340 C.3   116  HIS116      0.0745
     65  CG        -9.3150   -2.2270   16.5660 C.ar  116  HIS116      0.0817
     66  ND1       -7.9760   -2.5300   16.5220 N.ar  116  HIS116     -0.2268
     67  CD2       -9.8350   -3.0040   17.5560 C.ar  116  HIS116      0.1154
     68  CE1       -7.6770   -3.4040   17.4800 C.ar  116  HIS116      0.1986
     69  NE2       -8.7990   -3.7620   18.0710 N.ar  116  HIS116     -0.2212
     70  N        -12.4870    3.4260   15.0870 N.3   118  VAL118     -0.1245
     71  CA       -11.5950    4.4160   15.7320 C.3   118  VAL118      0.1561
     72  C        -12.3640    5.7500   15.8230 C.2   118  VAL118      0.2260
     73  O        -12.7530    6.2830   14.7980 O.2   118  VAL118     -0.2867
     74  CB       -10.2530    4.5690   14.9680 C.3   118  VAL118      0.0252
     75  CG1       -9.3610    5.6760   15.5910 C.3   118  VAL118      0.0019
     76  CG2       -9.4580    3.2370   14.8810 C.3   118  VAL118      0.0019
     77  N         -8.0560   14.6130   14.5890 N.3   127  PHE127     -0.1241
     78  CA        -7.4850   13.3250   15.0150 C.3   127  PHE127      0.1605
     79  C         -6.0000   13.5240   15.4380 C.2   127  PHE127      0.2264
     80  O         -5.5640   12.9500   16.4210 O.2   127  PHE127     -0.2867
     81  CB        -7.6370   12.2590   13.9210 C.3   127  PHE127      0.0534
     82  CG        -6.9040   10.9820   14.2190 C.ar  127  PHE127     -0.0203
     83  CD1       -7.5420    9.9750   14.9640 C.ar  127  PHE127     -0.0042
     84  CD2       -5.5590   10.7510   13.7540 C.ar  127  PHE127     -0.0042
     85  CE1       -6.9230    8.7820   15.2170 C.ar  127  PHE127     -0.0003
     86  CE2       -4.9260    9.5330   14.0050 C.ar  127  PHE127     -0.0003
     87  CZ        -5.6020    8.5400   14.7570 C.ar  127  PHE127     -0.0000
     88  N         -4.6510   12.4850   19.3950 N.3   131  VAL131     -0.1245
     89  CA        -3.7830   11.3470   19.7120 C.3   131  VAL131      0.1561
     90  C         -2.6820   11.7870   20.7020 C.2   131  VAL131      0.2260
     91  O         -1.9940   10.9790   21.3050 O.2   131  VAL131     -0.2867
     92  CB        -3.1400   10.6290   18.4400 C.3   131  VAL131      0.0252
     93  CG1       -4.1720    9.8160   17.6690 C.3   131  VAL131      0.0019
     94  CG2       -2.3170   11.5410   17.6100 C.3   131  VAL131      0.0019
     95  N         -8.7540    9.4190   22.1730 N.3   137  LEU137     -0.1245
     96  CA        -9.4510    8.4390   21.3160 C.3   137  LEU137      0.1561
     97  C        -10.3670    7.5360   22.0750 C.2   137  LEU137      0.2260
     98  O        -10.1260    7.2570   23.2640 O.2   137  LEU137     -0.2867
     99  CB        -8.4180    7.5460   20.5630 C.3   137  LEU137      0.0270
    100  CG        -7.4500    8.2230   19.5670 C.3   137  LEU137      0.0019
    101  CD1       -6.8430    7.1200   18.7380 C.3   137  LEU137      0.0001
    102  CD2       -8.1430    9.2610   18.5690 C.3   137  LEU137      0.0001
    103  N        -11.8400    3.6570   21.1240 N.3   139  VAL139     -0.1245
    104  CA       -11.8140    2.6560   20.0510 C.3   139  VAL139      0.1561
    105  C        -12.7540    1.5780   20.5040 C.2   139  VAL139      0.2260
    106  O        -12.6680    1.0280   21.6480 O.2   139  VAL139     -0.2867
    107  CB       -10.4180    1.9880   19.6670 C.3   139  VAL139      0.0252
    108  CG1      -10.6180    1.0000   18.4220 C.3   139  VAL139      0.0019
    109  CG2       -9.3490    3.1190   19.3690 C.3   139  VAL139      0.0019
    110  N         -2.8340    3.0480   21.1650 N.3   194  LEU194     -0.1231
    111  CA        -2.9210    2.4670   19.8170 C.3   194  LEU194      0.1693
    112  C         -2.1890    1.1530   19.8640 C.2   194  LEU194      0.2593
    113  O         -1.2020    1.0210   20.6010 O.2   194  LEU194     -0.2718
    114  CB        -2.1850    3.3620   18.8360 C.3   194  LEU194      0.0284
    115  CG        -2.3740    4.8500   18.7530 C.3   194  LEU194      0.0019
    116  CD1       -1.7840    5.2310   17.4060 C.3   194  LEU194      0.0001
    117  CD2       -3.7220    5.3690   18.8530 C.3   194  LEU194      0.0001
    118  N         -2.6610    0.1690   19.0810 N.am  195  THR195     -0.1939
    119  CA        -1.9590   -1.1030   19.0200 C.3   195  THR195      0.2028
    120  C         -0.9570   -1.2370   17.8910 C.2   195  THR195      0.2643
    121  O         -0.3450   -2.3610   17.7290 O.2   195  THR195     -0.2714
    122  CB        -2.9620   -2.2960   18.8840 C.3   195  THR195      0.1808
    123  OG1       -3.5570   -2.2660   17.5820 O.3   195  THR195     -0.2208
    124  CG2       -3.9780   -2.2880   20.0580 C.3   195  THR195      0.0379
    125  N         -0.8180   -0.1720   17.1030 N.am  196  THR196     -0.1937
    126  CA         0.3170   -0.0920   16.1660 C.3   196  THR196      0.2013
    127  C          1.1460    1.1410   16.4900 C.2   196  THR196      0.2484
    128  O          0.6290    2.1110   17.0930 O.2   196  THR196     -0.2729
    129  CB        -0.1180    0.0820   14.7020 C.3   196  THR196      0.1807
    130  OG1       -0.7090    1.3720   14.4640 O.3   196  THR196     -0.2208
    131  CG2       -1.0230   -1.0160   14.2300 C.3   196  THR196      0.0379
    132  N          2.3820    1.1550   15.9820 N.am  197  PRO197     -0.2715
    133  CA         3.1130    2.4090   16.0770 C.3   197  PRO197      0.1521
    134  C          2.2310    3.5670   15.5350 C.2   197  PRO197      0.2440
    135  O          1.5070    3.4430   14.5080 O.2   197  PRO197     -0.2731
    136  CB         4.3500    2.1270   15.1790 C.3   197  PRO197      0.0310
    137  CG         4.6120    0.6790   15.3800 C.3   197  PRO197      0.0237
    138  CD         3.1810    0.0840   15.3040 C.3   197  PRO197      0.0939
    139  N          2.3040    4.7600   16.1410 N.am  198  PRO198     -0.2727
    140  CA         3.2430    5.1570   17.2190 C.3   198  PRO198      0.1402
    141  C          2.8880    4.7450   18.6480 C.2   198  PRO198      0.2269
    142  O          3.5480    5.1880   19.5730 O.2   198  PRO198     -0.2865
    143  CB         3.3090    6.6820   17.0750 C.3   198  PRO198      0.0296
    144  CG         1.9260    7.0550   16.5020 C.3   198  PRO198      0.0237
    145  CD         1.5080    5.9000   15.6230 C.3   198  PRO198      0.0939
    146  N         -5.8760    6.1610   24.2580 N.3   203  VAL203     -0.1245
    147  CA        -7.1340    5.3850   23.9440 C.3   203  VAL203      0.1561
    148  C         -7.9210    4.8870   25.1680 C.2   203  VAL203      0.2260
    149  O         -7.4120    4.2510   26.0860 O.2   203  VAL203     -0.2867
    150  CB        -6.8590    4.1400   23.0370 C.3   203  VAL203      0.0252
    151  CG1       -8.1640    3.3640   22.8460 C.3   203  VAL203      0.0019
    152  CG2       -6.2290    4.5340   21.6180 C.3   203  VAL203      0.0019
    153  N        -10.2970    2.1620   25.5680 N.3   205  TRP205     -0.1241
    154  CA       -10.7070    0.9370   24.8750 C.3   205  TRP205      0.1605
    155  C        -12.1090    0.4860   25.3600 C.2   205  TRP205      0.2264
    156  O        -12.3990    0.4560   26.5740 O.2   205  TRP205     -0.2867
    157  CB        -9.6710   -0.2230   25.0910 C.3   205  TRP205      0.0550
    158  CG        -8.6110   -0.0880   24.1110 C.ar  205  TRP205      0.0003
    159  CD1       -7.3530    0.5130   24.2920 C.ar  205  TRP205      0.0946
    160  CD2       -8.6900   -0.4520   22.7240 C.ar  205  TRP205      0.0152
    161  NE1       -6.6680    0.4970   23.1200 N.ar  205  TRP205     -0.2442
    162  CE2       -7.4400   -0.1010   22.1360 C.ar  205  TRP205      0.0810
    163  CE3       -9.6890   -1.0560   21.9270 C.ar  205  TRP205      0.0012
    164  CZ2       -7.1530   -0.3150   20.7860 C.ar  205  TRP205      0.0191
    165  CZ3       -9.3910   -1.3270   20.5990 C.ar  205  TRP205      0.0001
    166  CH2       -8.1310   -0.9170   20.0230 C.ar  205  TRP205      0.0015
@<TRIPOS>BOND
     1    15    16    1
     2    16    17    1
     3    16    19    1
     4    17    18    2
     5    19    20    1
     6    21    20    2
     7    20    22   am
     8    26    25    2
     9     4     3    2
    10    35    32    1
    11    35    36    1
    12    41    44    1
    13    41    40    1
    14    41    42    1
    15    44    45    1
    16    39    37   am
    17    32    33    1
    18    32    31    1
    19     1     2    1
    20     3     2    1
    21    25    31   am
    22    25    24    1
    23    36    37    1
    24    37    38    2
    25    28    30    1
    26    28    27    1
    27    42    43    2
    28    33    34    2
    29     2     5    1
    30     9    10   ar
    31     9     7   ar
    32    12    10   ar
    33    12    14   ar
    34    45    46   ar
    35    45    47   ar
    36    24    27    1
    37    24    23    1
    38    10     8   ar
    39     7     6   ar
    40    14    13   ar
    41     8     6   ar
    42     8    11   ar
    43     6     5    1
    44    27    29    1
    45    13    11   ar
    46    46    48   ar
    47    50    51    1
    48    52    51    1
    49    52    53    2
    50    47    49   ar
    51    51    54    1
    52    48    49   ar
    53    63    62    2
    54    84    86   ar
    55    84    82   ar
    56    81    82    1
    57    81    78    1
    58    54    55    1
    59    86    87   ar
    60    56    55   ar
    61    56    58   ar
    62    82    83   ar
    63   131   129    1
    64    55    57   ar
    65    58    59   ar
    66   130   129    1
    67   135   134    2
    68    57    59   ar
    69    77    78    1
    70   129   126    1
    71    87    85   ar
    72    60    61    1
    73    73    72    2
    74    62    61    1
    75    76    74    1
    76    83    85   ar
    77    74    75    1
    78    74    71    1
    79    78    79    1
    80    70    71    1
    81   136   137    1
    82   136   133    1
    83   138   137    1
    84   138   132    1
    85    79    80    2
    86   134   133    1
    87   134   139   am
    88    61    64    1
    89   145   139    1
    90   145   144    1
    91    64    65    1
    92    71    72    1
    93   132   133    1
    94   132   127   am
    95   139   140    1
    96   126   127    1
    97   126   125    1
    98   127   128    2
    99   144   143    1
   100    66    65   ar
   101    66    68   ar
   102    65    67   ar
   103   143   140    1
   104   125   120   am
   105   140   141    1
   106   116   115    1
   107    68    69   ar
   108    67    69   ar
   109   123   122    1
   110    94    92    1
   111    93    92    1
   112   121   120    2
   113   120   119    1
   114   108   107    1
   115    92    89    1
   116   102   100    1
   117   141   142    2
   118   101   100    1
   119   115   114    1
   120   115   117    1
   121   114   111    1
   122   122   119    1
   123   122   124    1
   124   119   118    1
   125   118   112   am
   126   109   107    1
   127    88    89    1
   128   100    99    1
   129   107   104    1
   130    89    90    1
   131   111   112    1
   132   111   110    1
   133   112   113    2
   134   166   165   ar
   135   166   164   ar
   136   104   105    1
   137   104   103    1
   138   105   106    2
   139    99    96    1
   140   165   163   ar
   141    90    91    2
   142   164   162   ar
   143    96    97    1
   144    96    95    1
   145   152   150    1
   146   163   160   ar
   147    97    98    2
   148   162   160   ar
   149   162   161   ar
   150   160   158   ar
   151   151   150    1
   152   150   147    1
   153   161   159   ar
   154   147   146    1
   155   147   148    1
   156   158   159   ar
   157   158   157    1
   158   154   157    1
   159   154   155    1
   160   154   153    1
   161   148   149    2
   162   155   156    2
