@<TRIPOS>MOLECULE
tmp/4knlC00.pdb
 217 212 0 0 0
SMALL
GASTEIGER

@<TRIPOS>ATOM
      1  N         10.8260   -6.2550   62.0650 N.3    38  TYR38      -0.1241
      2  CA        10.0790   -6.5130   60.8380 C.3    38  TYR38       0.1605
      3  C          8.7060   -5.8500   60.8910 C.2    38  TYR38       0.2264
      4  O          8.0330   -5.9150   61.8860 O.2    38  TYR38      -0.2867
      5  CB         9.9350   -8.0300   60.6330 C.3    38  TYR38       0.0534
      6  CG        11.2590   -8.6990   60.2680 C.ar   38  TYR38      -0.0201
      7  CD1       11.9720   -8.2730   59.1560 C.ar   38  TYR38      -0.0009
      8  CD2       11.7500   -9.7760   60.9970 C.ar   38  TYR38      -0.0009
      9  CE1       13.1990   -8.8800   58.7910 C.ar   38  TYR38       0.0417
     10  CE2       12.9530  -10.3950   60.6510 C.ar   38  TYR38       0.0417
     11  CZ        13.6670   -9.9290   59.5530 C.ar   38  TYR38       0.1957
     12  OH        14.8510  -10.5070   59.1630 O.3    38  TYR38      -0.2866
     13  N         -1.3370  -15.1090   75.2130 N.3    53  HIS53      -0.1226
     14  CA        -0.5390  -16.3340   75.3640 C.3    53  HIS53       0.1752
     15  C         -0.3870  -16.6090   76.8460 C.2    53  HIS53       0.2596
     16  O         -0.4810  -15.6900   77.6560 O.2    53  HIS53      -0.2718
     17  CB         0.8970  -16.1540   74.8230 C.3    53  HIS53       0.0759
     18  CG         0.9950  -15.8210   73.3660 C.ar   53  HIS53       0.0818
     19  ND1        1.1820  -16.7790   72.3960 N.ar   53  HIS53      -0.2268
     20  CD2        0.9850  -14.6290   72.7200 C.ar   53  HIS53       0.1154
     21  CE1        1.2800  -16.1960   71.2140 C.ar   53  HIS53       0.1986
     22  NE2        1.1510  -14.8920   71.3810 N.ar   53  HIS53      -0.2212
     23  N         -0.1110  -17.8570   77.2120 N.am   54  ASP54      -0.1960
     24  CA         0.4980  -18.1100   78.5210 C.3    54  ASP54       0.1840
     25  C          1.7140  -18.9950   78.3590 C.2    54  ASP54       0.2623
     26  O          1.8710  -19.6850   77.3410 O.2    54  ASP54      -0.2715
     27  CB        -0.4770  -18.6570   79.5550 C.3    54  ASP54       0.1450
     28  CG        -0.7780  -20.1380   79.3640 C.2    54  ASP54       0.3671
     29  OD1       -0.0080  -20.9700   79.8860 O.co2  54  ASP54      -0.2456
     30  OD2       -1.8150  -20.4480   78.7390 O.co2  54  ASP54      -0.2456
     31  N          2.6060  -18.9210   79.3430 N.am   55  THR55      -0.1937
     32  CA         3.9230  -19.5330   79.1740 C.3    55  THR55       0.2028
     33  C          3.9120  -21.0550   79.2180 C.2    55  THR55       0.2642
     34  O          4.9330  -21.6680   78.9300 O.2    55  THR55      -0.2714
     35  CB         4.8730  -19.0720   80.2650 C.3    55  THR55       0.1808
     36  OG1        4.3260  -19.4570   81.5270 O.3    55  THR55      -0.2208
     37  CG2        5.1070  -17.5590   80.2110 C.3    55  THR55       0.0379
     38  N          2.7900  -21.6500   79.6330 N.am   56  ALA56      -0.1963
     39  CA         2.6630  -23.1020   79.8150 C.3    56  ALA56       0.1728
     40  C          3.7350  -23.6670   80.7440 C.2    56  ALA56       0.2616
     41  O          4.1650  -24.8070   80.5780 O.2    56  ALA56      -0.2715
     42  CB         2.6920  -23.8300   78.4670 C.3    56  ALA56       0.0334
     43  N          4.1270  -22.8770   81.7360 N.am   57  ASN57      -0.1972
     44  CA         5.2500  -23.2230   82.6010 C.3    57  ASN57       0.1688
     45  C          4.9130  -22.8620   84.0400 C.2    57  ASN57       0.2292
     46  O          4.8350  -21.6780   84.3840 O.2    57  ASN57      -0.2864
     47  CB         6.4440  -22.4100   82.1480 C.3    57  ASN57       0.1181
     48  CG         7.7260  -22.8730   82.7450 C.2    57  ASN57       0.2629
     49  OD1        7.7650  -23.4310   83.8480 O.2    57  ASN57      -0.2716
     50  ND2        8.8140  -22.6410   82.0130 N.am   57  ASN57      -0.0877
     51  N         11.7950  -16.3630   82.1620 N.3    65  GLU65      -0.1245
     52  CA        11.1820  -16.3940   80.8380 C.3    65  GLU65       0.1567
     53  C         11.8940  -15.4190   79.9180 C.2    65  GLU65       0.2260
     54  O         12.1620  -15.7260   78.7560 O.2    65  GLU65      -0.2867
     55  CB         9.6940  -15.9900   80.9290 C.3    65  GLU65       0.0388
     56  CG         8.8280  -17.0870   81.5880 C.3    65  GLU65       0.1160
     57  CD         8.5900  -18.2920   80.6760 C.2    65  GLU65       0.3649
     58  OE1        8.7030  -18.1250   79.4420 O.co2  65  GLU65      -0.2457
     59  OE2        8.2340  -19.3770   81.1900 O.co2  65  GLU65      -0.2457
     60  N         15.4340  -16.7320   79.0380 N.3    68  TYR68      -0.1227
     61  CA        15.3670  -17.8120   78.0520 C.3    68  TYR68       0.1736
     62  C         15.0430  -17.2640   76.6450 C.2    68  TYR68       0.2595
     63  O         15.6380  -17.6970   75.6480 O.2    68  TYR68      -0.2718
     64  CB        14.3030  -18.8350   78.4650 C.3    68  TYR68       0.0548
     65  CG        14.1250  -19.9710   77.5060 C.ar   68  TYR68      -0.0200
     66  CD1       14.8910  -21.1310   77.6440 C.ar   68  TYR68      -0.0009
     67  CD2       13.1680  -19.9200   76.4870 C.ar   68  TYR68      -0.0009
     68  CE1       14.7090  -22.2120   76.7700 C.ar   68  TYR68       0.0417
     69  CE2       12.9890  -21.0130   75.6070 C.ar   68  TYR68       0.0417
     70  CZ        13.7740  -22.1230   75.7590 C.ar   68  TYR68       0.1957
     71  OH        13.6400  -23.1800   74.8980 O.3    68  TYR68      -0.2866
     72  N         14.1140  -16.3180   76.5740 N.am   69  MET69      -0.1979
     73  CA        13.7410  -15.7480   75.3050 C.3    69  MET69       0.1605
     74  C         14.9240  -15.0020   74.6540 C.2    69  MET69       0.2287
     75  O         15.1570  -15.0950   73.4500 O.2    69  MET69      -0.2864
     76  CB        12.5640  -14.7840   75.5180 C.3    69  MET69       0.0413
     77  CG        12.0820  -14.1690   74.2280 C.3    69  MET69       0.0598
     78  SD        10.7460  -13.0050   74.5820 S.3    69  MET69      -0.1393
     79  CE        11.7140  -11.6760   75.1730 C.3    69  MET69       0.0692
     80  N         15.6320  -16.6060   68.1190 N.3    74  GLN74      -0.1231
     81  CA        15.4510  -17.0280   66.7200 C.3    74  GLN74       0.1698
     82  C         14.3440  -18.0830   66.6280 C.2    74  GLN74       0.2592
     83  O         13.8240  -18.3550   65.5360 O.2    74  GLN74      -0.2718
     84  CB        16.7300  -17.5310   66.0680 C.3    74  GLN74       0.0381
     85  CG        17.7670  -16.4320   65.8160 C.3    74  GLN74       0.0905
     86  CD        18.9290  -16.9280   64.9800 C.2    74  GLN74       0.2608
     87  OE1       19.0620  -18.1250   64.7220 O.2    74  GLN74      -0.2717
     88  NE2       19.7690  -16.0190   64.5410 N.am   74  GLN74      -0.0878
     89  N         14.0090  -18.7040   67.7540 N.am   75  ASN75      -0.1960
     90  CA        12.8820  -19.6190   67.7420 C.3    75  ASN75       0.1819
     91  C         11.5920  -18.9200   68.1160 C.2    75  ASN75       0.2621
     92  O         10.5480  -19.1910   67.5200 O.2    75  ASN75      -0.2715
     93  CB        13.0600  -20.7710   68.6880 C.3    75  ASN75       0.1195
     94  CG        11.9530  -21.7520   68.5420 C.2    75  ASN75       0.2630
     95  OD1       11.8170  -22.3560   67.4810 O.2    75  ASN75      -0.2716
     96  ND2       11.1150  -21.8800   69.5640 N.am   75  ASN75      -0.0877
     97  N         11.6520  -18.0290   69.0920 N.am   76  ALA76      -0.1977
     98  CA        10.4840  -17.2200   69.4750 C.3    76  ALA76       0.1597
     99  C         10.8940  -16.0180   70.2860 C.2    76  ALA76       0.2287
    100  O         11.7920  -16.0710   71.1260 O.2    76  ALA76      -0.2864
    101  CB         9.4830  -18.0240   70.2990 C.3    76  ALA76       0.0319
    102  N          8.4850  -12.4710   72.0770 N.3    78  VAL78      -0.1245
    103  CA         7.2190  -11.7370   72.1730 C.3    78  VAL78       0.1561
    104  C          7.4190  -10.2950   72.5810 C.2    78  VAL78       0.2260
    105  O          8.5390   -9.8480   72.8750 O.2    78  VAL78      -0.2867
    106  CB         6.2490  -12.3950   73.1800 C.3    78  VAL78       0.0252
    107  CG1        5.9520  -13.8490   72.7810 C.3    78  VAL78       0.0019
    108  CG2        6.8350  -12.3650   74.5770 C.3    78  VAL78       0.0019
    109  N          5.6860   -9.4930   78.6860 N.3    81  PHE81      -0.1241
    110  CA         5.2720  -10.4880   79.6720 C.3    81  PHE81       0.1605
    111  C          4.5630   -9.7550   80.8220 C.2    81  PHE81       0.2264
    112  O          4.9890   -8.6380   81.1940 O.2    81  PHE81      -0.2867
    113  CB         6.4990  -11.1970   80.2680 C.3    81  PHE81       0.0534
    114  CG         7.2240  -12.1270   79.3140 C.ar   81  PHE81      -0.0203
    115  CD1        8.1750  -11.6240   78.4280 C.ar   81  PHE81      -0.0042
    116  CD2        6.9770  -13.5020   79.3170 C.ar   81  PHE81      -0.0042
    117  CE1        8.8730  -12.4800   77.5370 C.ar   81  PHE81      -0.0003
    118  CE2        7.6520  -14.3670   78.4390 C.ar   81  PHE81      -0.0003
    119  CZ         8.6210  -13.8500   77.5450 C.ar   81  PHE81      -0.0000
    120  N          8.1630  -12.6730   67.0500 N.3    98  TRP98      -0.1227
    121  CA         8.0750  -14.0530   66.5980 C.3    98  TRP98       0.1737
    122  C          7.3620  -14.8970   67.6440 C.2    98  TRP98       0.2596
    123  O          7.9740  -15.7200   68.3230 O.2    98  TRP98      -0.2718
    124  CB         9.4980  -14.5940   66.3250 C.3    98  TRP98       0.0564
    125  CG        10.0060  -14.1770   64.9830 C.ar   98  TRP98       0.0003
    126  CD1        9.2570  -13.7830   63.9150 C.ar   98  TRP98       0.0946
    127  CD2       11.3660  -14.1510   64.5580 C.ar   98  TRP98       0.0152
    128  NE1       10.0690  -13.5110   62.8370 N.ar   98  TRP98      -0.2442
    129  CE2       11.3760  -13.7320   63.2050 C.ar   98  TRP98       0.0810
    130  CE3       12.5880  -14.4300   65.1880 C.ar   98  TRP98       0.0012
    131  CZ2       12.5630  -13.5520   62.4830 C.ar   98  TRP98       0.0191
    132  CZ3       13.7750  -14.2850   64.4570 C.ar   98  TRP98       0.0001
    133  CH2       13.7510  -13.8660   63.1180 C.ar   98  TRP98       0.0015
    134  N          6.0460  -14.7250   67.7550 N.am   99  GLY99      -0.1942
    135  CA         5.3270  -15.2460   68.9170 C.3    99  GLY99       0.2014
    136  C          4.2400  -16.2710   68.6340 C.2    99  GLY99       0.2639
    137  O          3.9250  -17.0900   69.5080 O.2    99  GLY99      -0.2714
    138  N          3.7020  -16.2910   67.4140 N.am  100  VAL100     -0.1963
    139  CA         2.4520  -17.0420   67.1780 C.3   100  VAL100      0.1727
    140  C          2.4250  -17.6580   65.7680 C.2   100  VAL100      0.2617
    141  O          1.3700  -18.0700   65.2370 O.2   100  VAL100     -0.2715
    142  CB         1.2100  -16.1100   67.4720 C.3   100  VAL100      0.0290
    143  CG1        0.9430  -15.1750   66.2900 C.3   100  VAL100      0.0023
    144  CG2       -0.0750  -16.9390   67.7700 C.3   100  VAL100      0.0023
    145  N          3.5980  -17.7340   65.1470 N.am  101  GLY101     -0.1940
    146  CA         3.7560  -18.3720   63.8500 C.3   101  GLY101      0.2014
    147  C          3.6340  -17.4230   62.6670 C.2   101  GLY101      0.2638
    148  O          3.3060  -16.2370   62.8150 O.2   101  GLY101     -0.2714
    149  N          3.8860  -17.9610   61.4790 N.am  102  ALA102     -0.1977
    150  CA         4.0850  -17.1400   60.2880 C.3   102  ALA102      0.1597
    151  C          2.8520  -16.3640   59.7960 C.2   102  ALA102      0.2287
    152  O          2.9840  -15.4000   59.0150 O.2   102  ALA102     -0.2864
    153  CB         4.5970  -18.0290   59.1710 C.3   102  ALA102      0.0319
    154  N          2.0200  -13.6810   63.1290 N.3   105  ASN105     -0.1240
    155  CA         3.0820  -12.7040   63.4680 C.3   105  ASN105      0.1653
    156  C          3.0410  -11.3690   62.6900 C.2   105  ASN105      0.2266
    157  O          3.2520  -10.2890   63.2850 O.2   105  ASN105     -0.2867
    158  CB         4.4680  -13.3340   63.3410 C.3   105  ASN105      0.1155
    159  CG         4.7490  -14.3160   64.4350 C.2   105  ASN105      0.2627
    160  OD1        4.1360  -14.2650   65.4940 O.2   105  ASN105     -0.2716
    161  ND2        5.6890  -15.1800   64.2050 N.am  105  ASN105     -0.0877
    162  N          2.6110  -12.4400   76.7250 N.3   112  GLU112     -0.1245
    163  CA         2.6340  -13.6860   77.5140 C.3   112  GLU112      0.1567
    164  C          2.2390  -13.4800   78.9610 C.2   112  GLU112      0.2260
    165  O          2.7490  -12.5620   79.6260 O.2   112  GLU112     -0.2867
    166  CB         4.0460  -14.3070   77.5090 C.3   112  GLU112      0.0388
    167  CG         4.4050  -14.8870   76.1700 C.3   112  GLU112      0.1160
    168  CD         3.9720  -16.3570   76.0820 C.2   112  GLU112      0.3649
    169  OE1        3.4330  -16.8790   77.0820 O.co2 112  GLU112     -0.2457
    170  OE2        4.1710  -16.9760   75.0180 O.co2 112  GLU112     -0.2457
    171  N         -4.0380  -17.5140   71.4860 N.3   158  HIS158     -0.1241
    172  CA        -3.1700  -18.3500   70.6740 C.3   158  HIS158      0.1621
    173  C         -4.0040  -19.4850   70.0670 C.2   158  HIS158      0.2264
    174  O         -3.8540  -19.8360   68.8810 O.2   158  HIS158     -0.2867
    175  CB        -2.0230  -18.9190   71.5260 C.3   158  HIS158      0.0745
    176  CG        -0.8830  -19.4410   70.7190 C.ar  158  HIS158      0.0817
    177  ND1        0.4300  -19.3140   71.1190 N.ar  158  HIS158     -0.2268
    178  CD2       -0.8500  -20.0820   69.5280 C.ar  158  HIS158      0.1154
    179  CE1        1.2220  -19.8530   70.2120 C.ar  158  HIS158      0.1986
    180  NE2        0.4710  -20.3240   69.2350 N.ar  158  HIS158     -0.2212
    181  N         -0.4980  -21.9360   61.0990 N.3   167  GLY167     -0.1210
    182  CA         0.8990  -21.5820   61.3180 C.3   167  GLY167      0.1956
    183  C          1.4050  -21.8850   62.7210 C.2   167  GLY167      0.2613
    184  O          2.5710  -21.6480   63.0280 O.2   167  GLY167     -0.2717
    185  N          0.5220  -22.4050   63.5670 N.am  168  THR168     -0.1938
    186  CA         0.8310  -22.7600   64.9460 C.3   168  THR168      0.2028
    187  C         -0.2600  -23.7430   65.3970 C.2   168  THR168      0.2642
    188  O         -1.3190  -23.8090   64.7630 O.2   168  THR168     -0.2714
    189  CB         0.8890  -21.5120   65.8860 C.3   168  THR168      0.1808
    190  OG1        1.2680  -21.9090   67.2090 O.3   168  THR168     -0.2208
    191  CG2       -0.4700  -20.7750   65.9290 C.3   168  THR168      0.0379
    192  N          0.0100  -24.5150   66.4510 N.am  169  ASP169     -0.1957
    193  CA        -0.9520  -25.4850   66.9520 C.3   169  ASP169      0.1840
    194  C         -1.1510  -25.3930   68.4650 C.2   169  ASP169      0.2622
    195  O         -1.7550  -26.2770   69.0540 O.2   169  ASP169     -0.2715
    196  CB        -0.5980  -26.9250   66.5150 C.3   169  ASP169      0.1450
    197  CG         0.6380  -27.4730   67.1890 C.2   169  ASP169      0.3671
    198  OD1        1.2200  -26.7870   68.0400 O.co2 169  ASP169     -0.2456
    199  OD2        1.0280  -28.6220   66.8820 O.co2 169  ASP169     -0.2456
    200  N         -0.6850  -24.3170   69.0950 N.am  170  HIS170     -0.1973
    201  CA        -0.8820  -24.2000   70.5460 C.3   170  HIS170      0.1656
    202  C         -2.3120  -23.8060   70.9470 C.2   170  HIS170      0.2291
    203  O         -3.0470  -23.1900   70.1700 O.2   170  HIS170     -0.2864
    204  CB         0.1310  -23.2320   71.1620 C.3   170  HIS170      0.0771
    205  CG         1.5600  -23.6410   70.9440 C.ar  170  HIS170      0.0820
    206  ND1        2.6190  -22.9810   71.5270 N.ar  170  HIS170     -0.2267
    207  CD2        2.1000  -24.6390   70.2030 C.ar  170  HIS170      0.1154
    208  CE1        3.7510  -23.5540   71.1550 C.ar  170  HIS170      0.1986
    209  NE2        3.4640  -24.5650   70.3520 N.ar  170  HIS170     -0.2212
    210  N         -3.1600  -22.3130   74.1460 N.3   172  ASP172     -0.1239
    211  CA        -3.2560  -21.3910   75.2620 C.3   172  ASP172      0.1674
    212  C         -4.1860  -20.2080   74.9310 C.2   172  ASP172      0.2266
    213  O         -4.4220  -19.9060   73.7650 O.2   172  ASP172     -0.2867
    214  CB        -1.8490  -20.9330   75.7550 C.3   172  ASP172      0.1410
    215  CG        -0.8980  -20.5470   74.6360 C.2   172  ASP172      0.3668
    216  OD1       -0.7430  -21.2840   73.6550 O.co2 172  ASP172     -0.2456
    217  OD2       -0.2340  -19.5040   74.7660 O.co2 172  ASP172     -0.2456
@<TRIPOS>BOND
     1     9     7   ar
     2     9    11   ar
     3   152   151    2
     4     7     6   ar
     5    12    11    1
     6   153   150    1
     7    11    10   ar
     8   151   150    1
     9     6     5    1
    10     6     8   ar
    11   150   149    1
    12     5     2    1
    13    10     8   ar
    14     2     3    1
    15     2     1    1
    16     3     4    2
    17   181   182    1
    18   182   183    1
    19   149   147   am
    20   131   133   ar
    21   131   129   ar
    22   147   148    2
    23   147   146    1
    24   156   157    2
    25   156   155    1
    26   183   184    2
    27   183   185   am
    28   128   129   ar
    29   128   126   ar
    30   133   132   ar
    31   154   155    1
    32   129   127   ar
    33   158   155    1
    34   158   159    1
    35   185   186    1
    36   146   145    1
    37   126   125   ar
    38   161   159   am
    39   159   160    2
    40   132   130   ar
    41    88    86   am
    42   127   125   ar
    43   127   130   ar
    44    87    86    2
    45   188   187    2
    46   186   187    1
    47   186   189    1
    48    86    85    1
    49   125   124    1
    50   145   140   am
    51   141   140    2
    52   187   192   am
    53    83    82    2
    54   140   139    1
    55    85    84    1
    56   189   191    1
    57   189   190    1
    58    84    81    1
    59   143   142    1
    60   124   121    1
    61   192   193    1
    62   196   193    1
    63   196   197    1
    64   121   120    1
    65   121   122    1
    66    82    81    1
    67    82    89   am
    68    81    80    1
    69   199   197   ar
    70   193   194    1
    71   139   138    1
    72   139   142    1
    73   197   198   ar
    74   138   136   am
    75   142   144    1
    76    95    94    2
    77    92    91    2
    78   122   134   am
    79   122   123    2
    80    90    89    1
    81    90    91    1
    82    90    93    1
    83   134   135    1
    84    91    97   am
    85   194   195    2
    86   194   200   am
    87    94    93    1
    88    94    96   am
    89   136   135    1
    90   136   137    2
    91   174   173    2
    92    97    98    1
    93   200   201    1
    94   180   178   ar
    95   180   179   ar
    96    98    99    1
    97    98   101    1
    98   178   176   ar
    99   173   172    1
   100   203   202    2
   101   207   209   ar
   102   207   205   ar
   103   179   177   ar
   104    99   100    2
   105   209   208   ar
   106   201   202    1
   107   201   204    1
   108   172   171    1
   109   172   175    1
   110   176   177   ar
   111   176   175    1
   112   205   204    1
   113   205   206   ar
   114   208   206   ar
   115    21    22   ar
   116    21    19   ar
   117    22    20   ar
   118   102   103    1
   119   103   104    1
   120   103   106    1
   121    19    18   ar
   122   104   105    2
   123    20    18   ar
   124   107   106    1
   125   106   108    1
   126    18    17    1
   127    75    74    2
   128   216   215   ar
   129   213   212    2
   130   210   211    1
   131    77    78    1
   132    77    76    1
   133    78    79    1
   134   215   217   ar
   135   215   214    1
   136    74    73    1
   137    17    14    1
   138    71    70    1
   139   212   211    1
   140   170   168   ar
   141    13    14    1
   142   211   214    1
   143    73    76    1
   144    73    72    1
   145    14    15    1
   146    69    70   ar
   147    69    67   ar
   148    63    62    2
   149    70    68   ar
   150   168   167    1
   151   168   169   ar
   152   167   166    1
   153    67    65   ar
   154    72    62   am
   155    62    61    1
   156   162   163    1
   157    68    66   ar
   158    15    23   am
   159    15    16    2
   160    23    24    1
   161    26    25    2
   162    65    66   ar
   163    65    64    1
   164   166   163    1
   165   163   164    1
   166   117   119   ar
   167   117   115   ar
   168   119   118   ar
   169    61    64    1
   170    61    60    1
   171    25    24    1
   172    25    31   am
   173   115   114   ar
   174   118   116   ar
   175    42    39    1
   176    24    27    1
   177   109   110    1
   178    30    28   ar
   179    54    53    2
   180    34    33    2
   181   164   165    2
   182    32    33    1
   183    32    31    1
   184    32    35    1
   185    33    38   am
   186   114   116   ar
   187   114   113    1
   188    28    27    1
   189    28    29   ar
   190    58    57   ar
   191    38    39    1
   192   110   113    1
   193   110   111    1
   194    39    40    1
   195    53    52    1
   196    37    35    1
   197    35    36    1
   198    41    40    2
   199    57    59   ar
   200    57    56    1
   201    40    43   am
   202   111   112    2
   203    52    55    1
   204    52    51    1
   205    55    56    1
   206    43    44    1
   207    50    48   am
   208    47    44    1
   209    47    48    1
   210    44    45    1
   211    48    49    2
   212    45    46    2
