@<TRIPOS>MOLECULE
tmp/4knmB01.pdb
 178 173 0 0 0
SMALL
GASTEIGER

@<TRIPOS>ATOM
      1  N         14.3730   22.2940   41.5030 N.3    64  ASN64      -0.1240
      2  CA        15.4240   22.3950   40.5010 C.3    64  ASN64       0.1653
      3  C         15.7880   20.9170   40.2830 C.2    64  ASN64       0.2266
      4  O         16.1730   20.1760   41.2280 O.2    64  ASN64      -0.2867
      5  CB        16.7380   23.1530   40.9090 C.3    64  ASN64       0.1155
      6  CG        16.5570   24.6210   41.4410 C.2    64  ASN64       0.2627
      7  OD1       17.5610   25.2170   41.9060 O.2    64  ASN64      -0.2716
      8  ND2       15.3410   25.1890   41.4180 N.am   64  ASN64      -0.0877
      9  N         21.7000   22.7500   31.9520 N.3    88  ARG88      -0.1231
     10  CA        22.1110   22.8890   33.3070 C.3    88  ARG88       0.1694
     11  C         20.9930   22.4660   34.3200 C.2    88  ARG88       0.2591
     12  O         21.2320   21.7920   35.3270 O.2    88  ARG88      -0.2718
     13  CB        22.5380   24.3500   33.5460 C.3    88  ARG88       0.0321
     14  CG        22.7540   24.6780   35.0350 C.3    88  ARG88       0.0489
     15  CD        24.0180   24.0350   35.5500 C.3    88  ARG88       0.2205
     16  NE        24.3260   24.5510   36.8850 N.pl3  88  ARG88      -0.0865
     17  CZ        25.5270   24.6070   37.4680 C.cat  88  ARG88       0.5346
     18  NH1       26.6210   24.1590   36.8690 N.pl3  88  ARG88       0.1354
     19  NH2       25.6230   25.1090   38.7030 N.pl3  88  ARG88       0.1354
     20  N         19.7700   22.9450   34.0790 N.am   89  GLN89      -0.1979
     21  CA        18.7440   22.8380   35.1070 C.3    89  GLN89       0.1601
     22  C         17.3340   23.1410   34.5260 C.2    89  GLN89       0.2287
     23  O         17.2010   23.9020   33.5470 O.2    89  GLN89      -0.2864
     24  CB        19.1290   23.7870   36.2660 C.3    89  GLN89       0.0394
     25  CG        18.2360   23.8660   37.4310 C.3    89  GLN89       0.0908
     26  CD        17.5010   25.1770   37.4520 C.2    89  GLN89       0.2608
     27  OE1       16.9540   25.5810   36.4550 O.2    89  GLN89      -0.2717
     28  NE2       17.4680   25.8230   38.5850 N.am   89  GLN89      -0.0878
     29  N         13.3900   24.0910   36.2000 N.3    91  HIS91      -0.1241
     30  CA        12.5690   24.5470   37.3540 C.3    91  HIS91       0.1621
     31  C         11.2230   25.0260   36.7850 C.2    91  HIS91       0.2264
     32  O         11.0040   24.9800   35.5220 O.2    91  HIS91      -0.2867
     33  CB        13.2580   25.6150   38.2090 C.3    91  HIS91       0.0745
     34  CG        13.5070   26.8920   37.4700 C.ar   91  HIS91       0.0817
     35  ND1       14.6350   27.1020   36.7040 N.ar   91  HIS91      -0.2268
     36  CD2       12.7030   27.9550   37.2580 C.ar   91  HIS91       0.1154
     37  CE1       14.5470   28.2700   36.0920 C.ar   91  HIS91       0.1986
     38  NE2       13.4090   28.8380   36.4560 N.ar   91  HIS91      -0.2212
     39  N          7.6490   27.7440   37.4520 N.3    93  HIS93      -0.1241
     40  CA         6.9640   28.8220   38.1100 C.3    93  HIS93       0.1621
     41  C          5.4710   28.5790   37.9590 C.2    93  HIS93       0.2264
     42  O          5.0030   28.0710   36.9450 O.2    93  HIS93      -0.2867
     43  CB         7.2880   30.1250   37.3960 C.3    93  HIS93       0.0745
     44  CG         8.7450   30.4630   37.4180 C.ar   93  HIS93       0.0817
     45  ND1        9.2950   31.2290   38.4060 N.ar   93  HIS93      -0.2268
     46  CD2        9.7630   30.1240   36.5930 C.ar   93  HIS93       0.1154
     47  CE1       10.5810   31.4040   38.1790 C.ar   93  HIS93       0.1986
     48  NE2       10.9020   30.7130   37.1040 N.ar   93  HIS93      -0.2212
     49  N         11.0250   26.3060   32.8760 N.3   116  HIS116     -0.1241
     50  CA        12.2140   26.9420   32.3670 C.3   116  HIS116      0.1621
     51  C         13.3640   25.9620   32.3160 C.2   116  HIS116      0.2264
     52  O         13.6250   25.2560   33.2870 O.2   116  HIS116     -0.2867
     53  CB        12.6090   28.2030   33.1860 C.3   116  HIS116      0.0745
     54  CG        11.6880   29.3720   33.0260 C.ar  116  HIS116      0.0817
     55  ND1       11.5490   30.3400   34.0040 N.ar  116  HIS116     -0.2268
     56  CD2       10.8050   29.6840   32.0650 C.ar  116  HIS116      0.1154
     57  CE1       10.6750   31.2430   33.6010 C.ar  116  HIS116      0.1986
     58  NE2       10.1720   30.8380   32.4510 N.ar  116  HIS116     -0.2212
     59  N         17.1470   25.7610   31.6050 N.3   118  VAL118     -0.1245
     60  CA        18.2890   26.7010   31.6360 C.3   118  VAL118      0.1561
     61  C         19.5210   26.0320   31.0240 C.2   118  VAL118      0.2260
     62  O         19.8800   24.9560   31.4210 O.2   118  VAL118     -0.2867
     63  CB        18.6060   27.1930   33.0810 C.3   118  VAL118      0.0252
     64  CG1       19.8130   28.1500   33.1990 C.3   118  VAL118      0.0019
     65  CG2       17.3470   27.7940   33.7580 C.3   118  VAL118      0.0019
     66  N         29.2190   27.6250   34.0210 N.3   128  PHE128     -0.1227
     67  CA        27.8830   28.2420   34.1620 C.3   128  PHE128      0.1736
     68  C         28.0110   29.6030   34.8820 C.2   128  PHE128      0.2595
     69  O         27.4220   30.5750   34.4960 O.2   128  PHE128     -0.2718
     70  CB        26.8690   27.2830   34.8810 C.3   128  PHE128      0.0547
     71  CG        25.5450   27.9600   35.2070 C.ar  128  PHE128     -0.0202
     72  CD1       24.5750   28.1010   34.2440 C.ar  128  PHE128     -0.0042
     73  CD2       25.3150   28.5070   36.4620 C.ar  128  PHE128     -0.0042
     74  CE1       23.3960   28.7910   34.4770 C.ar  128  PHE128     -0.0003
     75  CE2       24.1000   29.2330   36.7300 C.ar  128  PHE128     -0.0003
     76  CZ        23.1370   29.3610   35.7160 C.ar  128  PHE128     -0.0000
     77  N         28.8470   29.6750   35.9140 N.am  129  VAL129     -0.1980
     78  CA        28.9200   30.8750   36.7250 C.3   129  VAL129      0.1595
     79  C         29.4900   32.0820   35.9040 C.2   129  VAL129      0.2287
     80  O         28.9800   33.2330   35.9740 O.2   129  VAL129     -0.2864
     81  CB        29.7100   30.6460   38.0230 C.3   129  VAL129      0.0276
     82  CG1       29.8780   32.0050   38.7600 C.3   129  VAL129      0.0022
     83  CG2       28.9550   29.6070   38.9620 C.3   129  VAL129      0.0022
     84  N         26.9110   33.2110   33.2860 N.3   132  ALA132     -0.1231
     85  CA        25.7250   33.9370   33.8120 C.3   132  ALA132      0.1694
     86  C         25.8960   35.4690   33.7980 C.2   132  ALA132      0.2592
     87  O         24.9440   36.2350   33.9160 O.2   132  ALA132     -0.2718
     88  CB        25.3110   33.3870   35.1950 C.3   132  ALA132      0.0304
     89  N         27.1540   35.8920   33.6500 N.am  133  HIS133     -0.1976
     90  CA        27.5320   37.2690   33.7200 C.3   133  HIS133      0.1656
     91  C         27.8630   37.8440   32.3590 C.2   133  HIS133      0.2291
     92  O         28.3990   38.8940   32.2780 O.2   133  HIS133     -0.2864
     93  CB        28.6940   37.3700   34.6970 C.3   133  HIS133      0.0771
     94  CG        28.2730   37.0910   36.1020 C.ar  133  HIS133      0.0820
     95  ND1       27.7950   38.0800   36.9310 N.ar  133  HIS133     -0.2267
     96  CD2       28.1300   35.9370   36.7750 C.ar  133  HIS133      0.1154
     97  CE1       27.4710   37.5550   38.0960 C.ar  133  HIS133      0.1986
     98  NE2       27.6700   36.2570   38.0260 N.ar  133  HIS133     -0.2212
     99  N         23.6250   32.7750   28.6160 N.3   138  LEU138     -0.1245
    100  CA        22.5990   31.7820   28.9920 C.3   138  LEU138      0.1561
    101  C         21.4960   31.7000   27.9030 C.2   138  LEU138      0.2260
    102  O         21.2510   32.6490   27.1900 O.2   138  LEU138     -0.2867
    103  CB        21.9820   32.1070   30.3720 C.3   138  LEU138      0.0270
    104  CG        22.9140   32.2540   31.5860 C.3   138  LEU138      0.0019
    105  CD1       22.1270   32.4340   32.9040 C.3   138  LEU138      0.0001
    106  CD2       23.8150   31.0380   31.7280 C.3   138  LEU138      0.0001
    107  N         17.4640   30.1360   27.9250 N.3   140  VAL140     -0.1245
    108  CA        16.4120   29.4660   28.6440 C.3   140  VAL140      0.1561
    109  C         15.2470   29.2460   27.6530 C.2   140  VAL140      0.2260
    110  O         14.7740   30.1790   27.0010 O.2   140  VAL140     -0.2867
    111  CB        15.9270   30.2820   29.8870 C.3   140  VAL140      0.0252
    112  CG1       14.7290   29.5050   30.5910 C.3   140  VAL140      0.0019
    113  CG2       17.1040   30.5080   30.8850 C.3   140  VAL140      0.0019
    114  N         17.6350   36.6740   33.9980 N.3   195  LEU195     -0.1231
    115  CA        17.0570   35.7500   35.0110 C.3   195  LEU195      0.1693
    116  C         15.8110   36.4130   35.5530 C.2   195  LEU195      0.2593
    117  O         15.7590   37.6530   35.7620 O.2   195  LEU195     -0.2718
    118  CB        17.9770   35.4440   36.2070 C.3   195  LEU195      0.0284
    119  CG        19.4050   34.9290   36.1410 C.3   195  LEU195      0.0019
    120  CD1       20.0360   34.3650   37.4820 C.3   195  LEU195      0.0001
    121  CD2       19.8530   34.2910   34.7890 C.3   195  LEU195      0.0001
    122  N         14.7960   35.6020   35.8640 N.am  196  THR196     -0.1939
    123  CA        13.6080   36.1880   36.4100 C.3   196  THR196      0.2028
    124  C         13.6300   36.2050   37.9190 C.2   196  THR196      0.2642
    125  O         12.6520   36.6330   38.6080 O.2   196  THR196     -0.2714
    126  CB        12.3170   35.5250   35.8670 C.3   196  THR196      0.1808
    127  OG1       12.2690   34.1910   36.3880 O.3   196  THR196     -0.2208
    128  CG2       12.3210   35.5200   34.3560 C.3   196  THR196      0.0379
    129  N         14.7430   35.7230   38.4550 N.am  197  VAL197     -0.1963
    130  CA        14.9900   35.7760   39.8870 C.3   197  VAL197      0.1712
    131  C         16.2840   36.5170   40.1370 C.2   197  VAL197      0.2458
    132  O         17.1520   36.5040   39.2570 O.2   197  VAL197     -0.2730
    133  CB        15.0590   34.3450   40.5590 C.3   197  VAL197      0.0289
    134  CG1       13.7010   33.6160   40.4190 C.3   197  VAL197      0.0023
    135  CG2       16.1700   33.4340   39.9200 C.3   197  VAL197      0.0023
    136  N         16.4340   37.1140   41.3380 N.am  198  PRO198     -0.2716
    137  CA        17.7570   37.6380   41.8160 C.3   198  PRO198      0.1521
    138  C         18.8320   36.5590   41.6490 C.2   198  PRO198      0.2440
    139  O         18.5440   35.4150   41.9570 O.2   198  PRO198     -0.2731
    140  CB        17.5270   37.8690   43.3060 C.3   198  PRO198      0.0310
    141  CG        16.0330   38.2280   43.3950 C.3   198  PRO198      0.0237
    142  CD        15.3550   37.3670   42.3330 C.3   198  PRO198      0.0939
    143  N         20.0190   36.9240   41.1200 N.am  199  PRO199     -0.2727
    144  CA        20.4040   38.3410   40.9550 C.3   199  PRO199      0.1402
    145  C         19.9400   39.0290   39.6560 C.2   199  PRO199      0.2269
    146  O         20.4520   40.0960   39.3350 O.2   199  PRO199     -0.2865
    147  CB        21.9400   38.2920   40.9480 C.3   199  PRO199      0.0296
    148  CG        22.3220   36.8670   40.5990 C.3   199  PRO199      0.0237
    149  CD        21.0710   36.0020   40.6210 C.3   199  PRO199      0.0939
    150  N         20.3150   38.7710   36.4070 N.3   201  LEU201     -0.1245
    151  CA        21.4620   39.0710   35.5630 C.3   201  LEU201      0.1561
    152  C         20.9540   39.1500   34.1160 C.2   201  LEU201      0.2260
    153  O         20.1740   38.2950   33.6720 O.2   201  LEU201     -0.2867
    154  CB        22.5270   37.9580   35.7160 C.3   201  LEU201      0.0270
    155  CG        23.2130   37.8740   37.1180 C.3   201  LEU201      0.0019
    156  CD1       24.1340   36.6030   37.2530 C.3   201  LEU201      0.0001
    157  CD2       23.9320   39.2290   37.4490 C.3   201  LEU201      0.0001
    158  N         20.4840   36.4470   29.4500 N.3   204  VAL204     -0.1245
    159  CA        19.6340   35.3460   28.9010 C.3   204  VAL204      0.1561
    160  C         19.0910   35.5810   27.4800 C.2   204  VAL204      0.2260
    161  O         18.4060   36.5500   27.2200 O.2   204  VAL204     -0.2867
    162  CB        18.3830   34.9990   29.8230 C.3   204  VAL204      0.0252
    163  CG1       17.5810   33.8300   29.1540 C.3   204  VAL204      0.0019
    164  CG2       18.7430   34.6440   31.2690 C.3   204  VAL204      0.0019
    165  N         16.1690   34.4360   25.6710 N.3   206  TRP206     -0.1241
    166  CA        14.8880   33.8080   25.9920 C.3   206  TRP206      0.1605
    167  C         14.3760   33.1630   24.7670 C.2   206  TRP206      0.2264
    168  O         14.3510   33.7510   23.6930 O.2   206  TRP206     -0.2867
    169  CB        13.8530   34.8070   26.5970 C.3   206  TRP206      0.0550
    170  CG        14.0650   34.9250   28.0410 C.ar  206  TRP206      0.0003
    171  CD1       14.8730   35.8920   28.7060 C.ar  206  TRP206      0.0946
    172  CD2       13.6360   34.0030   29.0570 C.ar  206  TRP206      0.0152
    173  NE1       14.9050   35.6000   30.0470 N.ar  206  TRP206     -0.2442
    174  CE2       14.1730   34.4640   30.2910 C.ar  206  TRP206      0.0810
    175  CE3       12.9250   32.7640   29.0380 C.ar  206  TRP206      0.0012
    176  CZ2       13.9800   33.7740   31.4920 C.ar  206  TRP206      0.0191
    177  CZ3       12.6600   32.1320   30.3000 C.ar  206  TRP206      0.0001
    178  CH2       13.2010   32.6320   31.4680 C.ar  206  TRP206      0.0015
@<TRIPOS>BOND
     1   168   167    2
     2   167   166    1
     3   165   166    1
     4   166   169    1
     5   169   170    1
     6   110   109    2
     7   102   101    2
     8   161   160    2
     9   160   159    1
    10   109   108    1
    11   101   100    1
    12   107   108    1
    13   170   171   ar
    14   170   172   ar
    15    99   100    1
    16   108   111    1
    17   171   173   ar
    18   159   158    1
    19   159   162    1
    20   100   103    1
    21   175   172   ar
    22   175   177   ar
    23   172   174   ar
    24   163   162    1
    25   162   164    1
    26   111   112    1
    27   111   113    1
    28   173   174   ar
    29   174   176   ar
    30   177   178   ar
    31   103   104    1
    32    61    62    2
    33    61    60    1
    34   178   176   ar
    35   104   106    1
    36   104   105    1
    37    59    60    1
    38    60    63    1
    39     9    10    1
    40    56    58   ar
    41    56    54   ar
    42    92    91    2
    43    51    50    1
    44    51    52    2
    45    91    90    1
    46    50    49    1
    47    50    53    1
    48    58    57   ar
    49    54    53    1
    50    54    55   ar
    51    63    64    1
    52    63    65    1
    53    84    85    1
    54    10    13    1
    55    10    11    1
    56    13    14    1
    57    23    22    2
    58    57    55   ar
    59    89    90    1
    60    89    86   am
    61   153   152    2
    62    90    93    1
    63    86    85    1
    64    86    87    2
    65    85    88    1
    66   114   115    1
    67    66    67    1
    68    20    11   am
    69    20    21    1
    70   152   151    1
    71    67    70    1
    72    67    68    1
    73    72    74   ar
    74    72    71   ar
    75    11    12    2
    76   128   126    1
    77    74    76   ar
    78    69    68    2
    79    22    21    1
    80    93    94    1
    81   121   119    1
    82    70    71    1
    83    68    77   am
    84   115   116    1
    85   115   118    1
    86    14    15    1
    87    21    24    1
    88    71    73   ar
    89    32    31    2
    90    15    16    1
    91   116   117    2
    92   116   122   am
    93   151   154    1
    94   151   150    1
    95   154   155    1
    96    76    75   ar
    97   122   123    1
    98   126   127    1
    99   126   123    1
   100    79    80    2
   101    79    78    1
   102    77    78    1
   103    37    38   ar
   104    37    35   ar
   105    94    96   ar
   106    94    95   ar
   107   119   118    1
   108   119   120    1
   109    29    30    1
   110    24    25    1
   111   123   124    1
   112    27    26    2
   113    38    36   ar
   114    73    75   ar
   115    46    48   ar
   116    46    44   ar
   117    35    34   ar
   118    78    81    1
   119    96    98   ar
   120    31    30    1
   121    18    17    1
   122    16    17    2
   123    95    97   ar
   124    42    41    2
   125    48    47   ar
   126   155   156    1
   127   155   157    1
   128    36    34   ar
   129    30    33    1
   130    43    44    1
   131    43    40    1
   132    44    45   ar
   133    25    26    1
   134    39    40    1
   135    26    28   am
   136    17    19    1
   137    34    33    1
   138   124   129   am
   139   124   125    2
   140    41    40    1
   141    81    82    1
   142    81    83    1
   143    98    97   ar
   144    47    45   ar
   145   129   130    1
   146   132   131    2
   147   146   145    2
   148   145   144    1
   149   130   131    1
   150   130   133    1
   151   135   133    1
   152   131   136   am
   153     3     2    1
   154     3     4    2
   155   134   133    1
   156     2     5    1
   157     2     1    1
   158   148   149    1
   159   148   147    1
   160   149   143    1
   161     5     6    1
   162   147   144    1
   163   144   143    1
   164   143   138   am
   165   136   137    1
   166   136   142    1
   167     8     6   am
   168     6     7    2
   169   138   137    1
   170   138   139    2
   171   137   140    1
   172   142   141    1
   173   140   141    1
