@<TRIPOS>MOLECULE
tmp/4knrA00.pdb
 203 189 0 0 0
SMALL
GASTEIGER

@<TRIPOS>ATOM
      1  N         46.9930   63.4940   21.7700 N.3     8  LEU8       -0.1231
      2  CA        45.5460   63.2900   21.7470 C.3     8  LEU8        0.1693
      3  C         45.1450   62.2450   22.8010 C.2     8  LEU8        0.2592
      4  O         45.5700   61.0770   22.7430 O.2     8  LEU8       -0.2718
      5  CB        45.0780   62.8760   20.3400 C.3     8  LEU8        0.0284
      6  CG        44.8590   64.0120   19.3230 C.3     8  LEU8        0.0019
      7  CD1       46.1590   64.6510   18.8980 C.3     8  LEU8        0.0001
      8  CD2       44.1480   63.4840   18.1110 C.3     8  LEU8        0.0001
      9  N         44.3230   62.6710   23.7610 N.am    9  ALA9       -0.1966
     10  CA        44.0430   61.8630   24.9490 C.3     9  ALA9        0.1728
     11  C         42.5930   61.9580   25.4400 C.2     9  ALA9        0.2616
     12  O         42.3140   61.6250   26.5900 O.2     9  ALA9       -0.2715
     13  CB        45.0120   62.2760   26.0760 C.3     9  ALA9        0.0334
     14  N         41.6780   62.3800   24.5650 N.am   10  ALA10      -0.1963
     15  CA        40.2990   62.7170   24.9650 C.3    10  ALA10       0.1728
     16  C         39.3010   61.5350   24.9570 C.2    10  ALA10       0.2616
     17  O         38.1890   61.6640   25.4820 O.2    10  ALA10      -0.2715
     18  CB        39.7620   63.8560   24.0850 C.3    10  ALA10       0.0334
     19  N         39.6910   60.4030   24.3810 N.am   11  GLY11      -0.1955
     20  CA        38.7540   59.2950   24.1360 C.3    11  GLY11       0.1869
     21  C         38.2320   58.5580   25.3650 C.2    11  GLY11       0.2309
     22  O         38.9380   58.4120   26.3720 O.2    11  GLY11      -0.2863
     23  N         40.3880   56.1550   28.6840 N.3    22  LYS22      -0.1231
     24  CA        41.1640   55.2020   27.8890 C.3    22  LYS22       0.1693
     25  C         42.6570   55.2000   28.1850 C.2    22  LYS22       0.2591
     26  O         43.2570   54.1400   28.3300 O.2    22  LYS22      -0.2718
     27  CB        40.9540   55.5000   26.4060 C.3    22  LYS22       0.0285
     28  CG        41.3930   54.4110   25.4550 C.3    22  LYS22       0.0035
     29  CD        41.1200   54.8460   24.0170 C.3    22  LYS22       0.0206
     30  CE        40.8550   53.6610   23.1360 C.3    22  LYS22       0.1093
     31  NZ        40.7260   54.0370   21.7060 N.3    22  LYS22      -0.1314
     32  N         43.2540   56.3860   28.2760 N.am   23  VAL23      -0.1980
     33  CA        44.7130   56.4930   28.3180 C.3    23  VAL23       0.1595
     34  C         45.3220   56.3200   29.7090 C.2    23  VAL23       0.2287
     35  O         46.5450   56.3110   29.8380 O.2    23  VAL23      -0.2864
     36  CB        45.1930   57.8270   27.6880 C.3    23  VAL23       0.0276
     37  CG1       44.6030   57.9880   26.2800 C.3    23  VAL23       0.0022
     38  CG2       44.8400   59.0250   28.5740 C.3    23  VAL23       0.0022
     39  N         45.4910   67.2000   24.8980 N.3    51  ILE51      -0.1245
     40  CA        44.0760   67.2810   24.5440 C.3    51  ILE51       0.1561
     41  C         43.3550   66.2170   25.3660 C.2    51  ILE51       0.2260
     42  O         43.5820   65.0260   25.1750 O.2    51  ILE51      -0.2867
     43  CB        43.8350   67.0240   23.0370 C.3    51  ILE51       0.0252
     44  CG1       44.7530   67.8900   22.1550 C.3    51  ILE51       0.0019
     45  CG2       42.3700   67.2510   22.6810 C.3    51  ILE51       0.0019
     46  CD1       44.8220   69.3480   22.5380 C.3    51  ILE51       0.0001
     47  N         38.9140   69.3760   25.3170 N.3    73  GLN73      -0.1245
     48  CA        38.0310   69.1770   24.1690 C.3    73  GLN73       0.1566
     49  C         36.6350   68.8630   24.7040 C.2    73  GLN73       0.2260
     50  O         36.4620   67.9200   25.4770 O.2    73  GLN73      -0.2867
     51  CB        38.5620   68.0340   23.2970 C.3    73  GLN73       0.0367
     52  CG        37.5950   67.4660   22.2650 C.3    73  GLN73       0.0905
     53  CD        38.2240   66.3490   21.4510 C.2    73  GLN73       0.2608
     54  OE1       39.2100   66.5620   20.7470 O.2    73  GLN73      -0.2717
     55  NE2       37.6560   65.1510   21.5430 N.am   73  GLN73      -0.0878
     56  N         33.6560   66.0160   20.0220 N.3    76  GLN76      -0.1245
     57  CA        34.4430   65.2720   19.0370 C.3    76  GLN76       0.1566
     58  C         34.1540   65.7560   17.6230 C.2    76  GLN76       0.2260
     59  O         33.1440   65.3700   17.0270 O.2    76  GLN76      -0.2867
     60  CB        34.1400   63.7650   19.1400 C.3    76  GLN76       0.0367
     61  CG        34.8610   62.8860   18.1020 C.3    76  GLN76       0.0905
     62  CD        36.3670   63.0740   18.1260 C.2    76  GLN76       0.2608
     63  OE1       36.9950   63.2940   17.0910 O.2    76  GLN76      -0.2717
     64  NE2       36.9500   62.9970   19.3130 N.am   76  GLN76      -0.0878
     65  N         40.3570   64.9160   14.4180 N.3    79  THR79      -0.1218
     66  CA        41.7270   65.1040   14.8640 C.3    79  THR79       0.1862
     67  C         42.2830   66.4830   14.5080 C.2    79  THR79       0.2287
     68  O         43.0620   67.0530   15.2800 O.2    79  THR79      -0.2866
     69  CB        42.6390   63.9770   14.3280 C.3    79  THR79       0.1770
     70  OG1       42.4080   63.7880   12.9220 O.3    79  THR79      -0.2211
     71  CG2       42.3390   62.6770   15.0500 C.3    79  THR79       0.0375
     72  N         49.5980   60.1430   20.0030 N.3   100  TYR100     -0.1241
     73  CA        48.3260   59.6220   20.5020 C.3   100  TYR100      0.1605
     74  C         48.5300   58.9120   21.8280 C.2   100  TYR100      0.2264
     75  O         49.3420   58.0030   21.9290 O.2   100  TYR100     -0.2867
     76  CB        47.6960   58.6980   19.4470 C.3   100  TYR100      0.0534
     77  CG        47.5550   59.4130   18.1240 C.ar  100  TYR100     -0.0201
     78  CD1       46.3820   60.0860   17.7900 C.ar  100  TYR100     -0.0009
     79  CD2       48.6220   59.4880   17.2480 C.ar  100  TYR100     -0.0009
     80  CE1       46.2720   60.7770   16.5950 C.ar  100  TYR100      0.0417
     81  CE2       48.5230   60.1710   16.0570 C.ar  100  TYR100      0.0417
     82  CZ        47.3470   60.8100   15.7310 C.ar  100  TYR100      0.1957
     83  OH        47.2670   61.4930   14.5470 O.3   100  TYR100     -0.2866
     84  N         46.8450   56.8120   23.3990 N.3   102  ASP102     -0.1225
     85  CA        46.4720   55.4020   23.3960 C.3   102  ASP102      0.1805
     86  C         47.3370   54.5380   22.4540 C.2   102  ASP102      0.2597
     87  O         47.0040   53.3930   22.2020 O.2   102  ASP102     -0.2718
     88  CB        44.9660   55.2330   23.0980 C.3   102  ASP102      0.1424
     89  CG        44.5640   55.6710   21.6810 C.2   102  ASP102      0.3668
     90  OD1       45.3490   56.3460   20.9980 O.co2 102  ASP102     -0.2456
     91  OD2       43.4330   55.3390   21.2570 O.co2 102  ASP102     -0.2456
     92  N         48.4390   55.0970   21.9530 N.am  103  ALA103     -0.1979
     93  CA        49.4900   54.3480   21.2490 C.3   103  ALA103      0.1597
     94  C         50.7950   54.6440   21.9770 C.2   103  ALA103      0.2287
     95  O         51.5250   55.5460   21.5770 O.2   103  ALA103     -0.2864
     96  CB        49.5940   54.7980   19.8050 C.3   103  ALA103      0.0319
     97  N         54.0440   52.9490    8.1000 N.3   128  VAL128     -0.1245
     98  CA        54.4240   51.5810    8.4400 C.3   128  VAL128      0.1561
     99  C         53.9440   50.6270    7.3470 C.2   128  VAL128      0.2260
    100  O         52.9260   50.8890    6.7030 O.2   128  VAL128     -0.2867
    101  CB        53.8380   51.1680    9.8140 C.3   128  VAL128      0.0252
    102  CG1       52.3090   51.0730    9.7510 C.3   128  VAL128      0.0019
    103  CG2       54.4480   49.8640   10.2890 C.3   128  VAL128      0.0019
    104  N         52.3810   47.0480    6.3220 N.3   130  LEU130     -0.1245
    105  CA        51.6040   45.9150    6.8130 C.3   130  LEU130      0.1561
    106  C         51.5170   44.8500    5.7260 C.2   130  LEU130      0.2260
    107  O         51.4950   45.1770    4.5400 O.2   130  LEU130     -0.2867
    108  CB        50.1960   46.3650    7.2020 C.3   130  LEU130      0.0270
    109  CG        50.0750   47.4130    8.3090 C.3   130  LEU130      0.0019
    110  CD1       48.6120   47.7220    8.5760 C.3   130  LEU130      0.0001
    111  CD2       50.7530   46.9410    9.5810 C.3   130  LEU130      0.0001
    112  N         43.3730   50.5150    6.4150 N.3   136  TYR136     -0.1241
    113  CA        44.3030   51.6230    6.6700 C.3   136  TYR136      0.1605
    114  C         44.5720   52.4610    5.4130 C.2   136  TYR136      0.2264
    115  O         44.5810   51.9300    4.3010 O.2   136  TYR136     -0.2867
    116  CB        45.6240   51.0820    7.2220 C.3   136  TYR136      0.0534
    117  CG        45.4850   50.3210    8.5290 C.ar  136  TYR136     -0.0201
    118  CD1       45.4050   50.9940    9.7470 C.ar  136  TYR136     -0.0009
    119  CD2       45.4360   48.9280    8.5460 C.ar  136  TYR136     -0.0009
    120  CE1       45.2760   50.2980   10.9510 C.ar  136  TYR136      0.0417
    121  CE2       45.3120   48.2220    9.7460 C.ar  136  TYR136      0.0417
    122  CZ        45.2360   48.9140   10.9420 C.ar  136  TYR136      0.1957
    123  OH        45.1130   48.2220   12.1260 O.3   136  TYR136     -0.2866
    124  N         51.2280   52.2630    4.9040 N.3   165  VAL165     -0.1231
    125  CA        50.0430   52.9470    5.4320 C.3   165  VAL165      0.1692
    126  C         50.3680   54.1320    6.3600 C.2   165  VAL165      0.2592
    127  O         51.4940   54.2810    6.8390 O.2   165  VAL165     -0.2718
    128  CB        49.1050   51.9600    6.1720 C.3   165  VAL165      0.0266
    129  CG1       48.6370   50.8630    5.2220 C.3   165  VAL165      0.0020
    130  CG2       49.7900   51.3660    7.3970 C.3   165  VAL165      0.0020
    131  N         49.3580   54.9720    6.5830 N.am  166  ASN166     -0.1960
    132  CA        49.4520   56.1200    7.4860 C.3   166  ASN166      0.1819
    133  C         49.3050   55.6800    8.9490 C.2   166  ASN166      0.2622
    134  O         48.4480   54.8530    9.2720 O.2   166  ASN166     -0.2715
    135  CB        48.3680   57.1470    7.1330 C.3   166  ASN166      0.1195
    136  CG        48.3750   58.3560    8.0560 C.2   166  ASN166      0.2630
    137  OD1       49.4360   58.8910    8.4000 O.2   166  ASN166     -0.2716
    138  ND2       47.1830   58.7940    8.4600 N.am  166  ASN166     -0.0877
    139  N         50.1460   56.2310    9.8220 N.am  167  THR167     -0.1937
    140  CA        50.0660   55.9630   11.2680 C.3   167  THR167      0.2028
    141  C         49.2770   57.0380   12.0180 C.2   167  THR167      0.2642
    142  O         48.7200   56.7720   13.0760 O.2   167  THR167     -0.2714
    143  CB        51.4570   55.9140   11.9160 C.3   167  THR167      0.1808
    144  OG1       52.0220   57.2310   11.9120 O.3   167  THR167     -0.2208
    145  CG2       52.3810   54.9550   11.1750 C.3   167  THR167      0.0379
    146  N         49.2650   58.2560   11.4840 N.am  168  GLY168     -0.1954
    147  CA        48.6370   59.3930   12.1520 C.3   168  GLY168      0.1869
    148  C         49.6580   60.3420   12.7560 C.2   168  GLY168      0.2309
    149  O         49.3270   61.4860   13.0710 O.2   168  GLY168     -0.2863
    150  N         39.6040   66.2060    9.4580 N.3   194  TYR194     -0.1241
    151  CA        40.6590   65.1900    9.4760 C.3   194  TYR194      0.1605
    152  C         42.0510   65.7930    9.3560 C.2   194  TYR194      0.2264
    153  O         42.3080   66.6070    8.4700 O.2   194  TYR194     -0.2867
    154  CB        40.4620   64.1900    8.3320 C.3   194  TYR194      0.0534
    155  CG        39.4100   63.1360    8.5920 C.ar  194  TYR194     -0.0201
    156  CD1       38.2380   63.0830    7.8460 C.ar  194  TYR194     -0.0009
    157  CD2       39.5980   62.1790    9.5780 C.ar  194  TYR194     -0.0009
    158  CE1       37.2750   62.1020    8.0840 C.ar  194  TYR194      0.0417
    159  CE2       38.6440   61.1980    9.8240 C.ar  194  TYR194      0.0417
    160  CZ        37.4860   61.1660    9.0740 C.ar  194  TYR194      0.1957
    161  OH        36.5460   60.1890    9.3210 O.3   194  TYR194     -0.2866
    162  N         44.5180   64.1520    8.3410 N.3   196  THR196     -0.1218
    163  CA        45.0240   63.5700    7.0940 C.3   196  THR196      0.1862
    164  C         44.9790   64.5610    5.9310 C.2   196  THR196      0.2287
    165  O         45.8000   64.5020    5.0200 O.2   196  THR196     -0.2866
    166  CB        44.1980   62.3290    6.6980 C.3   196  THR196      0.1770
    167  OG1       44.0710   61.4520    7.8270 O.3   196  THR196     -0.2211
    168  CG2       44.8560   61.5840    5.5510 C.3   196  THR196      0.0375
    169  N         55.8470   47.6950   13.8770 N.3   217  VAL217     -0.1245
    170  CA        54.4260   48.0450   13.8180 C.3   217  VAL217      0.1561
    171  C         53.8190   48.2090   15.2110 C.2   217  VAL217      0.2260
    172  O         52.8930   48.9900   15.3930 O.2   217  VAL217     -0.2867
    173  CB        53.5890   47.0100   13.0150 C.3   217  VAL217      0.0252
    174  CG1       53.6230   45.6470   13.6710 C.3   217  VAL217      0.0019
    175  CG2       52.1480   47.4940   12.8660 C.3   217  VAL217      0.0019
    176  N         53.3340   51.7640   16.7510 N.3   220  VAL220     -0.1231
    177  CA        52.2290   52.6300   16.3350 C.3   220  VAL220      0.1692
    178  C         50.8360   52.0490   16.6600 C.2   220  VAL220      0.2592
    179  O         49.8070   52.7000   16.4190 O.2   220  VAL220     -0.2718
    180  CB        52.3170   52.9480   14.8220 C.3   220  VAL220      0.0266
    181  CG1       53.6750   53.5650   14.4900 C.3   220  VAL220      0.0020
    182  CG2       52.0650   51.6960   13.9800 C.3   220  VAL220      0.0020
    183  N         50.8010   50.8380   17.2170 N.am  221  GLU221     -0.1966
    184  CA        49.5450   50.1910   17.5730 C.3   221  GLU221      0.1733
    185  C         48.8900   50.8830   18.7560 C.2   221  GLU221      0.2616
    186  O         49.5670   51.2970   19.6890 O.2   221  GLU221     -0.2715
    187  CB        49.7720   48.7200   17.9300 C.3   221  GLU221      0.0429
    188  CG        50.0200   47.8010   16.7320 C.3   221  GLU221      0.1163
    189  CD        48.7550   47.4280   15.9760 C.2   221  GLU221      0.3649
    190  OE1       47.6700   47.9510   16.2980 O.co2 221  GLU221     -0.2457
    191  OE2       48.8510   46.6120   15.0380 O.co2 221  GLU221     -0.2457
    192  N         47.5670   50.9930   18.7110 N.am  222  GLY222     -0.1955
    193  CA        46.7880   51.5030   19.8330 C.3   222  GLY222      0.1869
    194  C         46.0120   50.3960   20.5180 C.2   222  GLY222      0.2309
    195  O         45.7670   49.3540   19.9310 O.2   222  GLY222     -0.2863
    196  N         42.4860   49.4830   22.0940 N.3   224  ASN224     -0.1240
    197  CA        41.0690   49.8590   22.2070 C.3   224  ASN224      0.1653
    198  C         40.2810   48.9700   23.1800 C.2   224  ASN224      0.2266
    199  O         39.1240   49.2520   23.4890 O.2   224  ASN224     -0.2867
    200  CB        40.4080   49.8070   20.8290 C.3   224  ASN224      0.1155
    201  CG        40.9340   50.8760   19.8830 C.2   224  ASN224      0.2627
    202  OD1       41.2900   51.9810   20.3020 O.2   224  ASN224     -0.2716
    203  ND2       40.9600   50.5610   18.5980 N.am  224  ASN224     -0.0877
@<TRIPOS>BOND
     1   115   114    2
     2   107   106    2
     3   124   125    1
     4   165   164    2
     5   129   128    1
     6   114   113    1
     7   125   128    1
     8   125   126    1
     9   168   166    1
    10   106   105    1
    11   164   163    1
    12   128   130    1
    13   104   105    1
    14   126   131   am
    15   126   127    2
    16   112   113    1
    17   131   132    1
    18   113   116    1
    19   166   163    1
    20   166   167    1
    21   100    99    2
    22   105   108    1
    23   163   162    1
    24   135   132    1
    25   135   136    1
    26   108   109    1
    27   116   117    1
    28    99    98    1
    29   132   133    1
    30   156   158   ar
    31   156   155   ar
    32   136   137    2
    33   136   138   am
    34   158   160   ar
    35    97    98    1
    36   109   110    1
    37   109   111    1
    38   154   155    1
    39   154   151    1
    40    98   101    1
    41   153   152    2
    42   117   119   ar
    43   117   118   ar
    44   119   121   ar
    45   155   157   ar
    46   133   134    2
    47   133   139   am
    48   160   161    1
    49   160   159   ar
    50   152   151    1
    51   150   151    1
    52   157   159   ar
    53   121   122   ar
    54   118   120   ar
    55   102   101    1
    56   101   103    1
    57   139   140    1
    58   122   120   ar
    59   122   123    1
    60   145   143    1
    61   140   143    1
    62   140   141    1
    63   146   141   am
    64   146   147    1
    65   144   143    1
    66   141   142    2
    67   147   148    1
    68   148   149    2
    69   175   173    1
    70    70    69    1
    71   173   174    1
    72   173   170    1
    73   170   169    1
    74   170   171    1
    75   182   180    1
    76    69    66    1
    77    69    71    1
    78    65    66    1
    79   181   180    1
    80    67    66    1
    81    67    68    2
    82    83    82    1
    83   180   177    1
    84   191   189   ar
    85   171   172    2
    86    82    81   ar
    87    82    80   ar
    88   189   190   ar
    89   189   188    1
    90    81    79   ar
    91   177   178    1
    92   177   176    1
    93   179   178    2
    94    80    78   ar
    95   178   183   am
    96   188   187    1
    97    59    58    2
    98    63    62    2
    99   183   184    1
   100    79    77   ar
   101   184   187    1
   102   184   185    1
   103    58    57    1
   104    78    77   ar
   105    61    62    1
   106    61    60    1
   107     8     6    1
   108    77    76    1
   109    62    64   am
   110   203   201   am
   111   192   185   am
   112   192   193    1
   113   185   186    2
   114     7     6    1
   115    57    60    1
   116    57    56    1
   117     6     5    1
   118    76    73    1
   119    96    93    1
   120   193   194    1
   121   201   202    2
   122   201   200    1
   123   195   194    2
   124    72    73    1
   125     5     2    1
   126    73    74    1
   127    54    53    2
   128   200   197    1
   129    90    89   ar
   130    93    92    1
   131    93    94    1
   132    91    89   ar
   133    53    55   am
   134    53    52    1
   135    95    94    2
   136    89    88    1
   137    31    30    1
   138     2     1    1
   139     2     3    1
   140    74    75    2
   141    92    86   am
   142   196   197    1
   143    44    46    1
   144    44    43    1
   145    87    86    2
   146   197   198    1
   147    52    51    1
   148    86    85    1
   149    45    43    1
   150     4     3    2
   151     3     9   am
   152    43    40    1
   153    88    85    1
   154    30    29    1
   155   198   199    2
   156    51    48    1
   157    85    84    1
   158     9    10    1
   159    29    28    1
   160    18    15    1
   161    20    19    1
   162    20    21    1
   163    48    49    1
   164    48    47    1
   165    19    16   am
   166    40    39    1
   167    40    41    1
   168    14    15    1
   169    14    11   am
   170    49    50    2
   171    10    11    1
   172    10    13    1
   173    16    15    1
   174    16    17    2
   175    42    41    2
   176    21    22    2
   177    11    12    2
   178    28    27    1
   179    37    36    1
   180    27    24    1
   181    36    33    1
   182    36    38    1
   183    24    25    1
   184    24    23    1
   185    25    32   am
   186    25    26    2
   187    32    33    1
   188    33    34    1
   189    34    35    2
