@<TRIPOS>MOLECULE
tmp/4knxA00.pdb
 193 179 0 0 0
SMALL
GASTEIGER

@<TRIPOS>ATOM
      1  N         -7.5950   94.5700  130.3480 N.3     8  LEU8       -0.1231
      2  CA        -9.0450   94.3620  130.3740 C.3     8  LEU8        0.1693
      3  C         -9.3940   93.3220  131.4350 C.2     8  LEU8        0.2592
      4  O         -8.9600   92.1740  131.3460 O.2     8  LEU8       -0.2718
      5  CB        -9.5620   93.9190  128.9990 C.3     8  LEU8        0.0284
      6  CG        -9.7880   95.0350  127.9720 C.3     8  LEU8        0.0019
      7  CD1       -8.5130   95.8080  127.6910 C.3     8  LEU8        0.0001
      8  CD2      -10.3570   94.4660  126.6830 C.3     8  LEU8        0.0001
      9  N        -10.1750   93.7290  132.4340 N.am    9  ALA9       -0.1966
     10  CA       -10.4670   92.8740  133.5890 C.3     9  ALA9        0.1728
     11  C        -11.8980   93.0250  134.1100 C.2     9  ALA9        0.2616
     12  O        -12.1660   92.7500  135.2830 O.2     9  ALA9       -0.2715
     13  CB        -9.4720   93.1740  134.7020 C.3     9  ALA9        0.0334
     14  N        -12.8150   93.4320  133.2350 N.am   10  ALA10      -0.1963
     15  CA       -14.1810   93.7810  133.6360 C.3    10  ALA10       0.1728
     16  C        -15.1570   92.6000  133.6300 C.2    10  ALA10       0.2616
     17  O        -16.2560   92.7120  134.1710 O.2    10  ALA10      -0.2715
     18  CB       -14.7160   94.8980  132.7420 C.3    10  ALA10       0.0334
     19  N        -14.7520   91.4800  133.0340 N.am   11  GLY11      -0.1955
     20  CA       -15.6500   90.3500  132.7870 C.3    11  GLY11       0.1869
     21  C        -16.2590   89.6990  134.0170 C.2    11  GLY11       0.2309
     22  O        -15.6160   89.5950  135.0650 O.2    11  GLY11      -0.2863
     23  N        -14.2260   87.3260  137.0460 N.3    22  LYS22      -0.1231
     24  CA       -13.4550   86.3730  136.2430 C.3    22  LYS22       0.1693
     25  C        -11.9530   86.3600  136.5360 C.2    22  LYS22       0.2591
     26  O        -11.3490   85.2940  136.6470 O.2    22  LYS22      -0.2718
     27  CB       -13.6790   86.6670  134.7580 C.3    22  LYS22       0.0285
     28  CG       -13.2520   85.5650  133.8110 C.3    22  LYS22       0.0035
     29  CD       -13.6850   85.8980  132.3940 C.3    22  LYS22       0.0206
     30  CE       -13.3770   84.7700  131.4400 C.3    22  LYS22       0.1093
     31  NZ       -13.9490   85.0080  130.0880 N.3    22  LYS22      -0.1314
     32  N        -11.3550   87.5400  136.6650 N.am   23  VAL23      -0.1980
     33  CA        -9.8940   87.6460  136.7240 C.3    23  VAL23       0.1595
     34  C         -9.2870   87.4460  138.1210 C.2    23  VAL23       0.2287
     35  O         -8.0630   87.4460  138.2610 O.2    23  VAL23      -0.2864
     36  CB        -9.4030   88.9980  136.1540 C.3    23  VAL23       0.0276
     37  CG1       -9.9050   89.1940  134.7260 C.3    23  VAL23       0.0022
     38  CG2       -9.8290   90.1540  137.0500 C.3    23  VAL23       0.0022
     39  N         -8.9240   98.1770  133.4560 N.3    51  ILE51      -0.1245
     40  CA       -10.3320   98.3280  133.1070 C.3    51  ILE51       0.1561
     41  C        -11.1210   97.2830  133.8860 C.2    51  ILE51       0.2260
     42  O        -10.9580   96.0850  133.6580 O.2    51  ILE51      -0.2867
     43  CB       -10.5950   98.1390  131.5910 C.3    51  ILE51       0.0252
     44  CG1       -9.6150   98.9610  130.7420 C.3    51  ILE51       0.0019
     45  CG2      -12.0330   98.5150  131.2590 C.3    51  ILE51       0.0019
     46  CD1       -9.5780  100.4380  131.0820 C.3    51  ILE51       0.0001
     47  N        -15.4680  100.7520  134.2470 N.3    73  GLN73      -0.1245
     48  CA       -16.3230  100.7300  133.0650 C.3    73  GLN73       0.1566
     49  C        -17.7610  100.4270  133.4760 C.2    73  GLN73       0.2260
     50  O        -18.0270   99.3940  134.0910 O.2    73  GLN73      -0.2867
     51  CB       -15.8270   99.6670  132.0830 C.3    73  GLN73       0.0367
     52  CG       -16.6080   99.5910  130.7800 C.3    73  GLN73       0.0905
     53  CD       -16.0870   98.5090  129.8560 C.2    73  GLN73       0.2608
     54  OE1      -15.6180   98.7930  128.7560 O.2    73  GLN73      -0.2717
     55  NE2      -16.1580   97.2610  130.3040 N.am   73  GLN73      -0.0878
     56  N        -20.4620   97.3130  129.0510 N.3    76  GLN76      -0.1245
     57  CA       -19.6150   96.5230  128.1610 C.3    76  GLN76       0.1566
     58  C        -20.0870   96.6420  126.7140 C.2    76  GLN76       0.2260
     59  O        -21.1010   96.0550  126.3300 O.2    76  GLN76      -0.2867
     60  CB       -19.6220   95.0560  128.5980 C.3    76  GLN76       0.0367
     61  CG       -18.9550   94.8130  129.9490 C.3    76  GLN76       0.0905
     62  CD       -19.3100   93.4620  130.5430 C.2    76  GLN76       0.2608
     63  OE1      -20.4440   93.2380  130.9710 O.2    76  GLN76      -0.2717
     64  NE2      -18.3390   92.5590  130.5820 N.am   76  GLN76      -0.0878
     65  N        -17.7170   96.3480  124.0250 N.3    78  GLY78      -0.1210
     66  CA       -16.6510   95.7930  123.1860 C.3    78  GLY78       0.1956
     67  C        -15.2650   96.2070  123.6460 C.2    78  GLY78       0.2612
     68  O        -15.1150   97.1240  124.4570 O.2    78  GLY78      -0.2717
     69  N        -14.2500   95.5320  123.1130 N.am   79  THR79      -0.1952
     70  CA       -12.8620   95.7490  123.5260 C.3    79  THR79       0.1897
     71  C        -12.3520   97.1540  123.2080 C.2    79  THR79       0.2313
     72  O        -11.5790   97.7210  123.9810 O.2    79  THR79      -0.2863
     73  CB       -11.9170   94.7230  122.8730 C.3    79  THR79       0.1794
     74  OG1      -12.1360   94.7000  121.4560 O.3    79  THR79      -0.2208
     75  CG2      -12.1620   93.3360  123.4440 C.3    79  THR79       0.0378
     76  N        -13.6840   99.4710  125.7910 N.3    82  ALA82      -0.1245
     77  CA       -12.9460   99.2300  127.0320 C.3    82  ALA82       0.1562
     78  C        -11.6140   99.9740  127.0420 C.2    82  ALA82       0.2260
     79  O        -11.3100  100.6940  127.9920 O.2    82  ALA82      -0.2867
     80  CB       -12.7200   97.7360  127.2310 C.3    82  ALA82       0.0290
     81  N         -4.9720   91.2430  128.5020 N.3   100  TYR100     -0.1241
     82  CA        -6.2470   90.7220  128.9980 C.3   100  TYR100      0.1605
     83  C         -6.0560   90.0030  130.3270 C.2   100  TYR100      0.2264
     84  O         -5.2280   89.1000  130.4380 O.2   100  TYR100     -0.2867
     85  CB        -6.8720   89.7960  127.9500 C.3   100  TYR100      0.0534
     86  CG        -7.0440   90.4940  126.6190 C.ar  100  TYR100     -0.0201
     87  CD1       -8.1890   91.2390  126.3440 C.ar  100  TYR100     -0.0009
     88  CD2       -6.0400   90.4550  125.6590 C.ar  100  TYR100     -0.0009
     89  CE1       -8.3410   91.9040  125.1350 C.ar  100  TYR100      0.0417
     90  CE2       -6.1830   91.1140  124.4450 C.ar  100  TYR100      0.0417
     91  CZ        -7.3340   91.8380  124.1890 C.ar  100  TYR100      0.1957
     92  OH        -7.4780   92.4970  122.9880 O.3   100  TYR100     -0.2866
     93  N         -7.7950   87.8720  131.8700 N.3   102  ASP102     -0.1225
     94  CA        -8.1470   86.4480  131.8570 C.3   102  ASP102      0.1805
     95  C         -7.2500   85.6140  130.9270 C.2   102  ASP102      0.2597
     96  O         -7.5460   84.4480  130.6660 O.2   102  ASP102     -0.2718
     97  CB        -9.6330   86.2610  131.5060 C.3   102  ASP102      0.1424
     98  CG        -9.9950   86.7810  130.1170 C.2   102  ASP102      0.3668
     99  OD1       -9.2090   87.5540  129.5240 O.co2 102  ASP102     -0.2456
    100  OD2      -11.0840   86.4190  129.6240 O.co2 102  ASP102     -0.2456
    101  N         -6.1600   86.2120  130.4430 N.am  103  ALA103     -0.1979
    102  CA        -5.1250   85.5020  129.6870 C.3   103  ALA103      0.1597
    103  C         -3.7870   85.7290  130.3940 C.2   103  ALA103      0.2287
    104  O         -2.9650   86.5260  129.9380 O.2   103  ALA103     -0.2864
    105  CB        -5.0700   86.0080  128.2520 C.3   103  ALA103      0.0319
    106  N         -0.5950   84.0070  116.5390 N.3   128  VAL128     -0.1245
    107  CA        -0.2130   82.6500  116.9150 C.3   128  VAL128      0.1561
    108  C         -0.7190   81.6510  115.8750 C.2   128  VAL128      0.2260
    109  O         -1.7950   81.8380  115.2990 O.2   128  VAL128     -0.2867
    110  CB        -0.7590   82.2850  118.3180 C.3   128  VAL128      0.0252
    111  CG1       -2.2820   82.2590  118.3200 C.3   128  VAL128      0.0019
    112  CG2       -0.1930   80.9520  118.7840 C.3   128  VAL128      0.0019
    113  N         -2.2420   78.0840  114.8970 N.3   130  LEU130     -0.1245
    114  CA        -3.0490   76.9930  115.4310 C.3   130  LEU130      0.1561
    115  C         -3.1780   75.8930  114.3840 C.2   130  LEU130      0.2260
    116  O         -3.3690   76.1790  113.2020 O.2   130  LEU130     -0.2867
    117  CB        -4.4410   77.4950  115.8180 C.3   130  LEU130      0.0270
    118  CG        -4.5180   78.6080  116.8650 C.3   130  LEU130      0.0019
    119  CD1       -5.9690   78.9700  117.1330 C.3   130  LEU130      0.0001
    120  CD2       -3.8210   78.1990  118.1570 C.3   130  LEU130      0.0001
    121  N        -11.2830   81.4360  114.7740 N.3   136  TYR136     -0.1241
    122  CA       -10.4050   82.5790  115.0380 C.3   136  TYR136      0.1605
    123  C        -10.1700   83.4410  113.7980 C.2   136  TYR136      0.2264
    124  O        -10.2550   82.9590  112.6680 O.2   136  TYR136     -0.2867
    125  CB        -9.0640   82.0930  115.5900 C.3   136  TYR136      0.0534
    126  CG        -9.1830   81.3760  116.9160 C.ar  136  TYR136     -0.0201
    127  CD1       -9.3990   80.0020  116.9710 C.ar  136  TYR136     -0.0009
    128  CD2       -9.0870   82.0750  118.1170 C.ar  136  TYR136     -0.0009
    129  CE1       -9.5130   79.3400  118.1890 C.ar  136  TYR136      0.0417
    130  CE2       -9.1990   81.4230  119.3390 C.ar  136  TYR136      0.0417
    131  CZ        -9.4100   80.0560  119.3690 C.ar  136  TYR136      0.1957
    132  OH        -9.5220   79.4070  120.5770 O.3   136  TYR136     -0.2866
    133  N         -3.4460   83.2330  113.4340 N.3   165  VAL165     -0.1231
    134  CA        -4.6470   83.9240  113.9000 C.3   165  VAL165      0.1692
    135  C         -4.3340   85.0760  114.8570 C.2   165  VAL165      0.2592
    136  O         -3.2340   85.1680  115.4060 O.2   165  VAL165     -0.2718
    137  CB        -5.6280   82.9480  114.5890 C.3   165  VAL165      0.0266
    138  CG1       -6.0650   81.8570  113.6200 C.3   165  VAL165      0.0020
    139  CG2       -5.0010   82.3390  115.8370 C.3   165  VAL165      0.0020
    140  N         -5.3230   85.9480  115.0400 N.am  166  ASN166     -0.1960
    141  CA        -5.2180   87.1070  115.9280 C.3   166  ASN166      0.1819
    142  C         -5.4040   86.6960  117.3870 C.2   166  ASN166      0.2622
    143  O         -6.3230   85.9400  117.7090 O.2   166  ASN166     -0.2715
    144  CB        -6.2730   88.1540  115.5390 C.3   166  ASN166      0.1195
    145  CG        -6.3300   89.3290  116.5050 C.2   166  ASN166      0.2630
    146  OD1       -5.3020   89.8510  116.9310 O.2   166  ASN166     -0.2716
    147  ND2       -7.5410   89.7530  116.8440 N.am  166  ASN166     -0.0877
    148  N         -4.5340   87.2020  118.2600 N.am  167  THR167     -0.1937
    149  CA        -4.6380   86.9620  119.7020 C.3   167  THR167      0.2028
    150  C         -5.3530   88.0990  120.4340 C.2   167  THR167      0.2642
    151  O         -5.8500   87.9070  121.5420 O.2   167  THR167     -0.2714
    152  CB        -3.2530   86.7900  120.3530 C.3   167  THR167      0.1808
    153  OG1       -2.5560   88.0420  120.3450 O.3   167  THR167     -0.2208
    154  CG2       -2.4350   85.7430  119.6180 C.3   167  THR167      0.0379
    155  N         -5.3800   89.2820  119.8240 N.am  168  GLY168     -0.1954
    156  CA        -5.9890   90.4600  120.4370 C.3   168  GLY168      0.1869
    157  C         -4.9870   91.3650  121.1340 C.2   168  GLY168      0.2309
    158  O         -5.3000   92.5190  121.4390 O.2   168  GLY168     -0.2863
    159  N          1.1710   78.7980  122.4280 N.3   217  VAL217     -0.1245
    160  CA        -0.2440   79.1700  122.3690 C.3   217  VAL217      0.1561
    161  C         -0.8330   79.4300  123.7580 C.2   217  VAL217      0.2260
    162  O         -1.7530   80.2340  123.9020 O.2   217  VAL217     -0.2867
    163  CB        -1.0910   78.0880  121.6470 C.3   217  VAL217      0.0252
    164  CG1       -1.1130   76.7900  122.4430 C.3   217  VAL217      0.0019
    165  CG2       -2.5090   78.5930  121.3970 C.3   217  VAL217      0.0019
    166  N         -1.3860   82.9950  125.1700 N.3   220  VAL220     -0.1231
    167  CA        -2.5140   83.8040  124.7080 C.3   220  VAL220      0.1692
    168  C         -3.8760   83.1690  125.0050 C.2   220  VAL220      0.2592
    169  O         -4.9120   83.7710  124.7190 O.2   220  VAL220     -0.2718
    170  CB        -2.3990   84.1100  123.1930 C.3   220  VAL220      0.0266
    171  CG1       -1.1140   84.8770  122.9060 C.3   220  VAL220      0.0020
    172  CG2       -2.4540   82.8290  122.3680 C.3   220  VAL220      0.0020
    173  N         -3.8750   81.9690  125.5870 N.am  221  GLU221     -0.1966
    174  CA        -5.1180   81.2910  125.9540 C.3   221  GLU221      0.1733
    175  C         -5.7840   81.9860  127.1350 C.2   221  GLU221      0.2616
    176  O         -5.1220   82.3280  128.1140 O.2   221  GLU221     -0.2715
    177  CB        -4.8610   79.8230  126.3150 C.3   221  GLU221      0.0429
    178  CG        -4.5840   78.9160  125.1220 C.3   221  GLU221      0.1163
    179  CD        -5.8250   78.5630  124.3160 C.2   221  GLU221      0.3649
    180  OE1       -6.9360   79.0260  124.6510 O.co2 221  GLU221     -0.2457
    181  OE2       -5.6850   77.8080  123.3330 O.co2 221  GLU221     -0.2457
    182  N         -7.0930   82.1960  127.0280 N.am  222  GLY222     -0.1955
    183  CA        -7.8900   82.7100  128.1350 C.3   222  GLY222      0.1869
    184  C         -8.5510   81.5780  128.8980 C.2   222  GLY222      0.2309
    185  O         -8.6410   80.4570  128.3980 O.2   222  GLY222     -0.2863
    186  N        -12.1070   80.7160  130.4090 N.3   224  ASN224     -0.1240
    187  CA       -13.5360   81.0320  130.4950 C.3   224  ASN224      0.1653
    188  C        -14.2600   80.2160  131.5620 C.2   224  ASN224      0.2266
    189  O        -15.3630   80.5710  131.9810 O.2   224  ASN224     -0.2867
    190  CB       -14.2120   80.8000  129.1420 C.3   224  ASN224      0.1155
    191  CG       -13.7560   81.7860  128.0830 C.2   224  ASN224      0.2627
    192  OD1      -13.4070   82.9270  128.3880 O.2   224  ASN224     -0.2716
    193  ND2      -13.7650   81.3520  126.8290 N.am  224  ASN224     -0.0877
@<TRIPOS>BOND
     1   124   123    2
     2   116   115    2
     3   133   134    1
     4   138   137    1
     5   123   122    1
     6   134   137    1
     7   134   135    1
     8   115   114    1
     9   137   139    1
    10   121   122    1
    11   135   140   am
    12   135   136    2
    13   113   114    1
    14   122   125    1
    15   140   141    1
    16   109   108    2
    17   114   117    1
    18   144   141    1
    19   144   145    1
    20   125   126    1
    21   117   118    1
    22   108   107    1
    23   141   142    1
    24   145   147   am
    25   145   146    2
    26   106   107    1
    27   118   119    1
    28   118   120    1
    29   107   110    1
    30   126   127   ar
    31   126   128   ar
    32   127   129   ar
    33   142   143    2
    34   142   148   am
    35   128   130   ar
    36   129   131   ar
    37   148   149    1
    38   110   111    1
    39   110   112    1
    40   130   131   ar
    41   131   132    1
    42   154   152    1
    43   149   152    1
    44   149   150    1
    45   155   150   am
    46   155   156    1
    47   153   152    1
    48   150   151    2
    49   156   157    1
    50   157   158    2
    51   165   163    1
    52    74    73    1
    53   163   160    1
    54   163   164    1
    55   172   170    1
    56   160   159    1
    57   160   161    1
    58    73    75    1
    59    73    70    1
    60   171   170    1
    61    92    91    1
    62    69    70    1
    63    69    67   am
    64    66    67    1
    65    66    65    1
    66   170   167    1
    67    71    70    1
    68    71    72    2
    69   181   179   ar
    70    67    68    2
    71   161   162    2
    72    91    90   ar
    73    91    89   ar
    74   179   180   ar
    75   179   178    1
    76    90    88   ar
    77   167   168    1
    78   167   166    1
    79   169   168    2
    80   168   173   am
    81   178   177    1
    82    89    87   ar
    83   173   174    1
    84    88    86   ar
    85    76    77    1
    86   174   177    1
    87   174   175    1
    88    59    58    2
    89    87    86   ar
    90    86    85    1
    91     8     6    1
    92    58    57    1
    93   193   191   am
    94   182   175   am
    95   182   183    1
    96    77    78    1
    97    77    80    1
    98    78    79    2
    99   175   176    2
   100     7     6    1
   101    85    82    1
   102     6     5    1
   103   191   192    2
   104   191   190    1
   105   183   184    1
   106    57    60    1
   107    57    56    1
   108   105   102    1
   109   185   184    2
   110    81    82    1
   111    60    61    1
   112    54    53    2
   113    82    83    1
   114     5     2    1
   115   190   187    1
   116    99    98   ar
   117   100    98   ar
   118   102   103    1
   119   102   101    1
   120    53    55   am
   121    53    52    1
   122   104   103    2
   123    61    62    1
   124    31    30    1
   125    98    97    1
   126    83    84    2
   127     1     2    1
   128     2     3    1
   129   186   187    1
   130   101    95   am
   131   187   188    1
   132    62    64   am
   133    62    63    2
   134    96    95    2
   135    44    46    1
   136    44    43    1
   137    52    51    1
   138    95    94    1
   139    45    43    1
   140     4     3    2
   141     3     9   am
   142    30    29    1
   143    97    94    1
   144   188   189    2
   145    43    40    1
   146    94    93    1
   147    51    48    1
   148    29    28    1
   149     9    10    1
   150    18    15    1
   151    20    19    1
   152    20    21    1
   153    19    16   am
   154    48    49    1
   155    48    47    1
   156    40    39    1
   157    40    41    1
   158    14    15    1
   159    14    11   am
   160    49    50    2
   161    10    11    1
   162    10    13    1
   163    16    15    1
   164    16    17    2
   165    42    41    2
   166    28    27    1
   167    21    22    2
   168    11    12    2
   169    37    36    1
   170    27    24    1
   171    36    33    1
   172    36    38    1
   173    24    25    1
   174    24    23    1
   175    25    26    2
   176    25    32   am
   177    32    33    1
   178    33    34    1
   179    34    35    2
