@<TRIPOS>MOLECULE
tmp/4ko0A00.pdb
 159 158 0 0 0
SMALL
GASTEIGER

@<TRIPOS>ATOM
      1  N         46.3710  -19.4600   36.9220 N.3    97  PRO97      -0.2116
      2  CA        46.5700  -19.9220   35.5420 C.3    97  PRO97       0.1372
      3  C         45.3020  -20.4210   34.9490 C.2    97  PRO97       0.2244
      4  O         44.4780  -20.9550   35.6810 O.2    97  PRO97      -0.2868
      5  CB        47.5200  -21.1230   35.7050 C.3    97  PRO97       0.0268
      6  CG        48.2320  -20.8740   36.9720 C.3    97  PRO97       0.0207
      7  CD        47.2490  -20.1690   37.8690 C.3    97  PRO97       0.0892
      8  N         48.8680  -23.7370   30.3600 N.3   102  LEU102     -0.1231
      9  CA        49.9350  -24.6240   30.8500 C.3   102  LEU102      0.1693
     10  C         50.6340  -25.3080   29.6910 C.2   102  LEU102      0.2591
     11  O         50.0800  -25.3930   28.5860 O.2   102  LEU102     -0.2718
     12  CB        49.3820  -25.6750   31.8050 C.3   102  LEU102      0.0284
     13  CG        48.6600  -25.0790   33.0230 C.3   102  LEU102      0.0019
     14  CD1       47.9360  -26.1620   33.8060 C.3   102  LEU102      0.0001
     15  CD2       49.6270  -24.2970   33.9200 C.3   102  LEU102      0.0001
     16  N         51.8530  -25.7830   29.9460 N.am  103  LYS103     -0.1980
     17  CA        52.6200  -26.5500   28.9750 C.3   103  LYS103      0.1596
     18  C         52.5040  -28.0280   29.3590 C.2   103  LYS103      0.2287
     19  O         52.3770  -28.3510   30.5420 O.2   103  LYS103     -0.2864
     20  CB        54.0840  -26.0930   28.9880 C.3   103  LYS103      0.0298
     21  CG        54.4090  -24.9610   28.0210 C.3   103  LYS103      0.0038
     22  CD        53.5880  -23.6830   28.2770 C.3   103  LYS103      0.0206
     23  CE        53.7720  -23.1650   29.7100 C.3   103  LYS103      0.1093
     24  NZ        52.9260  -21.9730   30.0370 N.3   103  LYS103     -0.1314
     25  N         53.3710  -31.6010   30.4970 N.3   105  LYS105     -0.1245
     26  CA        54.4830  -32.1830   31.2630 C.3   105  LYS105      0.1561
     27  C         54.4610  -33.7230   31.2630 C.2   105  LYS105      0.2260
     28  O         53.3890  -34.3360   31.2860 O.2   105  LYS105     -0.2867
     29  CB        54.4750  -31.6770   32.7150 C.3   105  LYS105      0.0271
     30  CG        54.5780  -30.1570   32.8840 C.3   105  LYS105      0.0035
     31  CD        55.7730  -29.5820   32.1090 C.3   105  LYS105      0.0206
     32  CE        55.7750  -28.0610   32.1660 C.3   105  LYS105      0.1093
     33  NZ        57.0010  -27.4820   31.5440 N.3   105  LYS105     -0.1314
     34  N         54.1330  -34.6400   36.9700 N.3   108  VAL108     -0.1245
     35  CA        53.7700  -33.5330   37.8430 C.3   108  VAL108      0.1561
     36  C         53.5250  -34.0320   39.2430 C.2   108  VAL108      0.2260
     37  O         52.7100  -34.9270   39.4630 O.2   108  VAL108     -0.2867
     38  CB        52.5090  -32.7680   37.3730 C.3   108  VAL108      0.0252
     39  CG1       52.2740  -31.5840   38.2730 C.3   108  VAL108      0.0019
     40  CG2       52.6600  -32.2960   35.9450 C.3   108  VAL108      0.0019
     41  N         59.4840  -26.9450   36.7360 N.3   181  VAL181     -0.1231
     42  CA        58.6780  -25.7540   36.9580 C.3   181  VAL181      0.1692
     43  C         57.8380  -25.8800   38.2080 C.2   181  VAL181      0.2592
     44  O         57.2250  -26.9110   38.4740 O.2   181  VAL181     -0.2718
     45  CB        57.7650  -25.3940   35.7450 C.3   181  VAL181      0.0266
     46  CG1       58.5890  -24.8640   34.5750 C.3   181  VAL181      0.0020
     47  CG2       56.9190  -26.5870   35.3210 C.3   181  VAL181      0.0020
     48  N         57.7980  -24.8140   38.9850 N.am  182  ILE182     -0.1966
     49  CA        57.0480  -24.8580   40.2240 C.3   182  ILE182      0.1727
     50  C         55.8760  -23.8970   40.1300 C.2   182  ILE182      0.2616
     51  O         56.0300  -22.7730   39.6390 O.2   182  ILE182     -0.2715
     52  CB        57.9630  -24.4920   41.4060 C.3   182  ILE182      0.0290
     53  CG1       59.1040  -25.5170   41.5120 C.3   182  ILE182      0.0022
     54  CG2       57.1690  -24.4150   42.6930 C.3   182  ILE182      0.0023
     55  CD1       60.1260  -25.1830   42.5900 C.3   182  ILE182      0.0001
     56  N         54.7050  -24.3450   40.5680 N.am  183  TYR183     -0.1974
     57  CA        53.5400  -23.4640   40.7050 C.3   183  TYR183      0.1639
     58  C         52.9950  -23.5350   42.1280 C.2   183  TYR183      0.2290
     59  O         52.6530  -24.6230   42.6130 O.2   183  TYR183     -0.2864
     60  CB        52.4300  -23.8090   39.6920 C.3   183  TYR183      0.0560
     61  CG        51.1290  -23.0700   39.9730 C.ar  183  TYR183     -0.0198
     62  CD1       51.0550  -21.6790   39.8670 C.ar  183  TYR183     -0.0009
     63  CD2       49.9980  -23.7530   40.3820 C.ar  183  TYR183     -0.0009
     64  CE1       49.8750  -20.9970   40.1400 C.ar  183  TYR183      0.0417
     65  CE2       48.8130  -23.0810   40.6570 C.ar  183  TYR183      0.0417
     66  CZ        48.7610  -21.7110   40.5400 C.ar  183  TYR183      0.1957
     67  OH        47.5810  -21.0690   40.8160 O.3   183  TYR183     -0.2866
     68  N         53.0430  -27.3550   43.0500 N.3   190  TYR190     -0.1227
     69  CA        52.9940  -28.2610   41.9170 C.3   190  TYR190      0.1736
     70  C         54.3160  -28.1890   41.1790 C.2   190  TYR190      0.2595
     71  O         54.8060  -27.1050   40.8680 O.2   190  TYR190     -0.2718
     72  CB        51.8230  -27.9130   40.9980 C.3   190  TYR190      0.0548
     73  CG        50.4740  -28.1640   41.6320 C.ar  190  TYR190     -0.0200
     74  CD1       49.7660  -29.3310   41.3670 C.ar  190  TYR190     -0.0009
     75  CD2       49.9020  -27.2320   42.4920 C.ar  190  TYR190     -0.0009
     76  CE1       48.5290  -29.5640   41.9440 C.ar  190  TYR190      0.0417
     77  CE2       48.6640  -27.4580   43.0740 C.ar  190  TYR190      0.0417
     78  CZ        47.9820  -28.6290   42.7960 C.ar  190  TYR190      0.1957
     79  OH        46.7420  -28.8590   43.3680 O.3   190  TYR190     -0.2866
     80  N         54.9100  -29.3450   40.9210 N.am  191  VAL191     -0.1966
     81  CA        56.2190  -29.3840   40.2940 C.3   191  VAL191      0.1727
     82  C         56.1560  -30.2650   39.0690 C.2   191  VAL191      0.2616
     83  O         55.8110  -31.4520   39.1510 O.2   191  VAL191     -0.2715
     84  CB        57.2970  -29.9240   41.2600 C.3   191  VAL191      0.0290
     85  CG1       58.6940  -29.7140   40.6760 C.3   191  VAL191      0.0023
     86  CG2       57.1870  -29.2540   42.6100 C.3   191  VAL191      0.0023
     87  N         56.4870  -29.6920   37.9210 N.am  192  GLY192     -0.1955
     88  CA        56.3300  -30.4150   36.6800 C.3   192  GLY192      0.1869
     89  C         57.6570  -30.4600   35.9850 C.2   192  GLY192      0.2309
     90  O         58.4930  -29.5860   36.2120 O.2   192  GLY192     -0.2863
     91  N         48.4340  -37.0680   39.9320 N.3   227  PRO227     -0.2116
     92  CA        47.4290  -36.7760   38.9040 C.3   227  PRO227      0.1372
     93  C         46.5550  -37.9810   38.6340 C.2   227  PRO227      0.2244
     94  O         46.9980  -39.0950   38.8560 O.2   227  PRO227     -0.2868
     95  CB        48.2690  -36.4710   37.6590 C.3   227  PRO227      0.0268
     96  CG        49.6790  -36.4470   38.1070 C.3   227  PRO227      0.0207
     97  CD        49.7620  -37.2610   39.3410 C.3   227  PRO227      0.0892
     98  N         44.6050  -34.2510   38.9340 N.3   229  PHE229     -0.1241
     99  CA        44.3860  -33.2940   40.0050 C.3   229  PHE229      0.1605
    100  C         43.0850  -32.5380   39.8780 C.2   229  PHE229      0.2264
    101  O         42.8200  -31.9280   38.8540 O.2   229  PHE229     -0.2867
    102  CB        45.4500  -32.2000   39.9820 C.3   229  PHE229      0.0534
    103  CG        46.8500  -32.6840   40.1240 C.ar  229  PHE229     -0.0203
    104  CD1       47.2380  -33.4100   41.2200 C.ar  229  PHE229     -0.0042
    105  CD2       47.7950  -32.3570   39.1790 C.ar  229  PHE229     -0.0042
    106  CE1       48.5270  -33.8300   41.3460 C.ar  229  PHE229     -0.0003
    107  CE2       49.0830  -32.7760   39.3070 C.ar  229  PHE229     -0.0003
    108  CZ        49.4510  -33.5110   40.3900 C.ar  229  PHE229     -0.0000
    109  N         41.3980  -29.3200   40.7050 N.3   231  TRP231     -0.1241
    110  CA        41.8670  -27.9840   41.0550 C.3   231  TRP231      0.1605
    111  C         40.9860  -26.9200   40.3990 C.2   231  TRP231      0.2264
    112  O         40.8700  -26.8630   39.1670 O.2   231  TRP231     -0.2867
    113  CB        43.3290  -27.8300   40.6190 C.3   231  TRP231      0.0550
    114  CG        43.9220  -26.4720   40.8160 C.ar  231  TRP231      0.0003
    115  CD1       44.4990  -25.9840   41.9500 C.ar  231  TRP231      0.0946
    116  CD2       44.0240  -25.4360   39.8350 C.ar  231  TRP231      0.0152
    117  NE1       44.9420  -24.6950   41.7450 N.ar  231  TRP231     -0.2442
    118  CE2       44.6670  -24.3370   40.4510 C.ar  231  TRP231      0.0810
    119  CE3       43.6350  -25.3300   38.5000 C.ar  231  TRP231      0.0012
    120  CZ2       44.9210  -23.1380   39.7760 C.ar  231  TRP231      0.0191
    121  CZ3       43.8830  -24.1330   37.8230 C.ar  231  TRP231      0.0001
    122  CH2       44.5240  -23.0570   38.4640 C.ar  231  TRP231      0.0015
    123  N         42.9590  -31.8490   35.9680 N.3   236  LEU236     -0.1231
    124  CA        44.2280  -31.7480   35.2510 C.3   236  LEU236      0.1693
    125  C         44.9660  -33.0950   35.1180 C.2   236  LEU236      0.2592
    126  O         45.1780  -33.7930   36.1100 O.2   236  LEU236     -0.2718
    127  CB        45.1370  -30.7420   35.9540 C.3   236  LEU236      0.0284
    128  CG        44.5620  -29.3410   36.1930 C.3   236  LEU236      0.0019
    129  CD1       45.5980  -28.4490   36.8580 C.3   236  LEU236      0.0001
    130  CD2       44.0920  -28.7230   34.8870 C.3   236  LEU236      0.0001
    131  N         45.3800  -33.4190   33.8930 N.am  237  HIS237     -0.1962
    132  CA        46.2510  -34.5570   33.6100 C.3   237  HIS237      0.1772
    133  C         47.5640  -34.0060   33.0340 C.2   237  HIS237      0.2462
    134  O         47.6170  -32.8510   32.6240 O.2   237  HIS237     -0.2730
    135  CB        45.5660  -35.5120   32.6120 C.3   237  HIS237      0.0785
    136  CG        44.2740  -36.0880   33.1170 C.ar  237  HIS237      0.0821
    137  ND1       44.1170  -37.4280   33.4060 N.ar  237  HIS237     -0.2267
    138  CD2       43.0880  -35.5030   33.4040 C.ar  237  HIS237      0.1154
    139  CE1       42.8870  -37.6420   33.8410 C.ar  237  HIS237      0.1986
    140  NE2       42.2400  -36.4920   33.8480 N.ar  237  HIS237     -0.2212
    141  N         48.6330  -34.8180   33.0050 N.am  238  PRO238     -0.2727
    142  CA        49.9040  -34.3160   32.4570 C.3   238  PRO238      0.1402
    143  C         49.8480  -33.9350   30.9710 C.2   238  PRO238      0.2269
    144  O         50.7030  -33.1650   30.5160 O.2   238  PRO238     -0.2865
    145  CB        50.8600  -35.5070   32.6360 C.3   238  PRO238      0.0296
    146  CG        50.2520  -36.3230   33.7360 C.3   238  PRO238      0.0237
    147  CD        48.7670  -36.1830   33.5500 C.3   238  PRO238      0.0939
    148  N         47.2460  -28.7950   25.8460 N.3   320  TYR320     -0.1241
    149  CA        48.0620  -27.7650   26.4730 C.3   320  TYR320      0.1605
    150  C         48.7760  -26.9920   25.3930 C.2   320  TYR320      0.2264
    151  O         48.8060  -27.3970   24.2280 O.2   320  TYR320     -0.2867
    152  CB        49.0910  -28.3930   27.4420 C.3   320  TYR320      0.0534
    153  CG        48.4730  -28.8990   28.7240 C.ar  320  TYR320     -0.0201
    154  CD1       47.6360  -28.0920   29.4720 C.ar  320  TYR320     -0.0009
    155  CD2       48.7180  -30.2030   29.1800 C.ar  320  TYR320     -0.0009
    156  CE1       47.0490  -28.5510   30.6410 C.ar  320  TYR320      0.0417
    157  CE2       48.1320  -30.6790   30.3540 C.ar  320  TYR320      0.0417
    158  CZ        47.3060  -29.8560   31.0750 C.ar  320  TYR320      0.1957
    159  OH        46.7330  -30.3070   32.2390 O.3   320  TYR320     -0.2866
@<TRIPOS>BOND
     1   151   150    2
     2   150   149    1
     3   148   149    1
     4   149   152    1
     5   152   153    1
     6    21    22    1
     7    21    20    1
     8    22    23    1
     9    11    10    2
    10   153   155   ar
    11   153   154   ar
    12    17    20    1
    13    17    18    1
    14    17    16    1
    15   155   157   ar
    16    18    19    2
    17   154   156   ar
    18    10    16   am
    19    10     9    1
    20    23    24    1
    21   157   158   ar
    22     8     9    1
    23    25    26    1
    24   144   143    2
    25   156   158   ar
    26     9    12    1
    27   143   142    1
    28   158   159    1
    29    26    27    1
    30    26    29    1
    31    27    28    2
    32    33    32    1
    33    12    13    1
    34    31    32    1
    35    31    30    1
    36   142   145    1
    37   142   141    1
    38   135   136    1
    39   135   132    1
    40   134   133    2
    41   145   146    1
    42    29    30    1
    43   141   133   am
    44   141   147    1
    45    13    14    1
    46    13    15    1
    47   133   132    1
    48   136   138   ar
    49   136   137   ar
    50   138   140   ar
    51   137   139   ar
    52   147   146    1
    53   132   131    1
    54   139   140   ar
    55   131   125   am
    56    46    45    1
    57   130   128    1
    58     3     2    1
    59     3     4    2
    60   125   124    1
    61   125   126    2
    62   124   127    1
    63   124   123    1
    64    47    45    1
    65     2     5    1
    66     2     1    1
    67     5     6    1
    68    45    42    1
    69    40    38    1
    70   127   128    1
    71    89    90    2
    72    89    88    1
    73   128   129    1
    74    88    87    1
    75    41    42    1
    76     1     7    1
    77    42    43    1
    78    34    35    1
    79     6     7    1
    80    38    35    1
    81    38    39    1
    82    95    96    1
    83    95    92    1
    84   121   122   ar
    85   121   119   ar
    86    35    36    1
    87    87    82   am
    88    96    97    1
    89    43    44    2
    90    43    48   am
    91   122   120   ar
    92   119   116   ar
    93    93    94    2
    94    93    92    1
    95   101   100    2
    96    92    91    1
    97    98    99    1
    98    48    49    1
    99    82    83    2
   100    82    81    1
   101   112   111    2
   102   105   107   ar
   103   105   103   ar
   104    36    37    2
   105   107   108   ar
   106    97    91    1
   107    51    50    2
   108    60    61    1
   109    60    57    1
   110   120   118   ar
   111   116   118   ar
   112   116   114   ar
   113    62    61   ar
   114    62    64   ar
   115   100    99    1
   116    61    63   ar
   117   102    99    1
   118   102   103    1
   119   103   104   ar
   120    50    49    1
   121    50    56   am
   122    64    66   ar
   123    49    52    1
   124    81    80    1
   125    81    84    1
   126    63    65   ar
   127   108   106   ar
   128   111   110    1
   129   118   117   ar
   130    66    65   ar
   131    66    67    1
   132    56    57    1
   133   113   114    1
   134   113   110    1
   135    85    84    1
   136   109   110    1
   137    57    58    1
   138   114   115   ar
   139    71    70    2
   140    80    70   am
   141    72    73    1
   142    72    69    1
   143    70    69    1
   144   104   106   ar
   145    84    86    1
   146    74    73   ar
   147    74    76   ar
   148    52    53    1
   149    52    54    1
   150    53    55    1
   151    73    75   ar
   152   117   115   ar
   153    69    68    1
   154    76    78   ar
   155    58    59    2
   156    75    77   ar
   157    78    77   ar
   158    78    79    1
