@<TRIPOS>MOLECULE
tmp/4koaA00.pdb
 194 184 0 0 0
SMALL
GASTEIGER

@<TRIPOS>ATOM
      1  N         17.9830   34.6640   -9.9260 N.3     8  GLY8       -0.1210
      2  CA        18.4440   34.1850   -8.6180 C.3     8  GLY8        0.1956
      3  C         19.9070   34.4470   -8.4170 C.2     8  GLY8        0.2612
      4  O         20.7260   33.9090   -9.1010 O.2     8  GLY8       -0.2717
      5  N         20.2410   35.2970   -7.4620 N.am    9  ALA9       -0.1965
      6  CA        21.6270   35.5920   -7.1360 C.3     9  ALA9        0.1728
      7  C         22.0270   34.5820   -6.0550 C.2     9  ALA9        0.2617
      8  O         22.0620   34.8780   -4.8400 O.2     9  ALA9       -0.2715
      9  CB        21.7600   37.0060   -6.6350 C.3     9  ALA9        0.0334
     10  N         22.3340   33.3940   -6.5190 N.am   10  SER10      -0.1936
     11  CA        22.4130   32.1940   -5.6700 C.3    10  SER10       0.2055
     12  C         23.8120   31.7330   -5.3790 C.2    10  SER10       0.2644
     13  O         24.7560   32.1250   -6.0500 O.2    10  SER10      -0.2714
     14  CB        21.6650   31.0890   -6.3870 C.3    10  SER10       0.2130
     15  OG        22.3390   30.7440   -7.5860 O.3    10  SER10      -0.2179
     16  N         23.9770   30.8680   -4.3720 N.am   11  THR11      -0.1936
     17  CA        25.3020   30.3000   -4.0930 C.3    11  THR11       0.2028
     18  C         25.6850   29.2480   -5.1370 C.2    11  THR11       0.2642
     19  O         26.8660   29.0990   -5.4360 O.2    11  THR11      -0.2714
     20  CB        25.4470   29.7430   -2.6420 C.3    11  THR11       0.1808
     21  OG1       26.8200   29.4120   -2.3750 O.3    11  THR11      -0.2208
     22  CG2       24.6130   28.5040   -2.4260 C.3    11  THR11       0.0379
     23  N         24.7240   28.5330   -5.7290 N.am   12  ILE12      -0.1977
     24  CA        25.0990   27.6130   -6.7840 C.3    12  ILE12       0.1596
     25  C         25.6050   28.3780   -8.0490 C.2    12  ILE12       0.2287
     26  O         26.6030   27.9600   -8.6810 O.2    12  ILE12      -0.2864
     27  CB        23.9610   26.6050   -7.1240 C.3    12  ILE12       0.0276
     28  CG1       24.4020   25.5710   -8.1250 C.3    12  ILE12       0.0022
     29  CG2       22.7330   27.3050   -7.6680 C.3    12  ILE12       0.0022
     30  CD1       23.5850   24.3020   -8.0160 C.3    12  ILE12       0.0001
     31  N         19.2100   38.9860  -11.9860 N.3    32  MET32      -0.1230
     32  CA        17.9860   39.4140  -11.3250 C.3    32  MET32       0.1702
     33  C         17.9170   38.8230   -9.9070 C.2    32  MET32       0.2593
     34  O         18.1570   37.6100   -9.6580 O.2    32  MET32      -0.2718
     35  CB        16.7460   39.0300  -12.1360 C.3    32  MET32       0.0401
     36  CG        15.4020   39.4370  -11.5340 C.3    32  MET32       0.0596
     37  SD        14.7120   38.3150  -10.2770 S.3    32  MET32      -0.1393
     38  CE        13.1980   39.1540   -9.7730 C.3    32  MET32       0.0692
     39  N         17.6790   39.7400   -8.9610 N.am   33  SER33      -0.1938
     40  CA        17.4990   39.4270   -7.5540 C.3    33  SER33       0.2055
     41  C         16.2960   40.1960   -7.1150 C.2    33  SER33       0.2643
     42  O         16.0840   41.3220   -7.6050 O.2    33  SER33      -0.2714
     43  CB        18.6960   39.9230   -6.7530 C.3    33  SER33       0.2130
     44  OG        18.4490   39.7630   -5.3420 O.3    33  SER33      -0.2179
     45  N         15.4680   39.6230   -6.2250 N.am   34  SER34      -0.1949
     46  CA        14.3270   40.3590   -5.6610 C.3    34  SER34       0.1924
     47  C         14.7970   41.5920   -4.8990 C.2    34  SER34       0.2314
     48  O         14.0390   42.5380   -4.7240 O.2    34  SER34      -0.2863
     49  CB        13.5160   39.4890   -4.6980 C.3    34  SER34       0.2116
     50  OG        14.3650   38.9720   -3.7030 O.3    34  SER34      -0.2180
     51  N         21.1320   43.3230   -2.7390 N.3    38  ARG38      -0.1245
     52  CA        21.7650   42.0110   -2.9160 C.3    38  ARG38       0.1563
     53  C         22.2460   41.8390   -4.3790 C.2    38  ARG38       0.2260
     54  O         23.3950   41.4600   -4.6280 O.2    38  ARG38      -0.2867
     55  CB        20.7700   40.8940   -2.5170 C.3    38  ARG38       0.0307
     56  CG        21.3760   39.5360   -2.1900 C.3    38  ARG38       0.0489
     57  CD        20.5220   38.7230   -1.2060 C.3    38  ARG38       0.2205
     58  NE        19.2370   38.4020   -1.8070 N.pl3  38  ARG38      -0.0865
     59  CZ        18.0430   38.7300   -1.3230 C.cat  38  ARG38       0.5346
     60  NH1       17.9190   39.3480   -0.1550 N.pl3  38  ARG38       0.1354
     61  NH2       16.9470   38.3970   -1.9940 N.pl3  38  ARG38       0.1354
     62  N         17.9210   29.7290  -10.6360 N.3    70  SER70      -0.1202
     63  CA        18.2700   29.0360   -9.3960 C.3    70  SER70       0.2020
     64  C         17.6620   29.6800   -8.1220 C.2    70  SER70       0.2619
     65  O         18.2660   29.6450   -7.0500 O.2    70  SER70      -0.2717
     66  CB        19.7810   28.9790   -9.3370 C.3    70  SER70       0.2103
     67  OG        20.3500   30.2670   -9.2190 O.3    70  SER70      -0.2182
     68  N         16.4520   30.2190   -8.2550 N.am   71  THR71      -0.1938
     69  CA        15.7110   30.8210   -7.1710 C.3    71  THR71       0.2028
     70  C         15.0840   29.7440   -6.2850 C.2    71  THR71       0.2643
     71  O         15.2560   28.5490   -6.5370 O.2    71  THR71      -0.2714
     72  CB        14.6020   31.6570   -7.7810 C.3    71  THR71       0.1808
     73  OG1       13.9990   30.9110   -8.8280 O.3    71  THR71      -0.2208
     74  CG2       15.1850   32.9140   -8.3910 C.3    71  THR71       0.0379
     75  N         14.3230   30.1570   -5.2700 N.am   72  THR72      -0.1936
     76  CA        13.6360   29.1890   -4.4280 C.3    72  THR72       0.2028
     77  C         12.6790   28.3590   -5.3040 C.2    72  THR72       0.2642
     78  O         12.1580   28.8410   -6.3300 O.2    72  THR72      -0.2714
     79  CB        12.8590   29.8470   -3.2570 C.3    72  THR72       0.1808
     80  OG1       11.7660   30.5710   -3.7870 O.3    72  THR72      -0.2208
     81  CG2       13.7060   30.8220   -2.5100 C.3    72  THR72       0.0379
     82  N         12.4860   27.1010   -4.9220 N.am   73  ASN73      -0.1971
     83  CA        11.8180   26.1290   -5.7870 C.3    73  ASN73       0.1688
     84  C         10.4770   26.5480   -6.3350 C.2    73  ASN73       0.2292
     85  O         10.1760   26.3010   -7.5190 O.2    73  ASN73      -0.2864
     86  CB        11.5700   24.8070   -5.0780 C.3    73  ASN73       0.1181
     87  CG        12.8160   24.0520   -4.7540 C.2    73  ASN73       0.2629
     88  OD1       13.9240   24.3250   -5.2290 O.2    73  ASN73      -0.2716
     89  ND2       12.6370   23.1020   -3.8770 N.am   73  ASN73      -0.0877
     90  N         10.3610   28.6790   -9.7180 N.3    76  HIS76      -0.1241
     91  CA        10.8820   28.1350  -10.9910 C.3    76  HIS76       0.1621
     92  C          9.8990   28.1340  -12.1520 C.2    76  HIS76       0.2264
     93  O         10.2150   28.6300  -13.2260 O.2    76  HIS76      -0.2867
     94  CB        11.4900   26.7340  -10.8100 C.3    76  HIS76       0.0745
     95  CG        12.7160   26.7140   -9.9440 C.ar   76  HIS76       0.0817
     96  ND1       13.4910   25.5820   -9.7800 N.ar   76  HIS76      -0.2268
     97  CD2       13.3170   27.6860   -9.2120 C.ar   76  HIS76       0.1154
     98  CE1       14.5190   25.8550   -9.0010 C.ar   76  HIS76       0.1986
     99  NE2       14.4580   27.1310   -8.6620 N.ar   76  HIS76      -0.2212
    100  N         17.4440   24.9580  -12.6640 N.3    93  GLU93      -0.1231
    101  CA        17.7690   24.0650  -11.5710 C.3    93  GLU93       0.1699
    102  C         16.5470   23.3030  -11.2140 C.2    93  GLU93       0.2592
    103  O         15.4580   23.8640  -11.2250 O.2    93  GLU93      -0.2718
    104  CB        18.1690   24.7980  -10.3150 C.3    93  GLU93       0.0402
    105  CG        19.6000   25.1690  -10.2420 C.3    93  GLU93       0.1161
    106  CD        20.6220   24.0300  -10.3550 C.2    93  GLU93       0.3649
    107  OE1       20.6920   23.0410   -9.5370 O.co2  93  GLU93      -0.2457
    108  OE2       21.4130   24.2300  -11.2800 O.co2  93  GLU93      -0.2457
    109  N         16.7090   22.0370  -10.8590 N.am   94  LYS94      -0.1980
    110  CA        15.5370   21.3150  -10.3910 C.3    94  LYS94       0.1596
    111  C         14.8800   22.0540   -9.1950 C.2    94  LYS94       0.2287
    112  O         15.5530   22.6870   -8.3770 O.2    94  LYS94      -0.2864
    113  CB        15.9140   19.8610  -10.0360 C.3    94  LYS94       0.0298
    114  CG        16.6060   19.7500   -8.7120 C.3    94  LYS94       0.0038
    115  CD        15.5960   19.6240   -7.5730 C.3    94  LYS94       0.0206
    116  CE        16.2960   19.2070   -6.3100 C.3    94  LYS94       0.1093
    117  NZ        16.8600   20.4230   -5.6910 N.3    94  LYS94      -0.1314
    118  N         23.5430   17.8830    6.0350 N.3   155  LEU155     -0.1245
    119  CA        23.2350   19.2440    5.6560 C.3   155  LEU155      0.1561
    120  C         22.6780   19.8820    6.9000 C.2   155  LEU155      0.2260
    121  O         21.5230   19.6470    7.2010 O.2   155  LEU155     -0.2867
    122  CB        22.1990   19.3470    4.5460 C.3   155  LEU155      0.0270
    123  CG        22.6240   19.4790    3.0860 C.3   155  LEU155      0.0019
    124  CD1       21.4000   19.7720    2.2410 C.3   155  LEU155      0.0001
    125  CD2       23.6560   20.5740    2.8490 C.3   155  LEU155      0.0001
    126  N         20.4160   27.0000    6.4390 N.3   159  LEU159     -0.1231
    127  CA        21.5630   27.7610    5.8920 C.3   159  LEU159      0.1693
    128  C         21.3620   27.9470    4.3660 C.2   159  LEU159      0.2591
    129  O         20.6550   27.1330    3.7580 O.2   159  LEU159     -0.2718
    130  CB        22.8950   27.0320    6.1820 C.3   159  LEU159      0.0284
    131  CG        23.3910   25.8890    5.2810 C.3   159  LEU159      0.0019
    132  CD1       24.8040   25.5050    5.7000 C.3   159  LEU159      0.0001
    133  CD2       22.4660   24.6760    5.3050 C.3   159  LEU159      0.0001
    134  N         21.8970   28.9910    3.7150 N.am  160  GLN160     -0.1979
    135  CA        22.4190   30.2670    4.2690 C.3   160  GLN160      0.1601
    136  C         23.7970   30.2310    4.9880 C.2   160  GLN160      0.2287
    137  O         24.6250   29.3710    4.6780 O.2   160  GLN160     -0.2864
    138  CB        21.3320   31.0050    5.0770 C.3   160  GLN160      0.0394
    139  CG        21.3030   32.5080    4.8110 C.3   160  GLN160      0.0908
    140  CD        20.3610   32.8970    3.6870 C.2   160  GLN160      0.2608
    141  OE1       19.4370   33.6810    3.8950 O.2   160  GLN160     -0.2717
    142  NE2       20.5820   32.3460    2.4940 N.am  160  GLN160     -0.0878
    143  N         19.0320   31.7630    9.3600 N.3   165  ASP165     -0.1225
    144  CA        18.3310   32.9520    8.8340 C.3   165  ASP165      0.1805
    145  C         16.8410   32.7920    8.4280 C.2   165  ASP165      0.2597
    146  O         15.9690   32.6070    9.2930 O.2   165  ASP165     -0.2718
    147  CB        19.1530   33.5630    7.6750 C.3   165  ASP165      0.1424
    148  CG        20.4680   34.1870    8.1390 C.2   165  ASP165      0.3668
    149  OD1       20.8810   33.9400    9.2940 O.co2 165  ASP165     -0.2456
    150  OD2       21.0870   34.9310    7.3400 O.co2 165  ASP165     -0.2456
    151  N         16.5540   32.8770    7.1250 N.am  166  LYS166     -0.1979
    152  CA        15.1920   33.1800    6.6450 C.3   166  LYS166      0.1596
    153  C         14.2790   31.9580    6.7450 C.2   166  LYS166      0.2287
    154  O         14.7720   30.8270    6.6770 O.2   166  LYS166     -0.2864
    155  CB        15.2260   33.7300    5.2040 C.3   166  LYS166      0.0298
    156  CG        15.3120   35.2520    5.0990 C.3   166  LYS166      0.0038
    157  CD        16.6670   35.8250    5.5220 C.3   166  LYS166      0.0206
    158  CE        16.7780   36.1390    7.0150 C.3   166  LYS166      0.1093
    159  NZ        15.7740   37.0990    7.5430 N.3   166  LYS166     -0.1314
    160  N         12.7510   29.8440    5.1540 N.3   168  GLU168     -0.1245
    161  CA        13.1690   28.6950    4.3170 C.3   168  GLU168      0.1567
    162  C         12.1500   27.5410    4.3470 C.2   168  GLU168      0.2260
    163  O         12.2410   26.6330    5.1790 O.2   168  GLU168     -0.2867
    164  CB        14.5910   28.2180    4.6840 C.3   168  GLU168      0.0388
    165  CG        15.6960   28.9720    3.9480 C.3   168  GLU168      0.1160
    166  CD        17.1010   28.7120    4.4870 C.2   168  GLU168      0.3649
    167  OE1       17.3800   27.5950    4.9810 O.co2 168  GLU168     -0.2457
    168  OE2       17.9410   29.6370    4.4010 O.co2 168  GLU168     -0.2457
    169  N         14.4320   17.2970   -2.5360 N.3   176  ASP176     -0.1225
    170  CA        15.7460   17.9040   -2.7370 C.3   176  ASP176      0.1805
    171  C         16.8790   16.9570   -3.1770 C.2   176  ASP176      0.2597
    172  O         17.8150   17.4100   -3.8390 O.2   176  ASP176     -0.2718
    173  CB        16.2030   18.5810   -1.4710 C.3   176  ASP176      0.1424
    174  CG        15.5120   19.9070   -1.2120 C.2   176  ASP176      0.3668
    175  OD1       14.8140   20.4980   -2.0990 O.co2 176  ASP176     -0.2456
    176  OD2       15.7550   20.3370   -0.0590 O.co2 176  ASP176     -0.2456
    177  N         16.8390   15.6910   -2.7550 N.am  177  ILE177     -0.1980
    178  CA        17.9140   14.7260   -3.1040 C.3   177  ILE177      0.1595
    179  C         17.4070   13.5900   -3.9520 C.2   177  ILE177      0.2287
    180  O         17.9690   13.2730   -4.9980 O.2   177  ILE177     -0.2864
    181  CB        18.6140   14.2200   -1.8260 C.3   177  ILE177      0.0276
    182  CG1       19.1460   15.4450   -1.0480 C.3   177  ILE177      0.0022
    183  CG2       19.7610   13.2800   -2.1580 C.3   177  ILE177      0.0022
    184  CD1       19.8680   15.0940    0.2560 C.3   177  ILE177      0.0001
    185  N         17.4440   13.9270   -7.8050 N.3   180  HIS180     -0.1241
    186  CA        18.7210   13.7480   -8.4420 C.3   180  HIS180      0.1621
    187  C         19.1310   12.2820   -8.5530 C.2   180  HIS180      0.2264
    188  O         19.6440   11.8670   -9.5600 O.2   180  HIS180     -0.2867
    189  CB        19.8190   14.5120   -7.6450 C.3   180  HIS180      0.0745
    190  CG        19.7550   15.9870   -7.7940 C.ar  180  HIS180      0.0817
    191  ND1       19.8390   16.5990   -9.0140 N.ar  180  HIS180     -0.2268
    192  CD2       19.6710   16.9840   -6.8820 C.ar  180  HIS180      0.1154
    193  CE1       19.8050   17.9060   -8.8600 C.ar  180  HIS180      0.1986
    194  NE2       19.7220   18.1720   -7.5810 N.ar  180  HIS180     -0.2212
@<TRIPOS>BOND
     1    93    92    2
     2   100   101    1
     3    92    91    1
     4    35    36    1
     5    35    32    1
     6    31    32    1
     7   101   102    1
     8   101   104    1
     9    36    37    1
    10    32    33    1
    11   108   106   ar
    12   103   102    2
    13   102   109   am
    14    91    94    1
    15    91    90    1
    16   109   110    1
    17    94    95    1
    18    62    63    1
    19   110   113    1
    20   110   111    1
    21   106   105    1
    22   106   107   ar
    23   104   105    1
    24    37    38    1
    25   113   114    1
    26    95    96   ar
    27    95    97   ar
    28     1     2    1
    29    33    34    2
    30    33    39   am
    31    96    98   ar
    32   188   187    2
    33    63    66    1
    34    63    64    1
    35    66    67    1
    36    97    99   ar
    37   111   112    2
    38     4     3    2
    39   191   193   ar
    40   191   190   ar
    41    98    99   ar
    42    39    40    1
    43   193   194   ar
    44    73    72    1
    45   114   115    1
    46    26    25    2
    47     2     3    1
    48   187   186    1
    49   186   185    1
    50   186   189    1
    51     3     5   am
    52    74    72    1
    53    68    64   am
    54    68    69    1
    55    28    30    1
    56    28    27    1
    57    64    65    2
    58    25    24    1
    59   190   189    1
    60   190   192   ar
    61    72    69    1
    62    29    27    1
    63    42    41    2
    64    15    14    1
    65   194   192   ar
    66   115   116    1
    67    40    41    1
    68    40    43    1
    69    85    84    2
    70     5     6    1
    71    69    70    1
    72     6     9    1
    73     6     7    1
    74    27    24    1
    75    41    45   am
    76    24    23    1
    77    43    44    1
    78    71    70    2
    79    10     7   am
    80    10    11    1
    81    14    11    1
    82    84    83    1
    83    78    77    2
    84   116   117    1
    85    70    75   am
    86    45    46    1
    87     7     8    2
    88    13    12    2
    89    83    86    1
    90    83    82    1
    91    23    18   am
    92    11    12    1
    93    46    47    1
    94    46    49    1
    95    19    18    2
    96    12    16   am
    97    77    82   am
    98    77    76    1
    99    75    76    1
   100    88    87    2
   101    18    17    1
   102    86    87    1
   103   180   179    2
   104    47    48    2
   105    87    89   am
   106    49    50    1
   107    54    53    2
   108    76    79    1
   109    53    52    1
   110    16    17    1
   111    17    20    1
   112   179   178    1
   113   172   171    2
   114    80    79    1
   115    79    81    1
   116   171   177   am
   117   171   170    1
   118   178   177    1
   119   178   181    1
   120    52    51    1
   121    52    55    1
   122   170   169    1
   123   170   173    1
   124    20    22    1
   125    20    21    1
   126    55    56    1
   127    56    57    1
   128   183   181    1
   129   175   174   ar
   130    61    59    1
   131   181   182    1
   132    58    59    2
   133    58    57    1
   134   173   174    1
   135    59    60    1
   136   174   176   ar
   137   182   184    1
   138   124   123    1
   139   142   140   am
   140   125   123    1
   141   123   122    1
   142   140   141    2
   143   140   139    1
   144   134   135    1
   145   134   128   am
   146   129   128    2
   147   165   166    1
   148   165   164    1
   149   135   136    1
   150   135   138    1
   151   161   162    1
   152   161   164    1
   153   161   160    1
   154   162   163    2
   155   128   127    1
   156   168   166   ar
   157   166   167   ar
   158   122   119    1
   159   137   136    2
   160   139   138    1
   161   156   155    1
   162   156   157    1
   163   155   152    1
   164   131   133    1
   165   131   132    1
   166   131   130    1
   167   157   158    1
   168   119   118    1
   169   119   120    1
   170   127   130    1
   171   127   126    1
   172   152   153    1
   173   152   151    1
   174   154   153    2
   175   120   121    2
   176   158   159    1
   177   151   145   am
   178   150   148   ar
   179   147   148    1
   180   147   144    1
   181   148   149   ar
   182   145   144    1
   183   145   146    2
   184   144   143    1
