@<TRIPOS>MOLECULE
tmp/4korA00.pdb
 144 141 0 0 0
SMALL
GASTEIGER

@<TRIPOS>ATOM
      1  N         18.1240    4.5600    2.1420 N.3    28  TYR28      -0.1227
      2  CA        18.8380    4.9480    3.3420 C.3    28  TYR28       0.1736
      3  C         18.0680    5.9000    4.2010 C.2    28  TYR28       0.2596
      4  O         18.2250    5.8340    5.4260 O.2    28  TYR28      -0.2718
      5  CB        20.2060    5.5540    3.0060 C.3    28  TYR28       0.0548
      6  CG        21.1310    4.6860    2.1650 C.ar   28  TYR28      -0.0200
      7  CD1       21.0740    3.3110    2.2160 C.ar   28  TYR28      -0.0009
      8  CD2       22.0500    5.2710    1.3090 C.ar   28  TYR28      -0.0009
      9  CE1       21.8620    2.5020    1.3920 C.ar   28  TYR28       0.0417
     10  CE2       22.9240    4.4810    0.5300 C.ar   28  TYR28       0.0417
     11  CZ        22.7660    3.1080    0.5450 C.ar   28  TYR28       0.1957
     12  OH        23.6050    2.3950   -0.3080 O.3    28  TYR28      -0.2866
     13  N         17.2320    6.7640    3.6240 N.am   29  CYS29      -0.1956
     14  CA        16.5100    7.7530    4.4050 C.3    29  CYS29       0.1843
     15  C         15.0500    7.3840    4.6470 C.2    29  CYS29       0.2625
     16  O         14.3900    8.0410    5.4620 O.2    29  CYS29      -0.2714
     17  CB        16.5850    9.1400    3.7370 C.3    29  CYS29       0.0997
     18  SG        15.7070    9.3460    2.2100 S.3    29  CYS29      -0.0797
     19  N         14.5460    6.3750    3.9730 N.am   30  TYR30      -0.1960
     20  CA        13.1370    5.9990    4.0950 C.3    30  TYR30       0.1756
     21  C         12.9780    4.5940    3.5330 C.2    30  TYR30       0.2461
     22  O         12.4530    4.3960    2.4280 O.2    30  TYR30      -0.2730
     23  CB        12.2620    7.0200    3.3380 C.3    30  TYR30       0.0574
     24  CG        10.7810    6.9160    3.6230 C.ar   30  TYR30      -0.0198
     25  CD1       10.2660    5.9710    4.5130 C.ar   30  TYR30      -0.0009
     26  CD2        9.8910    7.7890    3.0330 C.ar   30  TYR30      -0.0009
     27  CE1        8.9440    5.8620    4.8080 C.ar   30  TYR30       0.0417
     28  CE2        8.4890    7.6600    3.2900 C.ar   30  TYR30       0.0417
     29  CZ         8.0400    6.6760    4.1870 C.ar   30  TYR30       0.1957
     30  OH         6.7090    6.5050    4.5310 O.3    30  TYR30      -0.2866
     31  N         13.4090    3.5750    4.2860 N.am   31  PRO31      -0.2727
     32  CA        13.4530    2.2390    3.7060 C.3    31  PRO31       0.1402
     33  C         12.0970    1.6370    3.3390 C.2    31  PRO31       0.2269
     34  O         12.0630    0.7580    2.5060 O.2    31  PRO31      -0.2865
     35  CB        14.2050    1.4110    4.7700 C.3    31  PRO31       0.0296
     36  CG        14.0400    2.2010    6.0390 C.3    31  PRO31       0.0237
     37  CD        14.0970    3.6250    5.5820 C.3    31  PRO31       0.0939
     38  N          4.1540   10.6520   11.3160 N.3    49  ARG49      -0.1245
     39  CA         5.3510   10.9600   12.0960 C.3    49  ARG49       0.1563
     40  C          5.1360   12.2580   12.8640 C.2    49  ARG49       0.2260
     41  O          4.0120   12.7730   12.9160 O.2    49  ARG49      -0.2867
     42  CB         6.5510   11.0170   11.1350 C.3    49  ARG49       0.0307
     43  CG         6.9380    9.6730   10.5770 C.3    49  ARG49       0.0489
     44  CD         8.1240    9.7480    9.7010 C.3    49  ARG49       0.2205
     45  NE         8.4390    8.4810    9.0910 N.pl3  49  ARG49      -0.0865
     46  CZ         9.6530    8.0440    8.8120 C.cat  49  ARG49       0.5346
     47  NH1       10.7160    8.7670    9.1210 N.pl3  49  ARG49       0.1354
     48  NH2        9.8070    6.8870    8.2410 N.pl3  49  ARG49       0.1354
     49  N         10.4110    9.2990   13.6270 N.3    68  TYR68      -0.1241
     50  CA         9.5410    8.1680   13.4120 C.3    68  TYR68       0.1605
     51  C          9.1440    7.4310   14.6790 C.2    68  TYR68       0.2264
     52  O          8.2360    6.5870   14.6460 O.2    68  TYR68      -0.2867
     53  CB        10.0060    7.2040   12.3480 C.3    68  TYR68       0.0534
     54  CG        11.2300    6.4300   12.7160 C.ar   68  TYR68      -0.0201
     55  CD1       12.4680    6.9420   12.5160 C.ar   68  TYR68      -0.0009
     56  CD2       11.1480    5.1860   13.3560 C.ar   68  TYR68      -0.0009
     57  CE1       13.5980    6.2220   12.8940 C.ar   68  TYR68       0.0417
     58  CE2       12.2490    4.5030   13.7130 C.ar   68  TYR68       0.0417
     59  CZ        13.4690    5.0250   13.4830 C.ar   68  TYR68       0.1957
     60  OH        14.5990    4.3230   13.8330 O.3    68  TYR68      -0.2866
     61  N         15.2030    9.6780   15.0810 N.3    78  LEU78      -0.1231
     62  CA        15.2890   10.6050   13.9470 C.3    78  LEU78       0.1693
     63  C         15.1370    9.8330   12.6720 C.2    78  LEU78       0.2593
     64  O         15.7620    8.8160   12.4930 O.2    78  LEU78      -0.2718
     65  CB        16.6680   11.2390   13.9590 C.3    78  LEU78       0.0284
     66  CG        16.9300   12.1870   12.7830 C.3    78  LEU78       0.0019
     67  CD1       16.3520   13.5370   13.1680 C.3    78  LEU78       0.0001
     68  CD2       18.4270   12.2690   12.4500 C.3    78  LEU78       0.0001
     69  N         14.3490   10.3780   11.7600 N.am   79  GLY79      -0.1942
     70  CA        14.0900    9.7620   10.4830 C.3    79  GLY79       0.2014
     71  C         14.1020   10.7170    9.3190 C.2    79  GLY79       0.2639
     72  O         14.1050   11.9230    9.4820 O.2    79  GLY79      -0.2714
     73  N         14.0640   10.1190    8.1280 N.am   80  ASN80      -0.1958
     74  CA        13.8400   10.8540    6.8950 C.3    80  ASN80       0.1819
     75  C         14.8190   12.0130    6.7360 C.2    80  ASN80       0.2621
     76  O         14.4310   13.0890    6.2370 O.2    80  ASN80      -0.2715
     77  CB        12.3980   11.3840    6.7650 C.3    80  ASN80       0.1195
     78  CG        11.3150   10.3330    6.4650 C.2    80  ASN80       0.2630
     79  OD1       10.1550   10.6750    6.6000 O.2    80  ASN80      -0.2716
     80  ND2       11.6660    9.1520    5.9930 N.am   80  ASN80      -0.0877
     81  N         16.0840   11.8070    7.0550 N.am   81  MET81      -0.1977
     82  CA        17.0800   12.8530    6.9380 C.3    81  MET81       0.1605
     83  C         17.4860   12.9780    5.4730 C.2    81  MET81       0.2287
     84  O         18.1140   12.0810    4.9270 O.2    81  MET81      -0.2864
     85  CB        18.2840   12.4920    7.8180 C.3    81  MET81       0.0413
     86  CG        19.4190   13.5090    7.8440 C.3    81  MET81       0.0598
     87  SD        19.0500   15.0760    8.7050 S.3    81  MET81      -0.1393
     88  CE        18.9860   16.0150    7.3130 C.3    81  MET81       0.0692
     89  N         19.2990    7.0680   16.3310 N.3   115  ILE115     -0.1231
     90  CA        19.4320    7.1610   14.8690 C.3   115  ILE115      0.1692
     91  C         19.8850    5.8030   14.3860 C.2   115  ILE115      0.2592
     92  O         20.8490    5.2570   14.9250 O.2   115  ILE115     -0.2718
     93  CB        20.4520    8.2210   14.4410 C.3   115  ILE115      0.0266
     94  CG1       20.0950    9.6110   14.9610 C.3   115  ILE115      0.0019
     95  CG2       20.6220    8.2290   12.9180 C.3   115  ILE115      0.0020
     96  CD1       21.0980   10.7020   14.5400 C.3   115  ILE115      0.0001
     97  N         19.2250    5.2630   13.3830 N.am  116  SER116     -0.1952
     98  CA        19.6130    4.0510   12.7060 C.3   116  SER116      0.1924
     99  C         20.1420    4.3910   11.3190 C.2   116  SER116      0.2314
    100  O         19.5350    5.2100   10.6330 O.2   116  SER116     -0.2863
    101  CB        18.4810    3.0880   12.6280 C.3   116  SER116      0.2116
    102  OG        18.1450    2.5850   13.9070 O.3   116  SER116     -0.2180
    103  N         21.9020    2.6940    7.7060 N.3   118  PHE118     -0.1241
    104  CA        22.2980    1.5550    6.9290 C.3   118  PHE118      0.1605
    105  C         23.8040    1.5450    6.6560 C.2   118  PHE118      0.2264
    106  O         24.4430    2.5850    6.5010 O.2   118  PHE118     -0.2867
    107  CB        21.5150    1.4640    5.6130 C.3   118  PHE118      0.0534
    108  CG        20.1050    1.0670    5.8350 C.ar  118  PHE118     -0.0203
    109  CD1       19.7650   -0.2300    6.0450 C.ar  118  PHE118     -0.0042
    110  CD2       19.0790    2.0100    5.9180 C.ar  118  PHE118     -0.0042
    111  CE1       18.4570   -0.6150    6.2790 C.ar  118  PHE118     -0.0003
    112  CE2       17.7810    1.6290    6.1450 C.ar  118  PHE118     -0.0003
    113  CZ        17.4550    0.3360    6.3330 C.ar  118  PHE118     -0.0000
    114  N         27.1030   11.1060   12.0970 N.3   128  TYR128     -0.1241
    115  CA        26.5090   10.8400   13.3900 C.3   128  TYR128      0.1605
    116  C         27.5830   10.6100   14.4190 C.2   128  TYR128      0.2264
    117  O         27.4510   11.0570   15.5420 O.2   128  TYR128     -0.2867
    118  CB        25.5290    9.6670   13.2940 C.3   128  TYR128      0.0534
    119  CG        24.4760    9.7790   12.1910 C.ar  128  TYR128     -0.0201
    120  CD1       23.9110   10.9720   11.8310 C.ar  128  TYR128     -0.0009
    121  CD2       24.0770    8.6740   11.4850 C.ar  128  TYR128     -0.0009
    122  CE1       23.0110   11.0460   10.7860 C.ar  128  TYR128      0.0417
    123  CE2       23.1870    8.7520   10.4640 C.ar  128  TYR128      0.0417
    124  CZ        22.6110    9.9140   10.1570 C.ar  128  TYR128      0.1957
    125  OH        21.7350    9.9810    9.0860 O.3   128  TYR128     -0.2866
    126  N         18.6310   -6.3620    7.9880 N.3   141  ARG141     -0.1245
    127  CA        17.5220   -5.9110    7.1690 C.3   141  ARG141      0.1563
    128  C         17.7660   -6.3740    5.7330 C.2   141  ARG141      0.2260
    129  O         18.8120   -6.9420    5.4170 O.2   141  ARG141     -0.2867
    130  CB        17.3620   -4.3790    7.2440 C.3   141  ARG141      0.0307
    131  CG        17.0490   -3.8430    8.6400 C.3   141  ARG141      0.0489
    132  CD        15.6310   -4.1330    9.0290 C.3   141  ARG141      0.2205
    133  NE        15.3150   -3.4940   10.2620 N.pl3 141  ARG141     -0.0865
    134  CZ        15.4500   -4.0440   11.4600 C.cat 141  ARG141      0.5346
    135  NH1       15.8810   -5.3090   11.5960 N.pl3 141  ARG141      0.1354
    136  NH2       15.0870   -3.2990   12.5470 N.pl3 141  ARG141      0.1354
    137  N         21.8330   -2.7240    9.5940 N.3   151  LEU151     -0.1245
    138  CA        21.2990   -1.4680   10.0980 C.3   151  LEU151      0.1561
    139  C         22.0040   -1.1770   11.4330 C.2   151  LEU151      0.2260
    140  O         21.8490   -1.9410   12.4130 O.2   151  LEU151     -0.2867
    141  CB        19.7990   -1.5320   10.2510 C.3   151  LEU151      0.0270
    142  CG        19.1040   -0.2660   10.7010 C.3   151  LEU151      0.0019
    143  CD1       19.2990    0.8610    9.6960 C.3   151  LEU151      0.0001
    144  CD2       17.6460   -0.5480   10.9810 C.3   151  LEU151      0.0001
@<TRIPOS>BOND
     1    12    11    1
     2    10    11   ar
     3    10     8   ar
     4    11     9   ar
     5     8     6   ar
     6     9     7   ar
     7     1     2    1
     8     6     7   ar
     9     6     5    1
    10    18    17    1
    11    22    21    2
    12    34    33    2
    13     5     2    1
    14    26    28   ar
    15    26    24   ar
    16    28    29   ar
    17    23    24    1
    18    23    20    1
    19    33    32    1
    20     2     3    1
    21    21    20    1
    22    21    31   am
    23    24    25   ar
    24    13     3   am
    25    13    14    1
    26    32    31    1
    27    32    35    1
    28    17    14    1
    29    19    20    1
    30    19    15   am
    31    29    30    1
    32    29    27   ar
    33     3     4    2
    34    31    37    1
    35    14    15    1
    36    25    27   ar
    37    15    16    2
    38    35    36    1
    39    84    83    2
    40   129   128    2
    41    83    82    1
    42    37    36    1
    43   107   108    1
    44   107   104    1
    45   128   127    1
    46   108   110   ar
    47   108   109   ar
    48   110   112   ar
    49    80    78   am
    50   109   111   ar
    51   112   113   ar
    52    76    75    2
    53   111   113   ar
    54    78    79    2
    55    78    77    1
    56   106   105    2
    57   105   104    1
    58    75    74    1
    59    75    81   am
    60    77    74    1
    61    74    73    1
    62   104   103    1
    63    82    81    1
    64    82    85    1
    65   127   130    1
    66   127   126    1
    67   130   131    1
    68    88    87    1
    69    85    86    1
    70    86    87    1
    71    73    71   am
    72    48    46    1
    73   131   132    1
    74    46    45    2
    75    46    47    1
    76   132   133    1
    77   125   124    1
    78    45    44    1
    79    71    72    2
    80    71    70    1
    81   137   138    1
    82   143   142    1
    83    44    43    1
    84   138   141    1
    85   138   139    1
    86   124   123   ar
    87   124   122   ar
    88   141   142    1
    89   133   134    2
    90   123   121   ar
    91    70    69    1
    92    43    42    1
    93   100    99    2
    94   142   144    1
    95   122   120   ar
    96    42    39    1
    97    38    39    1
    98    99    98    1
    99   139   140    2
   100   134   135    1
   101   134   136    1
   102   121   119   ar
   103    69    63   am
   104   120   119   ar
   105    39    40    1
   106   114   115    1
   107   119   118    1
   108    53    54    1
   109    53    50    1
   110    68    66    1
   111    64    63    2
   112    55    54   ar
   113    55    57   ar
   114   101    98    1
   115   101   102    1
   116    63    62    1
   117    98    97    1
   118    54    56   ar
   119    66    67    1
   120    66    65    1
   121    40    41    2
   122    57    59   ar
   123    95    93    1
   124   118   115    1
   125    56    58   ar
   126    97    91   am
   127   115   116    1
   128    50    49    1
   129    50    51    1
   130    59    58   ar
   131    59    60    1
   132    62    65    1
   133    62    61    1
   134    91    90    1
   135    91    92    2
   136   116   117    2
   137    93    90    1
   138    93    94    1
   139    96    94    1
   140    52    51    2
   141    90    89    1
