@<TRIPOS>MOLECULE
tmp/4kosA00.pdb
 189 189 0 0 0
SMALL
GASTEIGER

@<TRIPOS>ATOM
      1  N        -11.8470    4.9370   -0.3490 N.3    27  PHE27      -0.1227
      2  CA       -11.8620    3.8290    0.6480 C.3    27  PHE27       0.1736
      3  C        -11.1930    4.2420    1.9400 C.2    27  PHE27       0.2595
      4  O        -11.7710    3.9000    3.0280 O.2    27  PHE27      -0.2718
      5  CB       -11.1020    2.6030    0.0830 C.3    27  PHE27       0.0547
      6  CG       -11.2080    1.3850    0.9650 C.ar   27  PHE27      -0.0202
      7  CD1      -12.4090    0.7120    1.1380 C.ar   27  PHE27      -0.0042
      8  CD2      -10.0970    0.9830    1.6470 C.ar   27  PHE27      -0.0042
      9  CE1      -12.4660   -0.4340    1.9730 C.ar   27  PHE27      -0.0003
     10  CE2      -10.1610   -0.1310    2.5100 C.ar   27  PHE27      -0.0003
     11  CZ       -11.3280   -0.8000    2.6560 C.ar   27  PHE27      -0.0000
     12  N        -10.1160    4.9880    1.9030 N.am   28  TYR28      -0.1962
     13  CA        -9.4070    5.3360    3.1490 C.3    28  TYR28       0.1771
     14  C        -10.2300    6.2040    4.0410 C.2    28  TYR28       0.2620
     15  O        -10.0610    6.1350    5.2690 O.2    28  TYR28      -0.2715
     16  CB        -8.0970    6.0830    2.8650 C.3    28  TYR28       0.0574
     17  CG        -7.0470    5.3370    2.0610 C.ar   28  TYR28      -0.0198
     18  CD1       -7.0010    3.9600    2.0630 C.ar   28  TYR28      -0.0009
     19  CD2       -6.0470    6.0800    1.3730 C.ar   28  TYR28      -0.0009
     20  CE1       -6.0460    3.2950    1.2690 C.ar   28  TYR28       0.0417
     21  CE2       -5.0680    5.4310    0.6660 C.ar   28  TYR28       0.0417
     22  CZ        -5.1140    4.0620    0.6000 C.ar   28  TYR28       0.1957
     23  OH        -4.0710    3.4980   -0.1230 O.3    28  TYR28      -0.2866
     24  N        -11.0840    7.0480    3.4670 N.am   29  CYS29      -0.1954
     25  CA       -11.8830    8.0090    4.2330 C.3    29  CYS29       0.1843
     26  C        -13.3520    7.6680    4.4230 C.2    29  CYS29       0.2625
     27  O        -13.9970    8.2560    5.2820 O.2    29  CYS29      -0.2714
     28  CB       -11.7600    9.4250    3.7060 C.3    29  CYS29       0.0997
     29  SG       -12.6540    9.7050    2.1520 S.3    29  CYS29      -0.0797
     30  N        -13.8720    6.7120    3.6800 N.am   30  TYR30      -0.1960
     31  CA       -15.2630    6.3420    3.6940 C.3    30  TYR30       0.1756
     32  C        -15.4360    4.9580    3.0870 C.2    30  TYR30       0.2461
     33  O        -15.8760    4.7900    1.9470 O.2    30  TYR30      -0.2730
     34  CB       -16.0490    7.4130    2.9120 C.3    30  TYR30       0.0574
     35  CG       -17.5220    7.3850    3.0210 C.ar   30  TYR30      -0.0198
     36  CD1      -18.1990    6.3310    3.5630 C.ar   30  TYR30      -0.0009
     37  CD2      -18.2710    8.4960    2.5370 C.ar   30  TYR30      -0.0009
     38  CE1      -19.6040    6.3110    3.5920 C.ar   30  TYR30       0.0417
     39  CE2      -19.6370    8.4890    2.5610 C.ar   30  TYR30       0.0417
     40  CZ       -20.2980    7.4300    3.0930 C.ar   30  TYR30       0.1957
     41  OH       -21.6940    7.4720    3.0490 O.3    30  TYR30      -0.2866
     42  N        -14.9600    3.9210    3.7950 N.am   31  PRO31      -0.2716
     43  CA       -14.8620    2.5850    3.1810 C.3    31  PRO31       0.1536
     44  C        -16.2020    1.9770    2.7490 C.2    31  PRO31       0.2598
     45  O        -16.1700    1.1420    1.8160 O.2    31  PRO31      -0.2715
     46  CB       -14.2180    1.7150    4.3000 C.3    31  PRO31       0.0310
     47  CG       -14.4100    2.4890    5.5520 C.3    31  PRO31       0.0237
     48  CD       -14.3310    3.9470    5.1400 C.3    31  PRO31       0.0939
     49  N        -17.3170    2.3980    3.3510 N.am   32  LYS32      -0.1978
     50  CA       -18.6320    1.9100    2.9530 C.3    32  LYS32       0.1596
     51  C        -19.1230    2.5410    1.6350 C.2    32  LYS32       0.2287
     52  O        -19.9940    1.9420    0.9800 O.2    32  LYS32      -0.2864
     53  CB       -19.6490    2.1610    4.0490 C.3    32  LYS32       0.0298
     54  CG       -20.9740    1.4270    3.8650 C.3    32  LYS32       0.0038
     55  CD       -21.9660    1.7570    4.9780 C.3    32  LYS32       0.0206
     56  CE       -23.1840    0.8380    4.8940 C.3    32  LYS32       0.1093
     57  NZ       -24.3350    1.2990    5.7310 N.3    32  LYS32      -0.1314
     58  N        -24.1120   10.7730   11.0560 N.3    49  ARG49      -0.1245
     59  CA       -22.9500   11.1130   11.8830 C.3    49  ARG49       0.1563
     60  C        -23.1180   12.3940   12.6500 C.2    49  ARG49       0.2260
     61  O        -24.2090   12.9670   12.7170 O.2    49  ARG49      -0.2867
     62  CB       -21.7170   11.1620   10.9910 C.3    49  ARG49       0.0307
     63  CG       -21.3670    9.8060   10.4100 C.3    49  ARG49       0.0489
     64  CD       -20.0890    9.9060    9.6120 C.3    49  ARG49       0.2205
     65  NE       -19.8280    8.6710    8.8840 N.pl3  49  ARG49      -0.0865
     66  CZ       -18.6170    8.2420    8.5760 C.cat  49  ARG49       0.5346
     67  NH1      -17.5460    8.9170    8.8810 N.pl3  49  ARG49       0.1354
     68  NH2      -18.4830    7.1000    7.9280 N.pl3  49  ARG49       0.1354
     69  N        -17.8340    9.4200   13.3960 N.3    68  TYR68      -0.1227
     70  CA       -18.7400    8.3060   13.1450 C.3    68  TYR68       0.1736
     71  C        -19.0860    7.5540   14.4300 C.2    68  TYR68       0.2595
     72  O        -19.9690    6.7170   14.4340 O.2    68  TYR68      -0.2718
     73  CB       -18.2800    7.3440   12.0460 C.3    68  TYR68       0.0548
     74  CG       -16.9700    6.6850   12.2730 C.ar   68  TYR68      -0.0200
     75  CD1      -15.8220    7.3150   11.9560 C.ar   68  TYR68      -0.0009
     76  CD2      -16.8920    5.4200   12.9240 C.ar   68  TYR68      -0.0009
     77  CE1      -14.5800    6.6950   12.1260 C.ar   68  TYR68       0.0417
     78  CE2      -15.6640    4.7880   13.1120 C.ar   68  TYR68       0.0417
     79  CZ       -14.4970    5.4440   12.7280 C.ar   68  TYR68       0.1957
     80  OH       -13.2290    4.8800   12.8930 O.3    68  TYR68      -0.2866
     81  N        -18.3100    7.8060   15.4810 N.am   69  GLN69      -0.1979
     82  CA       -18.7020    7.3590   16.8460 C.3    69  GLN69       0.1601
     83  C        -18.4970    8.5130   17.7990 C.2    69  GLN69       0.2287
     84  O        -17.6750    9.3640   17.6410 O.2    69  GLN69      -0.2864
     85  CB       -17.8670    6.1690   17.3470 C.3    69  GLN69       0.0394
     86  CG       -17.9250    4.9580   16.4450 C.3    69  GLN69       0.0908
     87  CD       -16.9100    3.8580   16.7500 C.2    69  GLN69       0.2608
     88  OE1      -15.8910    4.0690   17.3940 O.2    69  GLN69      -0.2717
     89  NE2      -17.1580    2.6660   16.1660 N.am   69  GLN69      -0.0878
     90  N        -13.0010    9.8320   14.7540 N.3    78  LEU78      -0.1231
     91  CA       -12.9240   10.7610   13.6300 C.3    78  LEU78       0.1693
     92  C        -12.8960   10.0580   12.3010 C.2    78  LEU78       0.2593
     93  O        -12.0560    9.1660   12.0880 O.2    78  LEU78      -0.2718
     94  CB       -11.6290   11.5340   13.7700 C.3    78  LEU78       0.0284
     95  CG       -11.3230   12.8460   13.0690 C.3    78  LEU78       0.0019
     96  CD1      -12.5320   13.7280   12.9240 C.3    78  LEU78       0.0001
     97  CD2      -10.2000   13.4650   13.9180 C.3    78  LEU78       0.0001
     98  N        -13.7260   10.5150   11.3650 N.am   79  GLY79      -0.1942
     99  CA       -13.7370    9.9030   10.0180 C.3    79  GLY79       0.2014
    100  C        -14.1670   10.8850    8.9810 C.2    79  GLY79       0.2639
    101  O        -14.2590   12.0590    9.1900 O.2    79  GLY79      -0.2714
    102  N        -14.2920   10.3480    7.7490 N.am   80  ASN80      -0.1958
    103  CA       -14.5880   11.1220    6.5480 C.3    80  ASN80       0.1819
    104  C        -13.6820   12.2870    6.3870 C.2    80  ASN80       0.2621
    105  O        -14.1110   13.3300    5.8420 O.2    80  ASN80      -0.2715
    106  CB       -16.0650   11.5980    6.5000 C.3    80  ASN80       0.1195
    107  CG       -17.1090   10.5420    6.1860 C.2    80  ASN80       0.2630
    108  OD1      -18.2940   10.8320    6.3480 O.2    80  ASN80      -0.2716
    109  ND2      -16.7140    9.3210    5.7490 N.am   80  ASN80      -0.0877
    110  N        -12.4320   12.1640    6.7920 N.am   81  MET81      -0.1977
    111  CA       -11.5010   13.2600    6.4830 C.3    81  MET81       0.1605
    112  C        -11.0340   13.3650    4.9920 C.2    81  MET81       0.2287
    113  O        -10.3830   12.4650    4.3610 O.2    81  MET81      -0.2864
    114  CB       -10.3230   13.2930    7.4170 C.3    81  MET81       0.0413
    115  CG        -9.5420   14.6040    7.2980 C.3    81  MET81       0.0598
    116  SD        -9.0330   15.2160    8.9280 S.3    81  MET81      -0.1393
    117  CE        -9.0840   13.6920    9.8910 C.3    81  MET81       0.0692
    118  N         -8.7370    7.3650   16.1550 N.3   115  ILE115     -0.1231
    119  CA        -8.5400    7.5040   14.6800 C.3   115  ILE115      0.1692
    120  C         -8.1610    6.0780   14.2460 C.2   115  ILE115      0.2593
    121  O         -7.1580    5.5450   14.7170 O.2   115  ILE115     -0.2718
    122  CB        -7.4490    8.4970   14.3350 C.3   115  ILE115      0.0266
    123  CG1       -7.9100    9.9140   14.7550 C.3   115  ILE115      0.0019
    124  CG2       -7.1190    8.4500   12.8210 C.3   115  ILE115      0.0020
    125  CD1       -6.9590   11.0570   14.4160 C.3   115  ILE115      0.0001
    126  N         -8.8640    5.5570   13.2550 N.am  116  SER116     -0.1938
    127  CA        -8.5590    4.2820   12.6200 C.3   116  SER116      0.2055
    128  C         -8.0980    4.5980   11.2180 C.2   116  SER116      0.2643
    129  O         -8.6780    5.4220   10.5240 O.2   116  SER116     -0.2714
    130  CB        -9.7670    3.3940   12.6200 C.3   116  SER116      0.2130
    131  OG        -9.9980    3.0660   13.9950 O.3   116  SER116     -0.2179
    132  N         -7.0060    4.0120   10.8090 N.am  117  CYS117     -0.1953
    133  CA        -6.4090    4.3240    9.5240 C.3   117  CYS117      0.1843
    134  C         -6.0480    3.0590    8.8080 C.2   117  CYS117      0.2625
    135  O         -5.4150    2.1720    9.3390 O.2   117  CYS117     -0.2714
    136  CB        -5.0920    5.0670    9.7400 C.3   117  CYS117      0.0997
    137  SG        -4.3080    5.7510    8.2510 S.3   117  CYS117     -0.0797
    138  N         -6.4060    2.9420    7.5410 N.am  118  PHE118     -0.1974
    139  CA        -6.0580    1.7550    6.7430 C.3   118  PHE118      0.1639
    140  C         -4.5720    1.7080    6.4700 C.2   118  PHE118      0.2290
    141  O         -3.9020    2.7470    6.3170 O.2   118  PHE118     -0.2864
    142  CB        -6.8720    1.6990    5.4220 C.3   118  PHE118      0.0560
    143  CG        -8.3040    1.3530    5.6310 C.ar  118  PHE118     -0.0200
    144  CD1       -8.6810    0.0660    5.9180 C.ar  118  PHE118     -0.0042
    145  CD2       -9.2910    2.3380    5.5980 C.ar  118  PHE118     -0.0042
    146  CE1       -9.9940   -0.2550    6.1820 C.ar  118  PHE118     -0.0003
    147  CE2      -10.6290    2.0020    5.8270 C.ar  118  PHE118     -0.0003
    148  CZ       -10.9560    0.7100    6.1360 C.ar  118  PHE118     -0.0000
    149  N         -0.8680   11.1830   11.9540 N.3   128  TYR128     -0.1241
    150  CA        -1.5180   10.9420   13.2520 C.3   128  TYR128      0.1605
    151  C         -0.4510   10.7310   14.2900 C.2   128  TYR128      0.2264
    152  O         -0.5840   11.1370   15.4720 O.2   128  TYR128     -0.2867
    153  CB        -2.5590    9.8020   13.1970 C.3   128  TYR128      0.0534
    154  CG        -3.5380    9.9440   12.0060 C.ar  128  TYR128     -0.0201
    155  CD1       -4.0430   11.1400   11.6610 C.ar  128  TYR128     -0.0009
    156  CD2       -3.9000    8.8510   11.2570 C.ar  128  TYR128     -0.0009
    157  CE1       -4.9080   11.2720   10.5880 C.ar  128  TYR128      0.0417
    158  CE2       -4.7230    8.9620   10.1540 C.ar  128  TYR128      0.0417
    159  CZ        -5.2280   10.1720    9.8360 C.ar  128  TYR128      0.1957
    160  OH        -6.0630   10.3280    8.7550 O.3   128  TYR128     -0.2866
    161  N        -10.0970   -5.8790    7.8570 N.3   141  ARG141     -0.1231
    162  CA       -11.2290   -5.4550    7.0640 C.3   141  ARG141      0.1694
    163  C        -10.9870   -5.9090    5.6140 C.2   141  ARG141      0.2592
    164  O         -9.9510   -6.5200    5.2970 O.2   141  ARG141     -0.2718
    165  CB       -11.4100   -3.9430    7.1200 C.3   141  ARG141      0.0321
    166  CG       -11.6180   -3.3540    8.4950 C.3   141  ARG141      0.0489
    167  CD       -13.0020   -3.6410    9.0140 C.3   141  ARG141      0.2205
    168  NE       -13.2880   -2.9240   10.2750 N.pl3 141  ARG141     -0.0865
    169  CZ       -13.1020   -3.4510   11.4820 C.cat 141  ARG141      0.5346
    170  NH1      -12.6780   -4.6730   11.6050 N.pl3 141  ARG141      0.1354
    171  NH2      -13.3320   -2.7280   12.5620 N.pl3 141  ARG141      0.1354
    172  N        -12.0230   -5.7260    4.7860 N.am  142  HIS142     -0.1976
    173  CA       -11.9250   -6.0400    3.3940 C.3   142  HIS142      0.1656
    174  C        -12.2040   -4.8370    2.5280 C.2   142  HIS142      0.2291
    175  O        -13.0420   -3.9860    2.8880 O.2   142  HIS142     -0.2864
    176  CB       -12.9240   -7.1270    3.0210 C.3   142  HIS142      0.0771
    177  CG       -12.5580   -8.4450    3.5690 C.ar  142  HIS142      0.0820
    178  ND1      -12.8630   -8.7690    4.8740 N.ar  142  HIS142     -0.2267
    179  CD2      -11.9100   -9.5150    3.0420 C.ar  142  HIS142      0.1154
    180  CE1      -12.4110   -9.9830    5.1400 C.ar  142  HIS142      0.1986
    181  NE2      -11.8460  -10.4680    4.0380 N.ar  142  HIS142     -0.2212
    182  N         -6.6870   -2.4620    9.4440 N.3   151  LEU151     -0.1245
    183  CA        -7.1070   -1.1730    9.9550 C.3   151  LEU151      0.1561
    184  C         -6.3750   -0.9090   11.2450 C.2   151  LEU151      0.2260
    185  O         -6.5460   -1.6670   12.2210 O.2   151  LEU151     -0.2867
    186  CB        -8.6100   -1.2010   10.2300 C.3   151  LEU151      0.0270
    187  CG        -9.2850    0.0920   10.6870 C.3   151  LEU151      0.0019
    188  CD1       -9.1860    1.1900    9.6270 C.3   151  LEU151      0.0001
    189  CD2      -10.7170   -0.1690   11.0890 C.3   151  LEU151      0.0001
@<TRIPOS>BOND
     1     1     2    1
     2    23    22    1
     3     5     2    1
     4     5     6    1
     5    22    21   ar
     6    22    20   ar
     7     2     3    1
     8    21    19   ar
     9     6     7   ar
    10     6     8   ar
    11    52    51    2
    12     7     9   ar
    13    20    18   ar
    14    19    17   ar
    15    51    50    1
    16     8    10   ar
    17    45    44    2
    18    12     3   am
    19    12    13    1
    20     3     4    2
    21    33    32    2
    22     9    11   ar
    23    17    18   ar
    24    17    16    1
    25    29    28    1
    26    10    11   ar
    27   174   175    2
    28   174   173    1
    29    37    39   ar
    30    37    35   ar
    31    39    40   ar
    32    44    43    1
    33    44    49   am
    34    16    13    1
    35    34    35    1
    36    34    31    1
    37    50    49    1
    38    50    53    1
    39   176   173    1
    40   176   177    1
    41    35    36   ar
    42   179   177   ar
    43   179   181   ar
    44    41    40    1
    45    32    31    1
    46    32    42   am
    47    40    38   ar
    48    13    14    1
    49    43    42    1
    50    43    46    1
    51   173   172    1
    52    24    14   am
    53    24    25    1
    54    36    38   ar
    55   177   178   ar
    56    30    31    1
    57    30    26   am
    58    28    25    1
    59    42    48    1
    60    54    53    1
    61    54    55    1
    62   181   180   ar
    63    14    15    2
    64    25    26    1
    65    46    47    1
    66   113   112    2
    67    26    27    2
    68   172   163   am
    69   178   180   ar
    70    56    55    1
    71    56    57    1
    72   112   111    1
    73    48    47    1
    74   164   163    2
    75   142   143    1
    76   142   139    1
    77   145   143   ar
    78   145   147   ar
    79   163   162    1
    80   143   144   ar
    81   109   107   am
    82   147   148   ar
    83   105   104    2
    84   144   146   ar
    85   148   146   ar
    86   107   108    2
    87   107   106    1
    88   141   140    2
    89   104   103    1
    90   104   110   am
    91   140   139    1
    92   111   110    1
    93   111   114    1
    94   106   103    1
    95   103   102    1
    96   139   138    1
    97   162   165    1
    98   162   161    1
    99   165   166    1
   100   115   114    1
   101   115   116    1
   102   138   134   am
   103   102   100   am
   104    68    66    1
   105   137   136    1
   106   166   167    1
   107    66    67    1
   108    66    65    2
   109   160   159    1
   110   134   135    2
   111   134   133    1
   112    65    64    1
   113   116   117    1
   114   100   101    2
   115   100    99    1
   116   167   168    1
   117   182   183    1
   118   133   136    1
   119   133   132    1
   120    64    63    1
   121   188   187    1
   122   159   158   ar
   123   159   157   ar
   124   183   186    1
   125   183   184    1
   126    99    98    1
   127   158   156   ar
   128   186   187    1
   129   168   169    2
   130    63    62    1
   131   129   128    2
   132   157   155   ar
   133   187   189    1
   134   132   128   am
   135    62    59    1
   136    58    59    1
   137   128   127    1
   138   184   185    2
   139   156   154   ar
   140    98    92   am
   141   169   170    1
   142   169   171    1
   143   155   154   ar
   144    59    60    1
   145   149   150    1
   146    75    77   ar
   147    75    74   ar
   148   154   153    1
   149    73    74    1
   150    73    70    1
   151    93    92    2
   152    77    79   ar
   153    74    76   ar
   154    92    91    1
   155   130   127    1
   156   130   131    1
   157   127   126    1
   158    60    61    2
   159    79    80    1
   160    79    78   ar
   161   124   122    1
   162    96    95    1
   163    76    78   ar
   164    95    94    1
   165    95    97    1
   166    70    69    1
   167    70    71    1
   168   153   150    1
   169   150   151    1
   170   126   120   am
   171    91    94    1
   172    91    90    1
   173   120   119    1
   174   120   121    2
   175   151   152    2
   176   122   119    1
   177   122   123    1
   178   125   123    1
   179    71    72    2
   180    71    81   am
   181   119   118    1
   182    81    82    1
   183    89    87   am
   184    86    87    1
   185    86    85    1
   186    87    88    2
   187    82    85    1
   188    82    83    1
   189    84    83    2
