@<TRIPOS>MOLECULE
tmp/4kotA00.pdb
 174 173 0 0 0
SMALL
GASTEIGER

@<TRIPOS>ATOM
      1  N         17.1520    4.6750   -0.3740 N.3    27  PHE27      -0.1227
      2  CA        17.1580    3.5880    0.6170 C.3    27  PHE27       0.1736
      3  C         17.8410    4.0190    1.9000 C.2    27  PHE27       0.2595
      4  O         17.2530    3.6670    2.9810 O.2    27  PHE27      -0.2718
      5  CB        17.9610    2.3830    0.0280 C.3    27  PHE27       0.0547
      6  CG        18.0210    1.1820    0.9670 C.ar   27  PHE27      -0.0202
      7  CD1       16.8780    0.5040    1.1980 C.ar   27  PHE27      -0.0042
      8  CD2       19.1630    0.7420    1.5000 C.ar   27  PHE27      -0.0042
      9  CE1       16.8180   -0.5950    2.0760 C.ar   27  PHE27      -0.0003
     10  CE2       19.1310   -0.3610    2.4020 C.ar   27  PHE27      -0.0003
     11  CZ        17.9970   -1.0160    2.6320 C.ar   27  PHE27      -0.0000
     12  N         18.9210    4.7630    1.8480 N.am   28  TYR28      -0.1962
     13  CA        19.6550    5.1270    3.0840 C.3    28  TYR28       0.1771
     14  C         18.8260    6.0220    3.9590 C.2    28  TYR28       0.2620
     15  O         18.9860    6.0150    5.1880 O.2    28  TYR28      -0.2715
     16  CB        20.9660    5.8340    2.8220 C.3    28  TYR28       0.0574
     17  CG        21.9780    5.0450    2.0340 C.ar   28  TYR28      -0.0198
     18  CD1       21.9780    3.6530    2.0380 C.ar   28  TYR28      -0.0009
     19  CD2       22.9620    5.7510    1.3300 C.ar   28  TYR28      -0.0009
     20  CE1       22.9250    2.9380    1.2860 C.ar   28  TYR28       0.0417
     21  CE2       23.8910    5.0670    0.5820 C.ar   28  TYR28       0.0417
     22  CZ        23.8580    3.6950    0.5540 C.ar   28  TYR28       0.1957
     23  OH        24.8610    3.1320   -0.2130 O.3    28  TYR28      -0.2866
     24  N         17.9890    6.8710    3.3590 N.am   29  CYS29      -0.1954
     25  CA        17.2060    7.8860    4.1130 C.3    29  CYS29       0.1843
     26  C         15.7790    7.5310    4.3670 C.2    29  CYS29       0.2625
     27  O         15.1010    8.1600    5.2060 O.2    29  CYS29      -0.2714
     28  CB        17.3570    9.2700    3.5680 C.3    29  CYS29       0.0997
     29  SG        16.4520    9.5280    2.0040 S.3    29  CYS29      -0.0797
     30  N         15.2380    6.5460    3.6390 N.am   30  TYR30      -0.1960
     31  CA        13.8820    6.1560    3.7250 C.3    30  TYR30       0.1756
     32  C         13.6840    4.7600    3.1500 C.2    30  TYR30       0.2461
     33  O         13.2130    4.5920    2.0290 O.2    30  TYR30      -0.2730
     34  CB        12.9880    7.2380    3.0180 C.3    30  TYR30       0.0574
     35  CG        11.5020    7.1360    3.2240 C.ar   30  TYR30      -0.0198
     36  CD1       10.9050    6.1230    3.9450 C.ar   30  TYR30      -0.0009
     37  CD2       10.6860    8.1500    2.6420 C.ar   30  TYR30      -0.0009
     38  CE1        9.5020    6.1250    4.0580 C.ar   30  TYR30       0.0417
     39  CE2        9.3420    8.1350    2.7420 C.ar   30  TYR30       0.0417
     40  CZ         8.7700    7.1330    3.4010 C.ar   30  TYR30       0.1957
     41  OH         7.4090    7.1750    3.4380 O.3    30  TYR30      -0.2866
     42  N         14.1270    3.7420    3.8640 N.am   31  PRO31      -0.2716
     43  CA        14.1220    2.4040    3.2670 C.3    31  PRO31       0.1536
     44  C         12.7500    1.8190    2.8920 C.2    31  PRO31       0.2598
     45  O         12.6810    0.9670    1.9790 O.2    31  PRO31      -0.2715
     46  CB        14.8940    1.5430    4.3180 C.3    31  PRO31       0.0310
     47  CG        14.8650    2.3460    5.5660 C.3    31  PRO31       0.0237
     48  CD        14.8500    3.7870    5.1540 C.3    31  PRO31       0.0939
     49  N         11.6880    2.3000    3.4810 N.am   32  LYS32      -0.1978
     50  CA        10.3280    1.8290    3.1860 C.3    32  LYS32       0.1596
     51  C          9.8880    2.3920    1.8320 C.2    32  LYS32       0.2287
     52  O          8.9920    1.8170    1.2130 O.2    32  LYS32      -0.2864
     53  CB         9.3200    2.1790    4.2820 C.3    32  LYS32       0.0298
     54  CG         7.9530    1.5040    4.0150 C.3    32  LYS32       0.0038
     55  CD         6.9780    1.8580    5.1310 C.3    32  LYS32       0.0206
     56  CE         6.4740    3.2790    4.8480 C.3    32  LYS32       0.1093
     57  NZ         5.4910    3.6340    5.9250 N.3    32  LYS32      -0.1314
     58  N          4.9110   10.6120   11.1590 N.3    49  ARG49      -0.1245
     59  CA         6.1000   10.9040   11.9610 C.3    49  ARG49       0.1563
     60  C          5.8820   12.1920   12.7160 C.2    49  ARG49       0.2260
     61  O          4.7650   12.7550   12.7380 O.2    49  ARG49      -0.2867
     62  CB         7.3050   11.0160   11.0110 C.3    49  ARG49       0.0307
     63  CG         7.6510    9.6700   10.4640 C.3    49  ARG49       0.0489
     64  CD         8.8850    9.7420    9.5710 C.3    49  ARG49       0.2205
     65  NE         9.1950    8.4550    8.9210 N.pl3  49  ARG49      -0.0865
     66  CZ        10.3980    8.0740    8.5490 C.cat  49  ARG49       0.5346
     67  NH1       10.5640    6.8870    7.9920 N.pl3  49  ARG49       0.1354
     68  NH2       11.4560    8.7520    8.8750 N.pl3  49  ARG49       0.1354
     69  N         11.2540    9.1770   13.3920 N.3    68  TYR68      -0.1241
     70  CA        10.3650    8.0780   13.1060 C.3    68  TYR68       0.1605
     71  C         10.0190    7.3010   14.3570 C.2    68  TYR68       0.2264
     72  O          9.1950    6.4190   14.3200 O.2    68  TYR68      -0.2867
     73  CB        10.8630    7.1100   12.0040 C.3    68  TYR68       0.0534
     74  CG        12.1190    6.3720   12.3350 C.ar   68  TYR68      -0.0201
     75  CD1       13.3200    6.9340   12.0880 C.ar   68  TYR68      -0.0009
     76  CD2       12.0990    5.1670   13.0100 C.ar   68  TYR68      -0.0009
     77  CE1       14.4770    6.3020   12.3810 C.ar   68  TYR68       0.0417
     78  CE2       13.2940    4.4700   13.2660 C.ar   68  TYR68       0.0417
     79  CZ        14.4760    5.1260   12.9750 C.ar   68  TYR68       0.1957
     80  OH        15.7090    4.6100   13.1610 O.3    68  TYR68      -0.2866
     81  N         16.1150    9.6740   14.7820 N.3    78  LEU78      -0.1231
     82  CA        16.2160   10.5760   13.6490 C.3    78  LEU78       0.1693
     83  C         16.0040    9.8310   12.3470 C.2    78  LEU78       0.2593
     84  O         16.5410    8.7580   12.1680 O.2    78  LEU78      -0.2718
     85  CB        17.5790   11.2250   13.5990 C.3    78  LEU78       0.0284
     86  CG        17.8430   12.1880   12.3940 C.3    78  LEU78       0.0019
     87  CD1       17.1970   13.4560   12.8640 C.3    78  LEU78       0.0001
     88  CD2       19.3160   12.3830   12.0830 C.3    78  LEU78       0.0001
     89  N         15.1810   10.4020   11.4730 N.am   79  GLY79      -0.1942
     90  CA        14.8550    9.7970   10.2010 C.3    79  GLY79       0.2014
     91  C         14.8390   10.7810    9.0620 C.2    79  GLY79       0.2639
     92  O         14.8650   11.9680    9.2560 O.2    79  GLY79      -0.2714
     93  N         14.7760   10.1830    7.8720 N.am   80  ASN80      -0.1958
     94  CA        14.5700   10.9280    6.6100 C.3    80  ASN80       0.1819
     95  C         15.5470   12.0530    6.4830 C.2    80  ASN80       0.2621
     96  O         15.1610   13.1820    6.0340 O.2    80  ASN80      -0.2715
     97  CB        13.1200   11.4650    6.4820 C.3    80  ASN80       0.1195
     98  CG        12.0340   10.4490    6.1900 C.2    80  ASN80       0.2630
     99  OD1       10.8410   10.7600    6.3420 O.2    80  ASN80      -0.2716
    100  ND2       12.3500    9.2310    5.7720 N.am   80  ASN80      -0.0877
    101  N         16.8200   11.8240    6.7930 N.am   81  MET81      -0.1977
    102  CA        17.8240   12.8650    6.7220 C.3    81  MET81       0.1605
    103  C         18.2540   13.0550    5.2630 C.2    81  MET81       0.2287
    104  O         18.8290   12.1380    4.6670 O.2    81  MET81      -0.2864
    105  CB        19.0380   12.5190    7.6350 C.3    81  MET81       0.0413
    106  CG        20.1880   13.5020    7.6490 C.3    81  MET81       0.0598
    107  SD        19.8390   14.9740    8.6850 S.3    81  MET81      -0.1393
    108  CE        19.7010   16.0050    7.3260 C.3    81  MET81       0.0692
    109  N         20.2750    7.0740   16.0500 N.3   115  ILE115     -0.1231
    110  CA        20.3740    7.2120   14.5810 C.3   115  ILE115      0.1692
    111  C         20.7760    5.8330   14.0920 C.2   115  ILE115      0.2592
    112  O         21.7780    5.2810   14.5610 O.2   115  ILE115     -0.2718
    113  CB        21.3780    8.2700   14.1560 C.3   115  ILE115      0.0266
    114  CG1       21.0140    9.6850   14.6050 C.3   115  ILE115      0.0019
    115  CG2       21.4610    8.2340   12.6120 C.3   115  ILE115      0.0020
    116  CD1       21.9930   10.8000   14.3210 C.3   115  ILE115      0.0001
    117  N         20.1190    5.3130   13.0610 N.am  116  SER116     -0.1952
    118  CA        20.4750    4.0560   12.3790 C.3   116  SER116      0.1924
    119  C         20.9850    4.4290   11.0050 C.2   116  SER116      0.2314
    120  O         20.3320    5.1560   10.2610 O.2   116  SER116     -0.2863
    121  CB        19.2880    3.1680   12.2360 C.3   116  SER116      0.2116
    122  OG        18.9090    2.6860   13.5920 O.3   116  SER116     -0.2180
    123  N         22.9500    2.8800    7.4290 N.3   118  PHE118     -0.1241
    124  CA        23.3400    1.6740    6.6780 C.3   118  PHE118      0.1605
    125  C         24.8390    1.6520    6.4220 C.2   118  PHE118      0.2264
    126  O         25.5280    2.6860    6.2970 O.2   118  PHE118     -0.2867
    127  CB        22.5910    1.6580    5.3340 C.3   118  PHE118      0.0534
    128  CG        21.1310    1.3240    5.4930 C.ar  118  PHE118     -0.0203
    129  CD1       20.6860    0.0190    5.7140 C.ar  118  PHE118     -0.0042
    130  CD2       20.1650    2.3190    5.5490 C.ar  118  PHE118     -0.0042
    131  CE1       19.3570   -0.2450    5.9620 C.ar  118  PHE118     -0.0003
    132  CE2       18.8420    2.0380    5.7670 C.ar  118  PHE118     -0.0003
    133  CZ        18.4210    0.7880    5.9350 C.ar  118  PHE118     -0.0000
    134  N         28.1290   11.1310   11.7800 N.3   128  TYR128     -0.1241
    135  CA        27.4340   10.9370   13.0670 C.3   128  TYR128      0.1605
    136  C         28.5350   10.7020   14.1250 C.2   128  TYR128      0.2264
    137  O         28.4590   11.1000   15.3050 O.2   128  TYR128     -0.2867
    138  CB        26.4010    9.7810   13.0320 C.3   128  TYR128      0.0534
    139  CG        25.3710    9.9120   11.9200 C.ar  128  TYR128     -0.0201
    140  CD1       24.6580   11.0990   11.7800 C.ar  128  TYR128     -0.0009
    141  CD2       25.0520    8.8910   11.0780 C.ar  128  TYR128     -0.0009
    142  CE1       23.7090   11.2350   10.7830 C.ar  128  TYR128      0.0417
    143  CE2       24.1390    9.0300   10.0780 C.ar  128  TYR128      0.0417
    144  CZ        23.4630   10.2130    9.9260 C.ar  128  TYR128      0.1957
    145  OH        22.4740   10.3740    8.9150 O.3   128  TYR128     -0.2866
    146  N         19.5020   -6.3260    7.8600 N.3   141  ARG141     -0.1231
    147  CA        18.3450   -5.9010    7.0670 C.3   141  ARG141      0.1694
    148  C         18.5710   -6.2600    5.5790 C.2   141  ARG141      0.2592
    149  O         19.6300   -6.7940    5.1780 O.2   141  ARG141     -0.2718
    150  CB        18.0940   -4.4030    7.1820 C.3   141  ARG141      0.0321
    151  CG        17.8160   -3.9120    8.5720 C.3   141  ARG141      0.0489
    152  CD        16.4340   -4.2990    9.0230 C.3   141  ARG141      0.2205
    153  NE        16.0820   -3.4310   10.1310 N.pl3 141  ARG141     -0.0865
    154  CZ        16.2610   -3.7550   11.4050 C.cat 141  ARG141      0.5346
    155  NH1       16.7460   -4.9350   11.7160 N.pl3 141  ARG141      0.1354
    156  NH2       15.9350   -2.8800   12.3660 N.pl3 141  ARG141      0.1354
    157  N         17.5300   -6.0490    4.7890 N.am  142  HIS142     -0.1976
    158  CA        17.6440   -6.3080    3.3700 C.3   142  HIS142      0.1656
    159  C         17.3180   -5.0780    2.5200 C.2   142  HIS142      0.2291
    160  O         16.4820   -4.2450    2.8920 O.2   142  HIS142     -0.2864
    161  CB        16.6550   -7.4480    2.9850 C.3   142  HIS142      0.0771
    162  CG        17.0480   -8.7670    3.5600 C.ar  142  HIS142      0.0820
    163  ND1       16.7570   -9.1080    4.8530 N.ar  142  HIS142     -0.2267
    164  CD2       17.7590   -9.7990    3.0460 C.ar  142  HIS142      0.1154
    165  CE1       17.2340  -10.3180    5.1060 C.ar  142  HIS142      0.1986
    166  NE2       17.8540  -10.7530    4.0290 N.ar  142  HIS142     -0.2212
    167  N         22.7100   -2.6730    9.3130 N.3   151  LEU151     -0.1245
    168  CA        22.2120   -1.3980    9.8530 C.3   151  LEU151      0.1561
    169  C         22.9170   -1.1010   11.1490 C.2   151  LEU151      0.2260
    170  O         22.7710   -1.8650   12.1130 O.2   151  LEU151     -0.2867
    171  CB        20.7150   -1.4310    9.9990 C.3   151  LEU151      0.0270
    172  CG        20.0130   -0.1730   10.4460 C.3   151  LEU151      0.0019
    173  CD1       20.2070    0.9410    9.4100 C.3   151  LEU151      0.0001
    174  CD2       18.5210   -0.4530   10.6640 C.3   151  LEU151      0.0001
@<TRIPOS>BOND
     1     1     2    1
     2    23    22    1
     3     5     2    1
     4     5     6    1
     5    22    21   ar
     6    22    20   ar
     7    21    19   ar
     8     2     3    1
     9     6     7   ar
    10     6     8   ar
    11     7     9   ar
    12    52    51    2
    13    20    18   ar
    14    19    17   ar
    15     8    10   ar
    16    51    50    1
    17    12     3   am
    18    12    13    1
    19     3     4    2
    20    45    44    2
    21    29    28    1
    22    33    32    2
    23    17    18   ar
    24    17    16    1
    25     9    11   ar
    26    10    11   ar
    27   159   160    2
    28   159   158    1
    29    37    39   ar
    30    37    35   ar
    31    39    40   ar
    32    16    13    1
    33    44    43    1
    34    44    49   am
    35   161   158    1
    36   161   162    1
    37    34    35    1
    38    34    31    1
    39   164   162   ar
    40   164   166   ar
    41    13    14    1
    42    32    31    1
    43    32    42   am
    44    50    49    1
    45    50    53    1
    46    35    36   ar
    47    43    42    1
    48    43    46    1
    49    24    14   am
    50    24    25    1
    51   158   157    1
    52    40    41    1
    53    40    38   ar
    54   162   163   ar
    55    28    25    1
    56    30    31    1
    57    30    26   am
    58    42    48    1
    59    36    38   ar
    60    14    15    2
    61    54    53    1
    62    54    55    1
    63   166   165   ar
    64    25    26    1
    65    46    47    1
    66    26    27    2
    67   104   103    2
    68   157   148   am
    69    56    55    1
    70    56    57    1
    71   163   165   ar
    72    48    47    1
    73   149   148    2
    74   103   102    1
    75   127   128    1
    76   127   124    1
    77   128   130   ar
    78   128   129   ar
    79   130   132   ar
    80   148   147    1
    81   129   131   ar
    82   132   133   ar
    83   100    98   am
    84   133   131   ar
    85    96    95    2
    86    98    99    2
    87    98    97    1
    88   126   125    2
    89   125   124    1
    90    97    94    1
    91    95    94    1
    92    95   101   am
    93    94    93    1
    94   124   123    1
    95   102   101    1
    96   102   105    1
    97   147   150    1
    98   147   146    1
    99   150   151    1
   100   108   107    1
   101   105   106    1
   102   106   107    1
   103    93    91   am
   104    67    66    1
   105    66    68    1
   106    66    65    2
   107   151   152    1
   108   145   144    1
   109    65    64    1
   110   152   153    1
   111    91    92    2
   112    91    90    1
   113   167   168    1
   114   173   172    1
   115    64    63    1
   116   168   171    1
   117   168   169    1
   118   144   143   ar
   119   144   142   ar
   120   171   172    1
   121   143   141   ar
   122   153   154    2
   123    90    89    1
   124   120   119    2
   125   172   174    1
   126    63    62    1
   127   142   140   ar
   128   119   118    1
   129    62    59    1
   130   141   139   ar
   131   169   170    2
   132    58    59    1
   133   154   155    1
   134   154   156    1
   135    89    83   am
   136   140   139   ar
   137   134   135    1
   138   139   138    1
   139    59    60    1
   140    73    74    1
   141    73    70    1
   142    88    86    1
   143    75    74   ar
   144    75    77   ar
   145    84    83    2
   146   121   118    1
   147   121   122    1
   148    74    76   ar
   149    83    82    1
   150   118   117    1
   151    77    79   ar
   152    86    87    1
   153    86    85    1
   154   115   113    1
   155    60    61    2
   156    79    80    1
   157    79    78   ar
   158    76    78   ar
   159   138   135    1
   160   117   111   am
   161   135   136    1
   162    70    69    1
   163    70    71    1
   164    85    82    1
   165    82    81    1
   166   111   112    2
   167   111   110    1
   168   136   137    2
   169   113   110    1
   170   113   114    1
   171    72    71    2
   172   116   114    1
   173   110   109    1
