@<TRIPOS>MOLECULE
tmp/4kovA00.pdb
 188 187 0 0 0
SMALL
GASTEIGER

@<TRIPOS>ATOM
      1  N         17.0970    4.6160   -0.4530 N.3    27  PHE27      -0.1227
      2  CA        17.1360    3.5460    0.5670 C.3    27  PHE27       0.1736
      3  C         17.8110    3.9900    1.7950 C.2    27  PHE27       0.2595
      4  O         17.3100    3.6920    2.9150 O.2    27  PHE27      -0.2718
      5  CB        17.8190    2.3280   -0.0250 C.3    27  PHE27       0.0547
      6  CG        17.8970    1.1400    0.8880 C.ar   27  PHE27      -0.0202
      7  CD1       16.7590    0.4370    1.1960 C.ar   27  PHE27      -0.0042
      8  CD2       19.0840    0.7260    1.4230 C.ar   27  PHE27      -0.0042
      9  CE1       16.7960   -0.6680    2.0370 C.ar   27  PHE27      -0.0003
     10  CE2       19.1140   -0.3900    2.2840 C.ar   27  PHE27      -0.0003
     11  CZ        17.9640   -1.0740    2.5830 C.ar   27  PHE27      -0.0000
     12  N         18.9110    4.7150    1.6810 N.am   28  TYR28      -0.1962
     13  CA        19.6360    5.0380    2.9120 C.3    28  TYR28       0.1771
     14  C         18.8480    5.9720    3.8170 C.2    28  TYR28       0.2620
     15  O         19.0040    5.9240    5.0630 O.2    28  TYR28      -0.2715
     16  CB        20.9630    5.7560    2.6220 C.3    28  TYR28       0.0574
     17  CG        21.9730    4.9920    1.8680 C.ar   28  TYR28      -0.0198
     18  CD1       22.0300    3.5870    1.9180 C.ar   28  TYR28      -0.0009
     19  CD2       22.9370    5.6980    1.1350 C.ar   28  TYR28      -0.0009
     20  CE1       23.0090    2.8810    1.1940 C.ar   28  TYR28       0.0417
     21  CE2       23.8740    5.0390    0.3900 C.ar   28  TYR28       0.0417
     22  CZ        23.9050    3.6720    0.3740 C.ar   28  TYR28       0.1957
     23  OH        24.8970    3.1120   -0.3950 O.3    28  TYR28      -0.2866
     24  N         18.0490    6.8580    3.2440 N.am   29  CYS29      -0.1954
     25  CA        17.3050    7.8430    4.0400 C.3    29  CYS29       0.1843
     26  C         15.8430    7.4990    4.2930 C.2    29  CYS29       0.2625
     27  O         15.2120    8.1050    5.1760 O.2    29  CYS29      -0.2714
     28  CB        17.4040    9.2540    3.4460 C.3    29  CYS29       0.0997
     29  SG        16.2300    9.5400    2.1330 S.3    29  CYS29      -0.0797
     30  N         15.2860    6.5530    3.5430 N.am   30  TYR30      -0.1960
     31  CA        13.8990    6.1750    3.6580 C.3    30  TYR30       0.1756
     32  C         13.6780    4.7730    3.1050 C.2    30  TYR30       0.2461
     33  O         13.1420    4.5800    1.9640 O.2    30  TYR30      -0.2730
     34  CB        13.0160    7.2010    2.9430 C.3    30  TYR30       0.0574
     35  CG        11.5400    7.1370    3.2090 C.ar   30  TYR30      -0.0198
     36  CD1       10.9910    6.1400    3.9880 C.ar   30  TYR30      -0.0009
     37  CD2       10.6610    8.1050    2.6030 C.ar   30  TYR30      -0.0009
     38  CE1        9.6310    6.1060    4.2470 C.ar   30  TYR30       0.0417
     39  CE2        9.2760    8.0210    2.8320 C.ar   30  TYR30       0.0417
     40  CZ         8.7840    7.0100    3.6110 C.ar   30  TYR30       0.1957
     41  OH         7.4990    6.7760    4.0850 O.3    30  TYR30      -0.2866
     42  N         14.1220    3.7430    3.8330 N.am   31  PRO31      -0.2716
     43  CA        14.1150    2.3930    3.2310 C.3    31  PRO31       0.1536
     44  C         12.7350    1.8120    2.8700 C.2    31  PRO31       0.2598
     45  O         12.6790    0.9820    1.9490 O.2    31  PRO31      -0.2715
     46  CB        14.8500    1.5380    4.2510 C.3    31  PRO31       0.0310
     47  CG        14.8270    2.3100    5.4810 C.3    31  PRO31       0.0237
     48  CD        14.8340    3.7400    5.1320 C.3    31  PRO31       0.0939
     49  N         11.6550    2.3110    3.4620 N.am   32  LYS32      -0.1978
     50  CA        10.2960    1.8710    3.1310 C.3    32  LYS32       0.1596
     51  C          9.8400    2.4660    1.8040 C.2    32  LYS32       0.2287
     52  O          8.9530    1.8890    1.2220 O.2    32  LYS32      -0.2864
     53  CB         9.2890    2.2760    4.2140 C.3    32  LYS32       0.0298
     54  CG         7.8780    1.7220    4.0360 C.3    32  LYS32       0.0038
     55  CD         7.0170    1.9280    5.2930 C.3    32  LYS32       0.0206
     56  CE         6.7790    3.3870    5.5890 C.3    32  LYS32       0.1093
     57  NZ         5.8800    3.9800    4.5670 N.3    32  LYS32      -0.1314
     58  N          4.9500   10.6170   11.1200 N.3    49  ARG49      -0.1245
     59  CA         6.0930   10.8720   11.9460 C.3    49  ARG49       0.1563
     60  C          5.9100   12.1900   12.6940 C.2    49  ARG49       0.2260
     61  O          4.8180   12.7110   12.7270 O.2    49  ARG49      -0.2867
     62  CB         7.3360   10.9290   11.0620 C.3    49  ARG49       0.0307
     63  CG         7.6600    9.6060   10.4270 C.3    49  ARG49       0.0489
     64  CD         8.9230    9.7130    9.5890 C.3    49  ARG49       0.2205
     65  NE         9.2510    8.4120    8.9070 N.pl3  49  ARG49      -0.0865
     66  CZ        10.4730    8.0340    8.5770 C.cat  49  ARG49       0.5346
     67  NH1       11.5400    8.7470    8.9110 N.pl3  49  ARG49       0.1354
     68  NH2       10.6140    6.8390    8.0410 N.pl3  49  ARG49       0.1354
     69  N         11.2600    9.1890   13.4380 N.3    68  TYR68      -0.1241
     70  CA        10.3750    8.0340   13.2200 C.3    68  TYR68       0.1605
     71  C         10.0650    7.2370   14.4570 C.2    68  TYR68       0.2264
     72  O          9.1800    6.3740   14.4330 O.2    68  TYR68      -0.2867
     73  CB        10.9130    7.1050   12.0890 C.3    68  TYR68       0.0534
     74  CG        12.2620    6.5010   12.3500 C.ar   68  TYR68      -0.0201
     75  CD1       13.3810    7.2530   12.0710 C.ar   68  TYR68      -0.0009
     76  CD2       12.4300    5.2640   12.9470 C.ar   68  TYR68      -0.0009
     77  CE1       14.6270    6.7400   12.2740 C.ar   68  TYR68       0.0417
     78  CE2       13.7050    4.7380   13.1640 C.ar   68  TYR68       0.0417
     79  CZ        14.8040    5.5440   12.7750 C.ar   68  TYR68       0.1957
     80  OH        16.0850    5.0740   12.9510 O.3    68  TYR68      -0.2866
     81  N         16.0730    9.6800   14.8490 N.3    78  LEU78      -0.1231
     82  CA        16.0670   10.6330   13.7210 C.3    78  LEU78       0.1693
     83  C         16.1870    9.8840   12.4390 C.2    78  LEU78       0.2593
     84  O         17.0490    9.0090   12.2890 O.2    78  LEU78      -0.2718
     85  CB        17.1650   11.6730   13.8880 C.3    78  LEU78       0.0284
     86  CG        17.3110   12.8040   12.8270 C.3    78  LEU78       0.0019
     87  CD1       17.8070   14.0210   13.5560 C.3    78  LEU78       0.0001
     88  CD2       18.2950   12.3090   11.7820 C.3    78  LEU78       0.0001
     89  N         15.3500   10.2940   11.4920 N.am   79  GLY79      -0.1942
     90  CA        15.3360    9.6880   10.1460 C.3    79  GLY79       0.2014
     91  C         14.9830   10.6720    9.0780 C.2    79  GLY79       0.2639
     92  O         14.9470   11.9100    9.2340 O.2    79  GLY79      -0.2714
     93  N         14.8680   10.0820    7.9090 N.am   80  ASN80      -0.1958
     94  CA        14.5830   10.8610    6.6470 C.3    80  ASN80       0.1819
     95  C         15.5710   12.0320    6.5030 C.2    80  ASN80       0.2621
     96  O         15.1600   13.1180    6.0130 O.2    80  ASN80      -0.2715
     97  CB        13.1570   11.4110    6.5350 C.3    80  ASN80       0.1195
     98  CG        12.0800   10.4030    6.2480 C.2    80  ASN80       0.2630
     99  OD1       10.9220   10.7210    6.3500 O.2    80  ASN80      -0.2716
    100  ND2       12.3990    9.1890    5.7940 N.am   80  ASN80      -0.0877
    101  N         16.8380   11.8250    6.7990 N.am   81  MET81      -0.1977
    102  CA        17.8820   12.8660    6.7210 C.3    81  MET81       0.1605
    103  C         18.2670   13.0660    5.2410 C.2    81  MET81       0.2287
    104  O         18.9090   12.1900    4.6870 O.2    81  MET81      -0.2864
    105  CB        19.1090   12.4400    7.6050 C.3    81  MET81       0.0413
    106  CG        20.3240   13.3780    7.6990 C.3    81  MET81       0.0598
    107  SD        19.9780   14.8280    8.7310 S.3    81  MET81      -0.1393
    108  CE        19.8490   15.8880    7.3430 C.3    81  MET81       0.0692
    109  N         20.2670    7.1630   16.0820 N.3   115  ILE115     -0.1231
    110  CA        20.3630    7.2450   14.5940 C.3   115  ILE115      0.1692
    111  C         20.7830    5.8740   14.1230 C.2   115  ILE115      0.2593
    112  O         21.7010    5.2550   14.6460 O.2   115  ILE115     -0.2718
    113  CB        21.3510    8.3530   14.1310 C.3   115  ILE115      0.0266
    114  CG1       20.9230    9.7230   14.6960 C.3   115  ILE115      0.0019
    115  CG2       21.3680    8.4680   12.6100 C.3   115  ILE115      0.0020
    116  CD1       21.7730   10.9260   14.2900 C.3   115  ILE115      0.0001
    117  N         20.1340    5.4160   13.0270 N.am  116  SER116     -0.1938
    118  CA        20.5430    4.2080   12.3620 C.3   116  SER116      0.2055
    119  C         21.0310    4.5920   10.9710 C.2   116  SER116      0.2643
    120  O         20.4310    5.4170   10.2500 O.2   116  SER116     -0.2714
    121  CB        19.3550    3.2630   12.1880 C.3   116  SER116      0.2130
    122  OG        18.9980    2.8490   13.5340 O.3   116  SER116     -0.2179
    123  N         22.1400    3.9740   10.5980 N.am  117  CYS117     -0.1953
    124  CA        22.7930    4.2530    9.3190 C.3   117  CYS117      0.1843
    125  C         23.1710    2.9610    8.6420 C.2   117  CYS117      0.2625
    126  O         23.7740    2.0910    9.2000 O.2   117  CYS117     -0.2714
    127  CB        24.0690    5.0290    9.5840 C.3   117  CYS117      0.0997
    128  SG        24.8520    5.7230    8.1860 S.3   117  CYS117     -0.0797
    129  N         22.8280    2.8210    7.3450 N.am  118  PHE118     -0.1974
    130  CA        23.2820    1.6230    6.5960 C.3   118  PHE118      0.1639
    131  C         24.7830    1.5870    6.3980 C.2   118  PHE118      0.2290
    132  O         25.4310    2.6590    6.2380 O.2   118  PHE118     -0.2864
    133  CB        22.5100    1.5610    5.2620 C.3   118  PHE118      0.0560
    134  CG        21.0460    1.2440    5.4340 C.ar  118  PHE118     -0.0200
    135  CD1       20.6500   -0.1000    5.7170 C.ar  118  PHE118     -0.0042
    136  CD2       20.0980    2.2290    5.4770 C.ar  118  PHE118     -0.0042
    137  CE1       19.2980   -0.3360    5.9460 C.ar  118  PHE118     -0.0003
    138  CE2       18.7700    1.9610    5.6290 C.ar  118  PHE118     -0.0003
    139  CZ        18.3690    0.6690    5.8520 C.ar  118  PHE118     -0.0000
    140  N         26.7570    3.7020    3.7190 N.3   121  ASN121     -0.1240
    141  CA        26.7870    5.1390    3.8660 C.3   121  ASN121      0.1653
    142  C         27.9560    5.6270    4.7540 C.2   121  ASN121      0.2266
    143  O         27.7840    6.0800    5.8810 O.2   121  ASN121     -0.2867
    144  CB        25.4040    5.5720    4.3720 C.3   121  ASN121      0.1155
    145  CG        25.1840    7.0220    4.2740 C.2   121  ASN121      0.2627
    146  OD1       25.9790    7.7920    3.6190 O.2   121  ASN121     -0.2716
    147  ND2       24.0840    7.4670    4.9030 N.am  121  ASN121     -0.0877
    148  N         28.0930   11.1360   11.8470 N.3   128  TYR128     -0.1241
    149  CA        27.4280   10.9240   13.1550 C.3   128  TYR128      0.1605
    150  C         28.5120   10.6940   14.2140 C.2   128  TYR128      0.2264
    151  O         28.3450   11.1150   15.3730 O.2   128  TYR128     -0.2867
    152  CB        26.3300    9.7910   13.0810 C.3   128  TYR128      0.0534
    153  CG        25.2520    9.8820   11.9220 C.ar  128  TYR128     -0.0201
    154  CD1       24.4450   11.0060   11.7630 C.ar  128  TYR128     -0.0009
    155  CD2       24.9950    8.8190   11.0830 C.ar  128  TYR128     -0.0009
    156  CE1       23.4750   11.1070   10.7700 C.ar  128  TYR128      0.0417
    157  CE2       24.0390    8.9250   10.0370 C.ar  128  TYR128      0.0417
    158  CZ        23.2520   10.0610    9.9140 C.ar  128  TYR128      0.1957
    159  OH        22.2520   10.2380    8.8820 O.3   128  TYR128     -0.2866
    160  N         19.4180   -6.2280    7.6800 N.3   141  ARG141     -0.1231
    161  CA        18.2480   -5.8030    6.9620 C.3   141  ARG141      0.1694
    162  C         18.4910   -6.2370    5.4900 C.2   141  ARG141      0.2592
    163  O         19.5530   -6.7560    5.1660 O.2   141  ARG141     -0.2718
    164  CB        18.0620   -4.2730    7.0040 C.3   141  ARG141      0.0321
    165  CG        17.7850   -3.6510    8.3620 C.3   141  ARG141      0.0489
    166  CD        16.4190   -4.0770    8.8370 C.3   141  ARG141      0.2205
    167  NE        16.0520   -3.2810   10.0080 N.pl3 141  ARG141     -0.0865
    168  CZ        16.2190   -3.7080   11.2580 C.cat 141  ARG141      0.5346
    169  NH1       16.6900   -4.9120   11.5010 N.pl3 141  ARG141      0.1354
    170  NH2       15.8690   -2.8910   12.2920 N.pl3 141  ARG141      0.1354
    171  N         17.4710   -6.0870    4.6710 N.am  142  HIS142     -0.1976
    172  CA        17.5450   -6.4040    3.2660 C.3   142  HIS142      0.1656
    173  C         17.2600   -5.2010    2.3830 C.2   142  HIS142      0.2291
    174  O         16.4170   -4.3810    2.6940 O.2   142  HIS142     -0.2864
    175  CB        16.6030   -7.5320    2.9350 C.3   142  HIS142      0.0771
    176  CG        17.0360   -8.8310    3.4900 C.ar  142  HIS142      0.0820
    177  ND1       16.7490   -9.2160    4.7750 N.ar  142  HIS142     -0.2267
    178  CD2       17.7990   -9.8160    2.9610 C.ar  142  HIS142      0.1154
    179  CE1       17.2500  -10.4240    4.9960 C.ar  142  HIS142      0.1986
    180  NE2       17.8750  -10.8220    3.9000 N.ar  142  HIS142     -0.2212
    181  N         22.6470   -2.6270    9.2790 N.3   151  LEU151     -0.1245
    182  CA        22.1670   -1.3640    9.7620 C.3   151  LEU151      0.1561
    183  C         22.8780   -1.0970   11.0760 C.2   151  LEU151      0.2260
    184  O         22.6980   -1.8730   12.0530 O.2   151  LEU151     -0.2867
    185  CB        20.7040   -1.4440    9.9800 C.3   151  LEU151      0.0270
    186  CG        20.0220   -0.1400   10.4200 C.3   151  LEU151      0.0019
    187  CD1       20.1210    0.9610    9.3800 C.3   151  LEU151      0.0001
    188  CD2       18.5300   -0.3970   10.6600 C.3   151  LEU151      0.0001
@<TRIPOS>BOND
     1     1     2    1
     2    23    22    1
     3     5     2    1
     4     5     6    1
     5    22    21   ar
     6    22    20   ar
     7    21    19   ar
     8     2     3    1
     9     6     7   ar
    10     6     8   ar
    11    19    17   ar
    12    20    18   ar
    13     7     9   ar
    14    52    51    2
    15     8    10   ar
    16    12     3   am
    17    12    13    1
    18     3     4    2
    19    51    50    1
    20    17    18   ar
    21    17    16    1
    22    45    44    2
    23    33    32    2
    24     9    11   ar
    25    29    28    1
    26    10    11   ar
    27   173   174    2
    28   173   172    1
    29    37    39   ar
    30    37    35   ar
    31    16    13    1
    32    39    40   ar
    33    44    43    1
    34    44    49   am
    35    13    14    1
    36   175   172    1
    37   175   176    1
    38    34    35    1
    39    34    31    1
    40   178   176   ar
    41   178   180   ar
    42    32    31    1
    43    32    42   am
    44    50    49    1
    45    50    53    1
    46    35    36   ar
    47    43    42    1
    48    43    46    1
    49    24    14   am
    50    24    25    1
    51   172   171    1
    52    28    25    1
    53   176   177   ar
    54    30    31    1
    55    30    26   am
    56    40    41    1
    57    40    38   ar
    58   146   145    2
    59   140   141    1
    60    14    15    2
    61    42    48    1
    62   141   144    1
    63   141   142    1
    64   180   179   ar
    65    36    38   ar
    66    54    53    1
    67    54    55    1
    68    25    26    1
    69    46    47    1
    70   145   144    1
    71   145   147   am
    72    26    27    2
    73    57    56    1
    74   171   162   am
    75   104   103    2
    76   142   143    2
    77   177   179   ar
    78    48    47    1
    79   163   162    2
    80   103   102    1
    81   133   134    1
    82   133   130    1
    83    55    56    1
    84   134   136   ar
    85   134   135   ar
    86   136   138   ar
    87   162   161    1
    88   138   139   ar
    89   135   137   ar
    90   100    98   am
    91   139   137   ar
    92    96    95    2
    93   132   131    2
    94    98    99    2
    95    98    97    1
    96   131   130    1
    97    95    94    1
    98    95   101   am
    99    97    94    1
   100   130   129    1
   101    94    93    1
   102   102   101    1
   103   102   105    1
   104   161   164    1
   105   161   160    1
   106   164   165    1
   107   108   107    1
   108   129   125   am
   109   105   106    1
   110   106   107    1
   111    93    91   am
   112    68    66    1
   113   128   127    1
   114   165   166    1
   115    66    65    2
   116    66    67    1
   117   125   126    2
   118   125   124    1
   119   166   167    1
   120   159   158    1
   121    65    64    1
   122    91    92    2
   123    91    90    1
   124   181   182    1
   125   124   127    1
   126   124   123    1
   127   187   186    1
   128    64    63    1
   129   182   185    1
   130   182   183    1
   131   158   157   ar
   132   158   156   ar
   133   185   186    1
   134   167   168    2
   135   157   155   ar
   136    90    89    1
   137   120   119    2
   138   186   188    1
   139    63    62    1
   140   123   119   am
   141   156   154   ar
   142   119   118    1
   143    62    59    1
   144   183   184    2
   145   155   153   ar
   146    58    59    1
   147   168   169    1
   148   168   170    1
   149    89    83   am
   150   154   153   ar
   151    88    86    1
   152   148   149    1
   153   153   152    1
   154    59    60    1
   155    75    77   ar
   156    75    74   ar
   157    73    74    1
   158    73    70    1
   159   121   118    1
   160   121   122    1
   161    77    79   ar
   162    84    83    2
   163    74    76   ar
   164   118   117    1
   165    83    82    1
   166   115   113    1
   167    60    61    2
   168    79    80    1
   169    79    78   ar
   170    86    87    1
   171    86    85    1
   172    76    78   ar
   173   117   111   am
   174   152   149    1
   175   149   150    1
   176    70    69    1
   177    70    71    1
   178    82    85    1
   179    82    81    1
   180   111   110    1
   181   111   112    2
   182   113   110    1
   183   113   114    1
   184   150   151    2
   185   116   114    1
   186    72    71    2
   187   110   109    1
