@<TRIPOS>MOLECULE
tmp/4kowA00.pdb
 197 196 0 0 0
SMALL
GASTEIGER

@<TRIPOS>ATOM
      1  N        -17.0240    4.8270    0.3120 N.3    27  PHE27      -0.1227
      2  CA       -17.0740    3.7390   -0.6390 C.3    27  PHE27       0.1736
      3  C        -17.6950    4.1750   -1.9470 C.2    27  PHE27       0.2595
      4  O        -17.1930    3.8160   -3.0480 O.2    27  PHE27      -0.2718
      5  CB       -17.7840    2.5350   -0.0420 C.3    27  PHE27       0.0547
      6  CG       -17.8070    1.3410   -0.9550 C.ar   27  PHE27      -0.0202
      7  CD1      -16.6350    0.6050   -1.1830 C.ar   27  PHE27      -0.0042
      8  CD2      -18.9480    0.9160   -1.5510 C.ar   27  PHE27      -0.0042
      9  CE1      -16.6490   -0.4880   -2.0420 C.ar   27  PHE27      -0.0003
     10  CE2      -18.9690   -0.2230   -2.3460 C.ar   27  PHE27      -0.0003
     11  CZ       -17.8010   -0.9040   -2.6030 C.ar   27  PHE27      -0.0000
     12  N        -18.7980    4.9160   -1.8980 N.am   28  TYR28      -0.1962
     13  CA       -19.5070    5.3300   -3.1210 C.3    28  TYR28       0.1771
     14  C        -18.7100    6.2010   -4.0020 C.2    28  TYR28       0.2620
     15  O        -18.9270    6.1710   -5.2200 O.2    28  TYR28      -0.2715
     16  CB       -20.8220    6.0730   -2.7640 C.3    28  TYR28       0.0574
     17  CG       -21.8290    5.3250   -1.9670 C.ar   28  TYR28      -0.0198
     18  CD1      -21.8770    3.9470   -1.9430 C.ar   28  TYR28      -0.0009
     19  CD2      -22.8040    6.0530   -1.2400 C.ar   28  TYR28      -0.0009
     20  CE1      -22.8730    3.2780   -1.1580 C.ar   28  TYR28       0.0417
     21  CE2      -23.7790    5.4270   -0.5470 C.ar   28  TYR28       0.0417
     22  CZ       -23.7820    4.0500   -0.4460 C.ar   28  TYR28       0.1957
     23  OH       -24.7840    3.4760    0.2560 O.3    28  TYR28      -0.2866
     24  N        -17.8250    7.0240   -3.4600 N.am   29  CYS29      -0.1954
     25  CA       -17.0400    7.9780   -4.2200 C.3    29  CYS29       0.1843
     26  C        -15.5820    7.5820   -4.4580 C.2    29  CYS29       0.2625
     27  O        -14.9390    8.1880   -5.3200 O.2    29  CYS29      -0.2714
     28  CB       -17.0880    9.3840   -3.6630 C.3    29  CYS29       0.0997
     29  SG       -16.2110    9.6090   -2.0980 S.3    29  CYS29      -0.0797
     30  N        -15.0970    6.6030   -3.7210 N.am   30  TYR30      -0.1960
     31  CA       -13.6760    6.2500   -3.7260 C.3    30  TYR30       0.1756
     32  C        -13.5290    4.8960   -3.1350 C.2    30  TYR30       0.2461
     33  O        -13.0170    4.7500   -1.9880 O.2    30  TYR30      -0.2730
     34  CB       -12.9000    7.3300   -2.9860 C.3    30  TYR30       0.0574
     35  CG       -11.3900    7.3220   -3.1290 C.ar   30  TYR30      -0.0198
     36  CD1      -10.6970    6.3070   -3.7050 C.ar   30  TYR30      -0.0009
     37  CD2      -10.6260    8.3950   -2.5870 C.ar   30  TYR30      -0.0009
     38  CE1       -9.2830    6.3570   -3.7740 C.ar   30  TYR30       0.0417
     39  CE2       -9.2660    8.4450   -2.6430 C.ar   30  TYR30       0.0417
     40  CZ        -8.5800    7.4070   -3.2140 C.ar   30  TYR30       0.1957
     41  OH        -7.2130    7.4750   -3.1780 O.3    30  TYR30      -0.2866
     42  N        -13.9360    3.8320   -3.8260 N.am   31  PRO31      -0.2716
     43  CA       -13.9980    2.5150   -3.2220 C.3    31  PRO31       0.1536
     44  C        -12.6120    1.9490   -2.8430 C.2    31  PRO31       0.2598
     45  O        -12.5500    1.0750   -1.9920 O.2    31  PRO31      -0.2715
     46  CB       -14.7050    1.6550   -4.3070 C.3    31  PRO31       0.0310
     47  CG       -14.5440    2.4170   -5.5830 C.3    31  PRO31       0.0237
     48  CD       -14.5930    3.8460   -5.1630 C.3    31  PRO31       0.0939
     49  N        -11.5210    2.4180   -3.4450 N.am   32  LYS32      -0.1978
     50  CA       -10.1760    1.9700   -3.0850 C.3    32  LYS32       0.1596
     51  C         -9.7310    2.5510   -1.7440 C.2    32  LYS32       0.2287
     52  O         -8.8310    1.9800   -1.1060 O.2    32  LYS32      -0.2864
     53  CB        -9.1730    2.3030   -4.1760 C.3    32  LYS32       0.0298
     54  CG        -7.8130    1.6210   -4.0530 C.3    32  LYS32       0.0038
     55  CD        -6.8700    2.0590   -5.1520 C.3    32  LYS32       0.0206
     56  CE        -5.5300    1.4140   -4.8730 C.3    32  LYS32       0.1093
     57  NZ        -4.7040    1.4230   -6.1110 N.3    32  LYS32      -0.1314
     58  N         -4.8030   10.7030  -11.1820 N.3    49  ARG49      -0.1245
     59  CA        -5.9660   11.0060  -11.9900 C.3    49  ARG49       0.1563
     60  C         -5.7500   12.2950  -12.7590 C.2    49  ARG49       0.2260
     61  O         -4.6400   12.8510  -12.7890 O.2    49  ARG49      -0.2867
     62  CB        -7.2000   11.0760  -11.1070 C.3    49  ARG49       0.0307
     63  CG        -7.5640    9.7460  -10.4610 C.3    49  ARG49       0.0489
     64  CD        -8.8150    9.8560   -9.5900 C.3    49  ARG49       0.2205
     65  NE        -9.0820    8.5870   -8.9170 N.pl3  49  ARG49      -0.0865
     66  CZ       -10.2970    8.1480   -8.6100 C.cat  49  ARG49       0.5346
     67  NH1      -10.4290    7.0000   -8.0100 N.pl3  49  ARG49       0.1354
     68  NH2      -11.3690    8.8300   -8.9400 N.pl3  49  ARG49       0.1354
     69  N        -10.9830    9.3570  -13.5680 N.3    68  TYR68      -0.1227
     70  CA       -10.0780    8.2010  -13.3410 C.3    68  TYR68       0.1736
     71  C         -9.7420    7.3730  -14.5820 C.2    68  TYR68       0.2595
     72  O         -8.8570    6.5140  -14.5450 O.2    68  TYR68      -0.2718
     73  CB       -10.5450    7.3050  -12.1670 C.3    68  TYR68       0.0548
     74  CG       -11.8850    6.6530  -12.3500 C.ar   68  TYR68      -0.0200
     75  CD1      -12.0390    5.4340  -12.9480 C.ar   68  TYR68      -0.0009
     76  CD2      -13.0540    7.3360  -11.9740 C.ar   68  TYR68      -0.0009
     77  CE1      -13.3160    4.8450  -13.1020 C.ar   68  TYR68       0.0417
     78  CE2      -14.2970    6.7820  -12.1280 C.ar   68  TYR68       0.0417
     79  CZ       -14.4240    5.5660  -12.7250 C.ar   68  TYR68       0.1957
     80  OH       -15.6960    4.9940  -12.8700 O.3    68  TYR68      -0.2866
     81  N        -10.4590    7.6720  -15.6620 N.am   69  GLN69      -0.1979
     82  CA       -10.1380    7.1650  -16.9810 C.3    69  GLN69       0.1601
     83  C        -10.3010    8.3200  -17.9390 C.2    69  GLN69       0.2287
     84  O        -11.1690    9.1700  -17.8090 O.2    69  GLN69      -0.2864
     85  CB       -11.0570    6.0110  -17.4750 C.3    69  GLN69       0.0394
     86  CG       -11.0390    4.8270  -16.5210 C.3    69  GLN69       0.0908
     87  CD       -12.0410    3.7610  -16.8430 C.2    69  GLN69       0.2608
     88  OE1      -12.9580    3.9580  -17.6350 O.2    69  GLN69      -0.2717
     89  NE2      -11.8690    2.5840  -16.1980 N.am   69  GLN69      -0.0878
     90  N        -15.8330    9.7750  -14.8980 N.3    78  LEU78      -0.1231
     91  CA       -15.8980   10.7300  -13.8020 C.3    78  LEU78       0.1693
     92  C        -16.0700   10.0170  -12.4770 C.2    78  LEU78       0.2593
     93  O        -16.9620    9.1860  -12.3370 O.2    78  LEU78      -0.2718
     94  CB       -17.0760   11.6880  -14.0490 C.3    78  LEU78       0.0284
     95  CG       -17.2340   12.9190  -13.1390 C.3    78  LEU78       0.0019
     96  CD1      -18.1460   13.9130  -13.8640 C.3    78  LEU78       0.0001
     97  CD2      -17.8300   12.4760  -11.8140 C.3    78  LEU78       0.0001
     98  N        -15.2250   10.3590  -11.5070 N.am   79  GLY79      -0.1942
     99  CA       -15.3380    9.7880  -10.1570 C.3    79  GLY79       0.2014
    100  C        -14.8720   10.7750   -9.0840 C.2    79  GLY79       0.2639
    101  O        -14.7410   11.9620   -9.2890 O.2    79  GLY79      -0.2714
    102  N        -14.7240   10.1860   -7.8750 N.am   80  ASN80      -0.1958
    103  CA       -14.4400   10.9510   -6.6470 C.3    80  ASN80       0.1819
    104  C        -15.4330   12.1110   -6.5030 C.2    80  ASN80       0.2621
    105  O        -15.0310   13.1990   -6.0470 O.2    80  ASN80      -0.2715
    106  CB       -13.0060   11.5080   -6.6060 C.3    80  ASN80       0.1195
    107  CG       -11.8970   10.5100   -6.2960 C.2    80  ASN80       0.2630
    108  OD1      -10.7150   10.8490   -6.4130 O.2    80  ASN80      -0.2716
    109  ND2      -12.1820    9.3030   -5.8230 N.am   80  ASN80      -0.0877
    110  N        -16.7080   11.9030   -6.8760 N.am   81  MET81      -0.1977
    111  CA       -17.6890   12.9940   -6.7990 C.3    81  MET81       0.1605
    112  C        -18.1180   13.1420   -5.3560 C.2    81  MET81       0.2287
    113  O        -18.7480   12.2170   -4.7840 O.2    81  MET81      -0.2864
    114  CB       -18.8850   12.6810   -7.7340 C.3    81  MET81       0.0413
    115  CG       -20.0640   13.6460   -7.6770 C.3    81  MET81       0.0598
    116  SD       -19.7540   15.1590   -8.6430 S.3    81  MET81      -0.1393
    117  CE       -19.6850   16.2030   -7.2440 C.3    81  MET81       0.0692
    118  N        -20.0540    7.2670  -16.1140 N.3   115  ILE115     -0.1231
    119  CA       -20.1780    7.4050  -14.6370 C.3   115  ILE115      0.1692
    120  C        -20.6320    6.0630  -14.1720 C.2   115  ILE115      0.2593
    121  O        -21.6350    5.5320  -14.6360 O.2   115  ILE115     -0.2718
    122  CB       -21.1470    8.5100  -14.2390 C.3   115  ILE115      0.0266
    123  CG1      -20.6480    9.8930  -14.6600 C.3   115  ILE115      0.0019
    124  CG2      -21.4140    8.4450  -12.7310 C.3   115  ILE115      0.0020
    125  CD1      -21.6400   11.0120  -14.3280 C.3   115  ILE115      0.0001
    126  N        -19.9400    5.5080  -13.1590 N.am  116  SER116     -0.1938
    127  CA       -20.3050    4.2940  -12.5010 C.3   116  SER116      0.2055
    128  C        -20.7540    4.6050  -11.1010 C.2   116  SER116      0.2643
    129  O        -20.1540    5.3810  -10.3760 O.2   116  SER116     -0.2714
    130  CB       -19.1680    3.3340  -12.4460 C.3   116  SER116      0.2130
    131  OG       -18.9020    2.8840  -13.8060 O.3   116  SER116     -0.2179
    132  N        -21.8450    4.0360  -10.6820 N.am  117  CYS117     -0.1953
    133  CA       -22.4490    4.3440   -9.3930 C.3   117  CYS117      0.1843
    134  C        -22.8530    3.0570   -8.6900 C.2   117  CYS117      0.2625
    135  O        -23.5080    2.1980   -9.2540 O.2   117  CYS117     -0.2714
    136  CB       -23.7170    5.1840   -9.6520 C.3   117  CYS117      0.0997
    137  SG       -24.5640    5.7940   -8.2020 S.3   117  CYS117     -0.0797
    138  N        -22.5370    2.9410   -7.4020 N.am  118  PHE118     -0.1974
    139  CA       -22.9070    1.7690   -6.6370 C.3   118  PHE118      0.1639
    140  C        -24.3880    1.6900   -6.4120 C.2   118  PHE118      0.2290
    141  O        -25.0740    2.7210   -6.2270 O.2   118  PHE118     -0.2864
    142  CB       -22.1100    1.6770   -5.3150 C.3   118  PHE118      0.0560
    143  CG       -20.6910    1.3550   -5.5340 C.ar  118  PHE118     -0.0200
    144  CD1      -20.2940    0.0330   -5.7750 C.ar  118  PHE118     -0.0042
    145  CD2      -19.7130    2.3320   -5.5330 C.ar  118  PHE118     -0.0042
    146  CE1      -18.9840   -0.2250   -6.0180 C.ar  118  PHE118     -0.0003
    147  CE2      -18.4080    2.0610   -5.8020 C.ar  118  PHE118     -0.0003
    148  CZ       -18.0270    0.7400   -6.0000 C.ar  118  PHE118     -0.0000
    149  N        -26.4220    3.7330   -3.6680 N.3   121  ASN121     -0.1240
    150  CA       -26.4590    5.1630   -3.7520 C.3   121  ASN121      0.1653
    151  C        -27.6110    5.6490   -4.6410 C.2   121  ASN121      0.2266
    152  O        -27.4160    6.0630   -5.7870 O.2   121  ASN121     -0.2867
    153  CB       -25.0730    5.6440   -4.2630 C.3   121  ASN121      0.1155
    154  CG       -24.9190    7.1160   -4.2740 C.2   121  ASN121      0.2627
    155  OD1      -25.8040    7.8300   -3.7460 O.2   121  ASN121     -0.2716
    156  ND2      -23.8840    7.5680   -4.9650 N.am  121  ASN121     -0.0877
    157  N        -27.7650   11.1190  -11.7530 N.3   128  TYR128     -0.1241
    158  CA       -27.1640   10.8900  -13.0760 C.3   128  TYR128      0.1605
    159  C        -28.2550   10.6290  -14.0880 C.2   128  TYR128      0.2264
    160  O        -28.1270   11.0850  -15.2480 O.2   128  TYR128     -0.2867
    161  CB       -26.1190    9.7650  -13.0200 C.3   128  TYR128      0.0534
    162  CG       -25.0670    9.9200  -11.8800 C.ar  128  TYR128     -0.0201
    163  CD1      -24.3620   11.0840  -11.7530 C.ar  128  TYR128     -0.0009
    164  CD2      -24.7190    8.8720  -11.0800 C.ar  128  TYR128     -0.0009
    165  CE1      -23.3630   11.2040  -10.7410 C.ar  128  TYR128      0.0417
    166  CE2      -23.8340    9.0220  -10.0430 C.ar  128  TYR128      0.0417
    167  CZ       -23.1540   10.1510   -9.9170 C.ar  128  TYR128      0.1957
    168  OH       -22.1690   10.3580   -8.8910 O.3   128  TYR128     -0.2866
    169  N        -18.9520   -6.0210   -7.7400 N.3   141  ARG141     -0.1231
    170  CA       -17.8170   -5.5630   -6.9630 C.3   141  ARG141      0.1694
    171  C        -18.0520   -6.0270   -5.5290 C.2   141  ARG141      0.2592
    172  O        -19.0700   -6.5830   -5.1740 O.2   141  ARG141     -0.2718
    173  CB       -17.6820   -4.0200   -6.9770 C.3   141  ARG141      0.0321
    174  CG       -17.4630   -3.4550   -8.3730 C.3   141  ARG141      0.0489
    175  CD       -16.0440   -3.6720   -8.8380 C.3   141  ARG141      0.2205
    176  NE       -15.7480   -3.0030  -10.1430 N.pl3 141  ARG141     -0.0865
    177  CZ       -15.9110   -3.5420  -11.3220 C.cat 141  ARG141      0.5346
    178  NH1      -16.3300   -4.7750  -11.4450 N.pl3 141  ARG141      0.1354
    179  NH2      -15.6420   -2.8320  -12.4460 N.pl3 141  ARG141      0.1354
    180  N        -17.0180   -5.8810   -4.7220 N.am  142  HIS142     -0.1976
    181  CA       -17.0630   -6.2410   -3.3070 C.3   142  HIS142      0.1656
    182  C        -16.7770   -5.0620   -2.4000 C.2   142  HIS142      0.2291
    183  O        -15.9190   -4.2280   -2.7180 O.2   142  HIS142     -0.2864
    184  CB       -16.0870   -7.3470   -3.0110 C.3   142  HIS142      0.0771
    185  CG       -16.5520   -8.6450   -3.5310 C.ar  142  HIS142      0.0820
    186  ND1      -16.3410   -9.0180   -4.8230 N.ar  142  HIS142     -0.2267
    187  CD2      -17.1860   -9.6860   -2.9260 C.ar  142  HIS142      0.1154
    188  CE1      -16.8130  -10.2370   -5.0230 C.ar  142  HIS142      0.1986
    189  NE2      -17.3290  -10.6720   -3.8780 N.ar  142  HIS142     -0.2212
    190  N        -22.2840   -2.5100   -9.3080 N.3   151  LEU151     -0.1245
    191  CA       -21.8290   -1.2640   -9.8500 C.3   151  LEU151      0.1561
    192  C        -22.5770   -0.9960  -11.1350 C.2   151  LEU151      0.2260
    193  O        -22.4430   -1.7780  -12.0890 O.2   151  LEU151     -0.2867
    194  CB       -20.3170   -1.3030  -10.0830 C.3   151  LEU151      0.0270
    195  CG       -19.7160    0.0250  -10.6080 C.3   151  LEU151      0.0019
    196  CD1      -19.7860    1.1120   -9.5680 C.3   151  LEU151      0.0001
    197  CD2      -18.3140   -0.2170  -11.0520 C.3   151  LEU151      0.0001
@<TRIPOS>BOND
     1    83    84    2
     2    83    82    1
     3    88    87    2
     4    85    82    1
     5    85    86    1
     6    82    81    1
     7    87    86    1
     8    87    89   am
     9   118   119    1
    10    81    71   am
    11   160   159    2
    12    90    91    1
    13   123   125    1
    14   123   122    1
    15   119   122    1
    16   119   120    1
    17   121   120    2
    18    71    72    2
    19    71    70    1
    20   122   124    1
    21   120   126   am
    22   159   158    1
    23    94    91    1
    24    94    95    1
    25    96    95    1
    26   131   130    1
    27    91    92    1
    28    69    70    1
    29    70    73    1
    30   126   127    1
    31    95    97    1
    32    77    75   ar
    33    77    79   ar
    34   158   161    1
    35   158   157    1
    36   161   162    1
    37    75    74   ar
    38    80    79    1
    39    61    60    2
    40    60    59    1
    41    79    78   ar
    42   127   130    1
    43   127   128    1
    44    92    93    2
    45    92    98   am
    46   179   177    1
    47    74    73    1
    48    74    76   ar
    49    78    76   ar
    50   193   192    2
    51    59    58    1
    52    59    62    1
    53   162   163   ar
    54   162   164   ar
    55   163   165   ar
    56    98    99    1
    57   178   177    1
    58   177   176    2
    59   192   191    1
    60    62    63    1
    61   128   132   am
    62   128   129    2
    63   164   166   ar
    64   197   195    1
    65   165   167   ar
    66   132   133    1
    67   195   194    1
    68   195   196    1
    69    63    64    1
    70    99   100    1
    71   176   175    1
    72   194   191    1
    73   166   167   ar
    74   167   168    1
    75   191   190    1
    76   136   133    1
    77   136   137    1
    78    64    65    1
    79   133   134    1
    80   101   100    2
    81   135   134    2
    82   100   102   am
    83    68    66    1
    84    65    66    2
    85   175   174    1
    86   134   138   am
    87   116   115    1
    88   116   117    1
    89    66    67    1
    90   174   173    1
    91   102   103    1
    92   169   170    1
    93   114   115    1
    94   114   111    1
    95   138   139    1
    96   173   170    1
    97   170   171    1
    98   110   111    1
    99   110   104   am
   100   111   112    1
   101   103   106    1
   102   103   104    1
   103   139   140    1
   104   139   142    1
   105   106   107    1
   106   104   105    2
   107   108   107    2
   108   140   141    2
   109   107   109   am
   110    57    56    1
   111   146   148   ar
   112   146   144   ar
   113   148   147   ar
   114   147   145   ar
   115   152   151    2
   116   144   143   ar
   117    47    48    1
   118    47    46    1
   119   143   145   ar
   120   143   142    1
   121   171   172    2
   122   171   180   am
   123   112   113    2
   124    27    26    2
   125    15    14    2
   126    48    42    1
   127    55    56    1
   128    55    54    1
   129   188   186   ar
   130   188   189   ar
   131   156   154   am
   132   186   185   ar
   133   180   181    1
   134   151   150    1
   135    26    25    1
   136    26    30   am
   137    46    43    1
   138   154   153    1
   139   154   155    2
   140   153   150    1
   141    25    28    1
   142    25    24    1
   143    53    54    1
   144    53    50    1
   145    14    24   am
   146    14    13    1
   147   189   187   ar
   148    42    43    1
   149    42    32   am
   150    38    36   ar
   151    38    40   ar
   152   150   149    1
   153    31    30    1
   154    31    32    1
   155    31    34    1
   156    36    35   ar
   157    28    29    1
   158   185   184    1
   159   185   187   ar
   160    49    50    1
   161    49    44   am
   162   181   184    1
   163   181   182    1
   164    43    44    1
   165    40    41    1
   166    40    39   ar
   167    32    33    2
   168    35    34    1
   169    35    37   ar
   170    13    16    1
   171    13    12    1
   172    50    51    1
   173     4     3    2
   174    44    45    2
   175    16    17    1
   176   183   182    2
   177    39    37   ar
   178    11    10   ar
   179    11     9   ar
   180    10     8   ar
   181     9     7   ar
   182    17    18   ar
   183    17    19   ar
   184     3    12   am
   185     3     2    1
   186    18    20   ar
   187    51    52    2
   188     8     6   ar
   189    19    21   ar
   190     7     6   ar
   191    20    22   ar
   192     6     5    1
   193     2     5    1
   194     2     1    1
   195    21    22   ar
   196    22    23    1
