@<TRIPOS>MOLECULE
tmp/4koxA00.pdb
 174 173 0 0 0
SMALL
GASTEIGER

@<TRIPOS>ATOM
      1  N        -11.9730    4.7450  -19.8260 N.3    27  PHE27      -0.1227
      2  CA       -11.9940    3.6690  -18.8000 C.3    27  PHE27       0.1736
      3  C        -11.3440    4.1220  -17.5560 C.2    27  PHE27       0.2595
      4  O        -11.8590    3.8420  -16.4720 O.2    27  PHE27      -0.2718
      5  CB       -11.2460    2.5150  -19.3850 C.3    27  PHE27       0.0547
      6  CG       -11.2390    1.3130  -18.5190 C.ar   27  PHE27      -0.0202
      7  CD1      -12.3950    0.6370  -18.2380 C.ar   27  PHE27      -0.0042
      8  CD2      -10.0540    0.8780  -17.9940 C.ar   27  PHE27      -0.0042
      9  CE1      -12.3760   -0.4890  -17.4260 C.ar   27  PHE27      -0.0003
     10  CE2      -10.0300   -0.2220  -17.1830 C.ar   27  PHE27      -0.0003
     11  CZ       -11.2200   -0.9130  -16.9170 C.ar   27  PHE27      -0.0000
     12  N        -10.2410    4.8590  -17.6730 N.am   28  TYR28      -0.1962
     13  CA        -9.5320    5.2570  -16.4280 C.3    28  TYR28       0.1771
     14  C        -10.3790    6.1660  -15.5590 C.2    28  TYR28       0.2620
     15  O        -10.1910    6.1550  -14.3190 O.2    28  TYR28      -0.2715
     16  CB        -8.2090    5.9920  -16.7170 C.3    28  TYR28       0.0574
     17  CG        -7.1950    5.2580  -17.4960 C.ar   28  TYR28      -0.0198
     18  CD1       -7.1590    3.8850  -17.5270 C.ar   28  TYR28      -0.0009
     19  CD2       -6.2040    5.9830  -18.1870 C.ar   28  TYR28      -0.0009
     20  CE1       -6.2230    3.2240  -18.2540 C.ar   28  TYR28       0.0417
     21  CE2       -5.2740    5.3340  -18.9430 C.ar   28  TYR28       0.0417
     22  CZ        -5.2630    3.9720  -18.9630 C.ar   28  TYR28       0.1957
     23  OH        -4.3100    3.3610  -19.6840 O.3    28  TYR28      -0.2866
     24  N        -11.2150    7.0300  -16.1430 N.am   29  CYS29      -0.1954
     25  CA       -11.9820    7.9970  -15.3980 C.3    29  CYS29       0.1843
     26  C        -13.4340    7.6240  -15.1390 C.2    29  CYS29       0.2625
     27  O        -14.1060    8.2500  -14.2970 O.2    29  CYS29      -0.2714
     28  CB       -11.8890    9.4120  -15.9230 C.3    29  CYS29       0.0997
     29  SG       -12.7700    9.5710  -17.5260 S.3    29  CYS29      -0.0797
     30  N        -13.9330    6.6190  -15.8320 N.am   30  TYR30      -0.1960
     31  CA       -15.3270    6.2620  -15.7590 C.3    30  TYR30       0.1756
     32  C        -15.4700    4.8460  -16.3410 C.2    30  TYR30       0.2461
     33  O        -15.9690    4.6480  -17.4860 O.2    30  TYR30      -0.2730
     34  CB       -16.1370    7.2980  -16.5280 C.3    30  TYR30       0.0574
     35  CG       -17.6070    7.2460  -16.3300 C.ar   30  TYR30      -0.0198
     36  CD1      -18.2350    6.2180  -15.6730 C.ar   30  TYR30      -0.0009
     37  CD2      -18.3770    8.2920  -16.8090 C.ar   30  TYR30      -0.0009
     38  CE1      -19.6270    6.2330  -15.5020 C.ar   30  TYR30       0.0417
     39  CE2      -19.7410    8.2640  -16.7110 C.ar   30  TYR30       0.0417
     40  CZ       -20.3340    7.2630  -16.0650 C.ar   30  TYR30       0.1957
     41  OH       -21.6630    7.3250  -15.9930 O.3    30  TYR30      -0.2866
     42  N        -14.9810    3.8600  -15.6100 N.am   31  PRO31      -0.2716
     43  CA       -14.9720    2.5100  -16.1500 C.3    31  PRO31       0.1536
     44  C        -16.3090    1.9400  -16.5570 C.2    31  PRO31       0.2598
     45  O        -16.2780    1.0560  -17.3880 O.2    31  PRO31      -0.2715
     46  CB       -14.2570    1.6600  -15.0770 C.3    31  PRO31       0.0310
     47  CG       -14.3030    2.4620  -13.8520 C.3    31  PRO31       0.0237
     48  CD       -14.3810    3.8980  -14.2580 C.3    31  PRO31       0.0939
     49  N        -17.4230    2.3600  -15.9710 N.am   32  LYS32      -0.1978
     50  CA       -18.7640    1.9070  -16.3910 C.3    32  LYS32       0.1596
     51  C        -19.2430    2.5460  -17.6590 C.2    32  LYS32       0.2287
     52  O        -20.1500    1.9730  -18.2830 O.2    32  LYS32      -0.2864
     53  CB       -19.8330    2.1500  -15.3260 C.3    32  LYS32       0.0298
     54  CG       -19.5260    1.5970  -13.9310 C.3    32  LYS32       0.0038
     55  CD       -19.4480    0.0840  -13.8980 C.3    32  LYS32       0.0206
     56  CE       -19.1410   -0.4090  -12.5040 C.3    32  LYS32       0.1093
     57  NZ       -17.8310    0.0970  -12.0070 N.3    32  LYS32      -0.1314
     58  N        -24.2010   10.8500   -8.4120 N.3    49  ARG49      -0.1245
     59  CA       -23.0090   11.1620   -7.6410 C.3    49  ARG49       0.1563
     60  C        -23.2070   12.4410   -6.8790 C.2    49  ARG49       0.2260
     61  O        -24.3390   12.9690   -6.7510 O.2    49  ARG49      -0.2867
     62  CB       -21.7840   11.1600   -8.5010 C.3    49  ARG49       0.0307
     63  CG       -21.5180    9.8310   -9.1000 C.3    49  ARG49       0.0489
     64  CD       -20.2700    9.9360   -9.9130 C.3    49  ARG49       0.2205
     65  NE       -19.9860    8.6660  -10.5820 N.pl3  49  ARG49      -0.0865
     66  CZ       -18.7810    8.2240  -10.9260 C.cat  49  ARG49       0.5346
     67  NH1      -18.6860    7.0760  -11.5560 N.pl3  49  ARG49       0.1354
     68  NH2      -17.6660    8.8990  -10.6440 N.pl3  49  ARG49       0.1354
     69  N        -17.7970    9.3790   -6.2010 N.3    68  TYR68      -0.1241
     70  CA       -18.6740    8.2220   -6.4840 C.3    68  TYR68       0.1605
     71  C        -19.0980    7.4910   -5.2510 C.2    68  TYR68       0.2264
     72  O        -20.0300    6.7050   -5.3160 O.2    68  TYR68      -0.2867
     73  CB       -18.1180    7.2680   -7.5360 C.3    68  TYR68       0.0534
     74  CG       -16.9370    6.4870   -7.1140 C.ar   68  TYR68      -0.0201
     75  CD1      -17.1130    5.2890   -6.4840 C.ar   68  TYR68      -0.0009
     76  CD2      -15.6500    6.9500   -7.2650 C.ar   68  TYR68      -0.0009
     77  CE1      -16.0510    4.5270   -6.0650 C.ar   68  TYR68       0.0417
     78  CE2      -14.5660    6.1810   -6.8180 C.ar   68  TYR68       0.0417
     79  CZ       -14.7800    4.9790   -6.2380 C.ar   68  TYR68       0.1957
     80  OH       -13.7650    4.1770   -5.7510 O.3    68  TYR68      -0.2866
     81  N        -13.0580    9.7760   -4.7840 N.3    78  LEU78      -0.1231
     82  CA       -12.9880   10.6920   -5.9190 C.3    78  LEU78       0.1693
     83  C        -13.2370    9.9530   -7.1900 C.2    78  LEU78       0.2593
     84  O        -12.7660    8.8500   -7.3420 O.2    78  LEU78      -0.2718
     85  CB       -11.6150   11.3160   -5.9740 C.3    78  LEU78       0.0284
     86  CG       -11.4560   12.3740   -7.1180 C.3    78  LEU78       0.0019
     87  CD1      -11.8960   13.6620   -6.5880 C.3    78  LEU78       0.0001
     88  CD2      -10.0120   12.3930   -7.5410 C.3    78  LEU78       0.0001
     89  N        -14.0320   10.5130   -8.0800 N.am   79  GLY79      -0.1942
     90  CA       -14.3910    9.8310   -9.2980 C.3    79  GLY79       0.2014
     91  C        -14.4000   10.7800  -10.4990 C.2    79  GLY79       0.2639
     92  O        -14.3590   11.9930  -10.3330 O.2    79  GLY79      -0.2714
     93  N        -14.4530   10.2210  -11.6810 N.am   80  ASN80      -0.1958
     94  CA       -14.6620   11.0180  -12.9220 C.3    80  ASN80       0.1819
     95  C        -13.6680   12.1290  -13.0490 C.2    80  ASN80       0.2621
     96  O        -14.0180   13.1940  -13.5520 O.2    80  ASN80      -0.2715
     97  CB       -16.0970   11.5910  -13.0410 C.3    80  ASN80       0.1195
     98  CG       -17.1560   10.5880  -13.3600 C.2    80  ASN80       0.2630
     99  OD1      -18.3290   10.8430  -13.1600 O.2    80  ASN80      -0.2716
    100  ND2      -16.8020    9.4050  -13.7840 N.am   80  ASN80      -0.0877
    101  N        -12.3980   11.9120  -12.6900 N.am   81  MET81      -0.1977
    102  CA       -11.4010   12.9600  -12.8040 C.3    81  MET81       0.1605
    103  C        -10.9510   13.1280  -14.2560 C.2    81  MET81       0.2287
    104  O        -10.2850   12.2540  -14.7620 O.2    81  MET81      -0.2864
    105  CB       -10.2210   12.5740  -11.9120 C.3    81  MET81       0.0413
    106  CG        -9.0690   13.5050  -11.9410 C.3    81  MET81       0.0598
    107  SD        -9.2980   15.0270  -10.9900 S.3    81  MET81      -0.1393
    108  CE        -9.2990   16.1020  -12.3440 C.3    81  MET81       0.0692
    109  N         -8.8810    7.1770   -3.5040 N.3   115  ILE115     -0.1231
    110  CA        -8.7550    7.3010   -4.9720 C.3   115  ILE115      0.1692
    111  C         -8.3840    5.9280   -5.4860 C.2   115  ILE115      0.2592
    112  O         -7.4310    5.3030   -4.9440 O.2   115  ILE115     -0.2718
    113  CB        -7.7230    8.3730   -5.4140 C.3   115  ILE115      0.0266
    114  CG1       -8.0860    9.7750   -4.8490 C.3   115  ILE115      0.0019
    115  CG2       -7.5610    8.3660   -6.9750 C.3   115  ILE115      0.0020
    116  CD1       -7.0830   10.8720   -5.2390 C.3   115  ILE115      0.0001
    117  N         -9.1010    5.4590   -6.5040 N.am  116  SER116     -0.1952
    118  CA        -8.7030    4.2190   -7.1830 C.3   116  SER116      0.1924
    119  C         -8.2340    4.5470   -8.5750 C.2   116  SER116      0.2314
    120  O         -8.8680    5.3240   -9.3010 O.2   116  SER116     -0.2863
    121  CB        -9.8210    3.2310   -7.2370 C.3   116  SER116      0.2116
    122  OG       -10.2140    2.8910   -5.9110 O.3   116  SER116     -0.2180
    123  N         -6.3520    2.9350  -12.1630 N.3   118  PHE118     -0.1241
    124  CA        -5.9830    1.7370  -12.9090 C.3   118  PHE118      0.1605
    125  C         -4.5160    1.7110  -13.1340 C.2   118  PHE118      0.2264
    126  O         -3.8710    2.7190  -13.2610 O.2   118  PHE118     -0.2867
    127  CB        -6.7940    1.6530  -14.2430 C.3   118  PHE118      0.0534
    128  CG        -8.2460    1.3100  -14.0320 C.ar  118  PHE118     -0.0203
    129  CD1       -8.6000   -0.0130  -13.8070 C.ar  118  PHE118     -0.0042
    130  CD2       -9.2310    2.3070  -13.9830 C.ar  118  PHE118     -0.0042
    131  CE1       -9.9080   -0.3600  -13.5640 C.ar  118  PHE118     -0.0003
    132  CE2      -10.5630    1.9530  -13.7740 C.ar  118  PHE118     -0.0003
    133  CZ       -10.8860    0.6320  -13.5410 C.ar  118  PHE118     -0.0000
    134  N         -1.1220   11.1320   -7.7920 N.3   128  TYR128     -0.1241
    135  CA        -1.7430   10.9020   -6.4970 C.3   128  TYR128      0.1605
    136  C         -0.6750   10.6600   -5.4410 C.2   128  TYR128      0.2264
    137  O         -0.8440   11.0600   -4.2900 O.2   128  TYR128     -0.2867
    138  CB        -2.7800    9.7630   -6.5380 C.3   128  TYR128      0.0534
    139  CG        -3.8230    9.9260   -7.6580 C.ar  128  TYR128     -0.0201
    140  CD1       -4.4360   11.1150   -7.9020 C.ar  128  TYR128     -0.0009
    141  CD2       -4.1800    8.8450   -8.4510 C.ar  128  TYR128     -0.0009
    142  CE1       -5.3810   11.2520   -8.9400 C.ar  128  TYR128      0.0417
    143  CE2       -5.1020    8.9690   -9.4900 C.ar  128  TYR128      0.0417
    144  CZ        -5.7120   10.1670   -9.7170 C.ar  128  TYR128      0.1957
    145  OH        -6.6350   10.2980  -10.7510 O.3   128  TYR128     -0.2866
    146  N         -9.9050   -6.1440  -11.8450 N.3   141  ARG141     -0.1231
    147  CA       -11.0630   -5.6840  -12.5770 C.3   141  ARG141      0.1694
    148  C        -10.8480   -6.1330  -14.0260 C.2   141  ARG141      0.2592
    149  O         -9.8040   -6.6780  -14.3640 O.2   141  ARG141     -0.2718
    150  CB       -11.2270   -4.1690  -12.5350 C.3   141  ARG141      0.0321
    151  CG       -11.5760   -3.6200  -11.1940 C.3   141  ARG141      0.0489
    152  CD       -12.9410   -4.0920  -10.7060 C.3   141  ARG141      0.2205
    153  NE       -13.2100   -3.3440   -9.4680 N.pl3 141  ARG141     -0.0865
    154  CZ       -13.0610   -3.7800   -8.2160 C.cat 141  ARG141      0.5346
    155  NH1      -12.6820   -5.0240   -7.9620 N.pl3 141  ARG141      0.1354
    156  NH2      -13.3390   -2.8970   -7.1940 N.pl3 141  ARG141      0.1354
    157  N        -11.8370   -5.8740  -14.8520 N.am  142  HIS142     -0.1976
    158  CA       -11.7620   -6.1980  -16.2440 C.3   142  HIS142      0.1656
    159  C        -12.0600   -5.0020  -17.1310 C.2   142  HIS142      0.2291
    160  O        -12.9510   -4.2180  -16.8190 O.2   142  HIS142     -0.2864
    161  CB       -12.7780   -7.2750  -16.5730 C.3   142  HIS142      0.0771
    162  CG       -12.4080   -8.5980  -16.0190 C.ar  142  HIS142      0.0820
    163  ND1      -12.6120   -8.9300  -14.6970 N.ar  142  HIS142     -0.2267
    164  CD2      -11.8180   -9.6710  -16.5920 C.ar  142  HIS142      0.1154
    165  CE1      -12.1590  -10.1530  -14.4740 C.ar  142  HIS142      0.1986
    166  NE2      -11.7030  -10.6390  -15.6210 N.ar  142  HIS142     -0.2212
    167  N         -6.6820   -2.6100  -10.2710 N.3   151  LEU151     -0.1245
    168  CA        -7.1220   -1.3200   -9.7560 C.3   151  LEU151      0.1561
    169  C         -6.3990   -1.0460   -8.4500 C.2   151  LEU151      0.2260
    170  O         -6.5990   -1.8290   -7.5050 O.2   151  LEU151     -0.2867
    171  CB        -8.6180   -1.3410   -9.6390 C.3   151  LEU151      0.0270
    172  CG        -9.2400   -0.0350   -9.1130 C.3   151  LEU151      0.0019
    173  CD1       -9.0250    1.0990  -10.0970 C.3   151  LEU151      0.0001
    174  CD2      -10.7130   -0.2340   -8.7730 C.3   151  LEU151      0.0001
@<TRIPOS>BOND
     1     1     2    1
     2    23    22    1
     3     5     2    1
     4     5     6    1
     5    22    21   ar
     6    22    20   ar
     7    21    19   ar
     8     2     3    1
     9     6     7   ar
    10     6     8   ar
    11    52    51    2
    12    20    18   ar
    13     7     9   ar
    14    19    17   ar
    15     8    10   ar
    16    12     3   am
    17    12    13    1
    18    51    50    1
    19     3     4    2
    20    18    17   ar
    21    29    28    1
    22    17    16    1
    23    33    32    2
    24     9    11   ar
    25    45    44    2
    26    10    11   ar
    27   159   160    2
    28   159   158    1
    29    37    39   ar
    30    37    35   ar
    31    16    13    1
    32    39    40   ar
    33   164   162   ar
    34   164   166   ar
    35   161   158    1
    36   161   162    1
    37    44    43    1
    38    44    49   am
    39    34    35    1
    40    34    31    1
    41    13    14    1
    42    50    49    1
    43    50    53    1
    44    32    31    1
    45    32    42   am
    46    35    36   ar
    47   158   157    1
    48    43    42    1
    49    43    46    1
    50    24    14   am
    51    24    25    1
    52    40    41    1
    53    40    38   ar
    54   162   163   ar
    55    28    25    1
    56    30    31    1
    57    30    26   am
    58    36    38   ar
    59   166   165   ar
    60    42    48    1
    61    14    15    2
    62    25    26    1
    63    53    54    1
    64    26    27    2
    65    46    47    1
    66   157   148   am
    67   104   103    2
    68   163   165   ar
    69   149   148    2
    70    48    47    1
    71   103   102    1
    72   127   128    1
    73   127   124    1
    74   128   130   ar
    75   128   129   ar
    76   148   147    1
    77   130   132   ar
    78    54    55    1
    79    55    56    1
    80   129   131   ar
    81   100    98   am
    82   132   133   ar
    83   131   133   ar
    84    96    95    2
    85    98    99    2
    86    98    97    1
    87   126   125    2
    88   125   124    1
    89    95    94    1
    90    95   101   am
    91    97    94    1
    92    94    93    1
    93   124   123    1
    94   102   101    1
    95   102   105    1
    96   147   150    1
    97   147   146    1
    98   150   151    1
    99    56    57    1
   100   108   107    1
   101   106   105    1
   102   106   107    1
   103    93    91   am
   104    67    66    1
   105   151   152    1
   106    66    68    1
   107    66    65    2
   108   145   144    1
   109   152   153    1
   110    65    64    1
   111    91    92    2
   112    91    90    1
   113   167   168    1
   114   173   172    1
   115    64    63    1
   116   168   171    1
   117   168   169    1
   118   144   143   ar
   119   144   142   ar
   120   171   172    1
   121   143   141   ar
   122   153   154    2
   123   120   119    2
   124    90    89    1
   125   172   174    1
   126    63    62    1
   127   142   140   ar
   128   119   118    1
   129    62    59    1
   130   141   139   ar
   131   169   170    2
   132    58    59    1
   133   154   155    1
   134   154   156    1
   135    89    83   am
   136   140   139   ar
   137   134   135    1
   138   139   138    1
   139    59    60    1
   140    88    86    1
   141    73    74    1
   142    73    70    1
   143    84    83    2
   144    76    74   ar
   145    76    78   ar
   146   121   118    1
   147   121   122    1
   148    83    82    1
   149   118   117    1
   150    86    87    1
   151    86    85    1
   152    74    75   ar
   153   115   113    1
   154    60    61    2
   155    78    79   ar
   156   138   135    1
   157   117   111   am
   158   135   136    1
   159    70    69    1
   160    70    71    1
   161    75    77   ar
   162    79    77   ar
   163    79    80    1
   164    85    82    1
   165    82    81    1
   166   111   110    1
   167   111   112    2
   168   136   137    2
   169   113   110    1
   170   113   114    1
   171    72    71    2
   172   116   114    1
   173   110   109    1
