@<TRIPOS>MOLECULE
tmp/4koyA00.pdb
 153 150 0 0 0
SMALL
GASTEIGER

@<TRIPOS>ATOM
      1  N        -10.1170    4.8820  -17.6330 N.3    28  TYR28      -0.1227
      2  CA        -9.4200    5.2840  -16.4060 C.3    28  TYR28       0.1736
      3  C        -10.2680    6.1530  -15.5280 C.2    28  TYR28       0.2596
      4  O        -10.1300    6.0800  -14.2890 O.2    28  TYR28      -0.2718
      5  CB        -8.1230    6.0180  -16.7050 C.3    28  TYR28       0.0548
      6  CG        -7.0940    5.2810  -17.4990 C.ar   28  TYR28      -0.0200
      7  CD1       -7.0620    3.8940  -17.5840 C.ar   28  TYR28      -0.0009
      8  CD2       -6.1410    6.0300  -18.2160 C.ar   28  TYR28      -0.0009
      9  CE1       -6.0690    3.2470  -18.3490 C.ar   28  TYR28       0.0417
     10  CE2       -5.1610    5.4330  -18.9030 C.ar   28  TYR28       0.0417
     11  CZ        -5.1640    4.0660  -19.0490 C.ar   28  TYR28       0.1957
     12  OH        -4.1460    3.4640  -19.7750 O.3    28  TYR28      -0.2866
     13  N        -11.1090    6.9990  -16.0800 N.am   29  CYS29      -0.1956
     14  CA       -11.8920    7.9450  -15.3020 C.3    29  CYS29       0.1843
     15  C        -13.3440    7.5730  -15.1230 C.2    29  CYS29       0.2625
     16  O        -14.0470    8.1990  -14.2840 O.2    29  CYS29      -0.2714
     17  CB       -11.8280    9.3800  -15.9140 C.3    29  CYS29       0.0997
     18  SG       -12.7280    9.5780  -17.4610 S.3    29  CYS29      -0.0797
     19  N        -13.8330    6.5890  -15.8010 N.am   30  TYR30      -0.1960
     20  CA       -15.2350    6.2140  -15.7790 C.3    30  TYR30       0.1756
     21  C        -15.3470    4.8040  -16.3290 C.2    30  TYR30       0.2461
     22  O        -15.8490    4.6380  -17.4830 O.2    30  TYR30      -0.2730
     23  CB       -16.0460    7.2390  -16.5850 C.3    30  TYR30       0.0574
     24  CG       -17.5420    7.2280  -16.4230 C.ar   30  TYR30      -0.0198
     25  CD1      -18.2180    6.2170  -15.8460 C.ar   30  TYR30      -0.0009
     26  CD2      -18.2810    8.2770  -16.9710 C.ar   30  TYR30      -0.0009
     27  CE1      -19.6240    6.2420  -15.7570 C.ar   30  TYR30       0.0417
     28  CE2      -19.6420    8.3040  -16.8930 C.ar   30  TYR30       0.0417
     29  CZ       -20.3040    7.2890  -16.3350 C.ar   30  TYR30       0.1957
     30  OH       -21.6970    7.3460  -16.3300 O.3    30  TYR30      -0.2866
     31  N        -14.9000    3.7950  -15.6330 N.am   31  PRO31      -0.2716
     32  CA       -14.8600    2.4710  -16.2420 C.3    31  PRO31       0.1536
     33  C        -16.2140    1.8730  -16.6400 C.2    31  PRO31       0.2598
     34  O        -16.2400    0.9940  -17.4740 O.2    31  PRO31      -0.2715
     35  CB       -14.1400    1.5860  -15.1840 C.3    31  PRO31       0.0310
     36  CG       -14.3800    2.3060  -13.9080 C.3    31  PRO31       0.0237
     37  CD       -14.2640    3.7420  -14.2930 C.3    31  PRO31       0.0939
     38  N        -17.3180    2.3240  -16.0350 N.am   32  LYS32      -0.1978
     39  CA       -18.6570    1.8140  -16.4040 C.3    32  LYS32       0.1596
     40  C        -19.1230    2.4380  -17.7390 C.2    32  LYS32       0.2287
     41  O        -20.0330    1.8710  -18.3940 O.2    32  LYS32      -0.2864
     42  CB       -19.6760    2.1710  -15.3130 C.3    32  LYS32       0.0298
     43  CG       -20.9820    1.3750  -15.4540 C.3    32  LYS32       0.0038
     44  CD       -21.9840    1.7150  -14.3730 C.3    32  LYS32       0.0206
     45  CE       -23.3020    1.0300  -14.6670 C.3    32  LYS32       0.1093
     46  NZ       -24.1780    1.1400  -13.4710 N.3    32  LYS32      -0.1314
     47  N        -24.2010   10.6800   -8.3900 N.3    49  ARG49      -0.1245
     48  CA       -23.0310   10.9620   -7.5780 C.3    49  ARG49       0.1563
     49  C        -23.2450   12.2600   -6.8260 C.2    49  ARG49       0.2260
     50  O        -24.3510   12.8150   -6.7990 O.2    49  ARG49      -0.2867
     51  CB       -21.8070   11.0390   -8.5120 C.3    49  ARG49       0.0307
     52  CG       -21.4410    9.7010   -9.1000 C.3    49  ARG49       0.0489
     53  CD       -20.2170    9.8280   -9.9760 C.3    49  ARG49       0.2205
     54  NE       -19.9230    8.5290  -10.6190 N.pl3  49  ARG49      -0.0865
     55  CZ       -18.7080    8.1310  -10.9600 C.cat  49  ARG49       0.5346
     56  NH1      -18.5460    6.9600  -11.5670 N.pl3  49  ARG49       0.1354
     57  NH2      -17.6470    8.8210  -10.6530 N.pl3  49  ARG49       0.1354
     58  N        -17.9140    9.3290   -6.0880 N.3    68  TYR68      -0.1241
     59  CA       -18.8200    8.1710   -6.3320 C.3    68  TYR68       0.1605
     60  C        -19.1590    7.3990   -5.0850 C.2    68  TYR68       0.2264
     61  O        -20.0410    6.5340   -5.0930 O.2    68  TYR68      -0.2867
     62  CB       -18.3420    7.2320   -7.4480 C.3    68  TYR68       0.0534
     63  CG       -17.0720    6.5540   -7.1610 C.ar   68  TYR68      -0.0201
     64  CD1      -15.9070    7.1830   -7.4940 C.ar   68  TYR68      -0.0009
     65  CD2      -17.0170    5.3110   -6.5690 C.ar   68  TYR68      -0.0009
     66  CE1      -14.7040    6.6100   -7.2820 C.ar   68  TYR68       0.0417
     67  CE2      -15.7750    4.7080   -6.3340 C.ar   68  TYR68       0.0417
     68  CZ       -14.6390    5.4300   -6.6780 C.ar   68  TYR68       0.1957
     69  OH       -13.3450    4.9380   -6.5730 O.3    68  TYR68      -0.2866
     70  N        -13.0920    9.7460   -4.6920 N.3    78  LEU78      -0.1231
     71  CA       -13.0510   10.6580   -5.8400 C.3    78  LEU78       0.1693
     72  C        -13.1230    9.9390   -7.1410 C.2    78  LEU78       0.2593
     73  O        -12.4050    8.9580   -7.2970 O.2    78  LEU78      -0.2718
     74  CB       -11.7050   11.3690   -5.8540 C.3    78  LEU78       0.0284
     75  CG       -11.4610   12.3350   -7.0200 C.3    78  LEU78       0.0019
     76  CD1      -11.8540   13.6560   -6.4950 C.3    78  LEU78       0.0001
     77  CD2       -9.9840   12.3700   -7.3950 C.3    78  LEU78       0.0001
     78  N        -13.9550   10.4060   -8.0720 N.am   79  GLY79      -0.1942
     79  CA       -14.0610    9.7720   -9.3760 C.3    79  GLY79       0.2014
     80  C        -14.2480   10.7890  -10.4730 C.2    79  GLY79       0.2639
     81  O        -14.2640   11.9870  -10.2940 O.2    79  GLY79      -0.2714
     82  N        -14.3210   10.2170  -11.6760 N.am   80  ASN80      -0.1958
     83  CA       -14.5410   10.9780  -12.9070 C.3    80  ASN80       0.1819
     84  C        -13.5700   12.1550  -13.0270 C.2    80  ASN80       0.2621
     85  O        -13.9700   13.2540  -13.4740 O.2    80  ASN80      -0.2715
     86  CB       -15.9710   11.5090  -13.0190 C.3    80  ASN80       0.1195
     87  CG       -17.0820   10.5010  -13.3050 C.2    80  ASN80       0.2630
     88  OD1      -18.2520   10.8380  -13.1810 O.2    80  ASN80      -0.2716
     89  ND2      -16.7560    9.2830  -13.7800 N.am   80  ASN80      -0.0877
     90  N        -12.3120   11.9560  -12.7040 N.am   81  MET81      -0.1977
     91  CA       -11.3060   13.0110  -12.7840 C.3    81  MET81       0.1605
     92  C        -10.9030   13.1690  -14.2330 C.2    81  MET81       0.2287
     93  O        -10.2260   12.2810  -14.8170 O.2    81  MET81      -0.2864
     94  CB       -10.1010   12.6340  -11.8690 C.3    81  MET81       0.0413
     95  CG        -8.9770   13.6010  -11.8180 C.3    81  MET81       0.0598
     96  SD        -9.3050   15.1420  -10.9460 S.3    81  MET81      -0.1393
     97  CE        -9.4000   16.0920  -12.2940 C.3    81  MET81       0.0692
     98  N         -8.9260    7.1860   -3.4800 N.3   115  ILE115     -0.1231
     99  CA        -8.8130    7.2970   -4.9460 C.3   115  ILE115      0.1692
    100  C         -8.3730    5.9540   -5.3940 C.2   115  ILE115      0.2592
    101  O         -7.3600    5.4500   -4.9230 O.2   115  ILE115     -0.2718
    102  CB        -7.8160    8.3860   -5.3500 C.3   115  ILE115      0.0266
    103  CG1       -8.2630    9.7990   -4.8940 C.3   115  ILE115      0.0019
    104  CG2       -7.6260    8.3900   -6.8690 C.3   115  ILE115      0.0020
    105  CD1       -7.2810   10.9300   -5.2360 C.3   115  ILE115      0.0001
    106  N         -9.0250    5.4080   -6.4260 N.am  116  SER116     -0.1952
    107  CA        -8.6430    4.1560   -7.0470 C.3   116  SER116      0.1924
    108  C         -8.2080    4.4790   -8.4780 C.2   116  SER116      0.2314
    109  O         -8.8690    5.2520   -9.2010 O.2   116  SER116     -0.2863
    110  CB        -9.7790    3.2150   -7.0970 C.3   116  SER116      0.2116
    111  OG       -10.0970    2.8300   -5.7510 O.3   116  SER116     -0.2180
    112  N         -6.4150    2.8420  -12.1400 N.3   118  PHE118     -0.1241
    113  CA        -6.0590    1.6570  -12.9300 C.3   118  PHE118      0.1605
    114  C         -4.5900    1.6310  -13.1950 C.2   118  PHE118      0.2264
    115  O         -3.9250    2.6780  -13.3640 O.2   118  PHE118     -0.2867
    116  CB        -6.8570    1.6060  -14.2270 C.3   118  PHE118      0.0534
    117  CG        -8.2510    1.2360  -13.9950 C.ar  118  PHE118     -0.0203
    118  CD1       -8.5900   -0.1020  -13.7650 C.ar  118  PHE118     -0.0042
    119  CD2       -9.2820    2.1640  -13.9360 C.ar  118  PHE118     -0.0042
    120  CE1       -9.9180   -0.4440  -13.5080 C.ar  118  PHE118     -0.0003
    121  CE2      -10.5750    1.8230  -13.6880 C.ar  118  PHE118     -0.0003
    122  CZ       -10.9110    0.4830  -13.4480 C.ar  118  PHE118     -0.0000
    123  N         -1.1960   11.1240   -7.7960 N.3   128  TYR128     -0.1241
    124  CA        -1.7970   10.8830   -6.5210 C.3   128  TYR128      0.1605
    125  C         -0.7030   10.6490   -5.5080 C.2   128  TYR128      0.2264
    126  O         -0.8380   11.0680   -4.3440 O.2   128  TYR128     -0.2867
    127  CB        -2.8090    9.7130   -6.5980 C.3   128  TYR128      0.0534
    128  CG        -3.9200    9.8990   -7.6790 C.ar  128  TYR128     -0.0201
    129  CD1       -4.5510   11.0840   -7.8670 C.ar  128  TYR128     -0.0009
    130  CD2       -4.2780    8.8440   -8.5360 C.ar  128  TYR128     -0.0009
    131  CE1       -5.5490   11.2270   -8.8670 C.ar  128  TYR128      0.0417
    132  CE2       -5.2270    9.0300   -9.5450 C.ar  128  TYR128      0.0417
    133  CZ        -5.8510   10.1790   -9.6600 C.ar  128  TYR128      0.1957
    134  OH        -6.8230   10.4070  -10.6990 O.3   128  TYR128     -0.2866
    135  N         -9.9050   -6.1520  -11.8360 N.3   141  ARG141     -0.1245
    136  CA       -11.0400   -5.6580  -12.5940 C.3   141  ARG141      0.1563
    137  C        -10.8100   -6.1200  -14.0440 C.2   141  ARG141      0.2260
    138  O         -9.7730   -6.6910  -14.3980 O.2   141  ARG141     -0.2867
    139  CB       -11.1580   -4.1380  -12.5370 C.3   141  ARG141      0.0307
    140  CG       -11.4020   -3.5960  -11.1210 C.3   141  ARG141      0.0489
    141  CD       -12.8190   -3.8320  -10.6500 C.3   141  ARG141      0.2205
    142  NE       -13.0720   -3.0920   -9.3930 N.pl3 141  ARG141     -0.0865
    143  CZ       -12.9120   -3.5960   -8.1920 C.cat 141  ARG141      0.5346
    144  NH1      -12.5300   -4.8600   -8.0640 N.pl3 141  ARG141      0.1354
    145  NH2      -13.1870   -2.8420   -7.0870 N.pl3 141  ARG141      0.1354
    146  N         -6.6220   -2.5960  -10.2540 N.3   151  LEU151     -0.1245
    147  CA        -7.1080   -1.3130   -9.7390 C.3   151  LEU151      0.1561
    148  C         -6.3790   -1.0450   -8.4230 C.2   151  LEU151      0.2260
    149  O         -6.5250   -1.8100   -7.4490 O.2   151  LEU151     -0.2867
    150  CB        -8.6040   -1.3570   -9.5330 C.3   151  LEU151      0.0270
    151  CG        -9.2030   -0.0710   -9.0370 C.3   151  LEU151      0.0019
    152  CD1       -9.0880    1.0490  -10.0630 C.3   151  LEU151      0.0001
    153  CD2      -10.6600   -0.2730   -8.6950 C.3   151  LEU151      0.0001
@<TRIPOS>BOND
     1    12    11    1
     2    11    10   ar
     3    11     9   ar
     4    10     8   ar
     5    41    40    2
     6     9     7   ar
     7     8     6   ar
     8    40    39    1
     9     1     2    1
    10     7     6   ar
    11     6     5    1
    12    22    21    2
    13    34    33    2
    14    18    17    1
    15    26    28   ar
    16    26    24   ar
    17    28    29   ar
    18     5     2    1
    19    33    32    1
    20    33    38   am
    21    23    24    1
    22    23    20    1
    23    24    25   ar
    24     2     3    1
    25    39    38    1
    26    39    42    1
    27    29    30    1
    28    29    27   ar
    29    21    20    1
    30    21    31   am
    31    32    31    1
    32    32    35    1
    33    13     3   am
    34    13    14    1
    35    17    14    1
    36    25    27   ar
    37    19    20    1
    38    19    15   am
    39    31    37    1
    40     3     4    2
    41    43    42    1
    42    43    44    1
    43    14    15    1
    44    35    36    1
    45    15    16    2
    46    93    92    2
    47    45    44    1
    48    45    46    1
    49   138   137    2
    50    37    36    1
    51    92    91    1
    52   116   117    1
    53   116   113    1
    54   137   136    1
    55   117   119   ar
    56   117   118   ar
    57   119   121   ar
    58    89    87   am
    59   118   120   ar
    60   121   122   ar
    61   120   122   ar
    62    85    84    2
    63   115   114    2
    64    87    88    2
    65    87    86    1
    66   114   113    1
    67    84    83    1
    68    84    90   am
    69    86    83    1
    70   113   112    1
    71    83    82    1
    72    91    90    1
    73    91    94    1
    74   136   139    1
    75   136   135    1
    76   139   140    1
    77    97    96    1
    78    94    95    1
    79    95    96    1
    80    82    80   am
    81    56    55    1
    82   140   141    1
    83    55    57    1
    84    55    54    2
    85   134   133    1
    86   141   142    1
    87    54    53    1
    88    80    81    2
    89    80    79    1
    90   146   147    1
    91   152   151    1
    92    53    52    1
    93   147   150    1
    94   147   148    1
    95   133   132   ar
    96   133   131   ar
    97   132   130   ar
    98   150   151    1
    99   142   143    2
   100    79    78    1
   101   109   108    2
   102    52    51    1
   103   151   153    1
   104   131   129   ar
   105   130   128   ar
   106    51    48    1
   107   108   107    1
   108   148   149    2
   109    47    48    1
   110   143   144    1
   111   143   145    1
   112    78    72   am
   113   129   128   ar
   114   123   124    1
   115   128   127    1
   116    48    49    1
   117    64    66   ar
   118    64    63   ar
   119    62    63    1
   120    62    59    1
   121    77    75    1
   122    73    72    2
   123    66    68   ar
   124    63    65   ar
   125    72    71    1
   126   110   107    1
   127   110   111    1
   128   107   106    1
   129    75    76    1
   130    75    74    1
   131   104   102    1
   132    49    50    2
   133    68    69    1
   134    68    67   ar
   135   127   124    1
   136    65    67   ar
   137   124   125    1
   138   106   100   am
   139    59    58    1
   140    59    60    1
   141    74    71    1
   142    71    70    1
   143   125   126    2
   144   100    99    1
   145   100   101    2
   146   102    99    1
   147   102   103    1
   148   105   103    1
   149    61    60    2
   150    99    98    1
