@<TRIPOS>MOLECULE
tmp/4kp0A00.pdb
 161 156 0 0 0
SMALL
GASTEIGER

@<TRIPOS>ATOM
      1  N         22.5960   -6.2410  -23.5830 N.3    28  LYS28      -0.1231
      2  CA        22.1850   -6.2860  -22.1630 C.3    28  LYS28       0.1693
      3  C         21.6800   -4.8840  -21.7760 C.2    28  LYS28       0.2592
      4  O         21.9710   -3.8920  -22.4680 O.2    28  LYS28      -0.2718
      5  CB        23.3030   -6.7600  -21.2080 C.3    28  LYS28       0.0285
      6  CG        24.5510   -5.8570  -21.1060 C.3    28  LYS28       0.0035
      7  CD        25.6460   -6.5120  -20.2270 C.3    28  LYS28       0.0206
      8  CE        27.0660   -6.0530  -20.6060 C.3    28  LYS28       0.1093
      9  NZ        27.8890   -5.6090  -19.4250 N.3    28  LYS28      -0.1314
     10  N         20.9020   -4.8010  -20.6980 N.am   29  PHE29      -0.1962
     11  CA        20.5010   -3.4980  -20.1830 C.3    29  PHE29       0.1771
     12  C         20.7980   -3.3050  -18.6980 C.2    29  PHE29       0.2619
     13  O         20.7480   -4.2470  -17.8980 O.2    29  PHE29      -0.2715
     14  CB        19.0490   -3.1200  -20.5740 C.3    29  PHE29       0.0574
     15  CG        17.9600   -3.7720  -19.7380 C.ar   29  PHE29      -0.0200
     16  CD1       17.1610   -4.7720  -20.2810 C.ar   29  PHE29      -0.0042
     17  CD2       17.6950   -3.3450  -18.4350 C.ar   29  PHE29      -0.0042
     18  CE1       16.1450   -5.3600  -19.5370 C.ar   29  PHE29      -0.0003
     19  CE2       16.6810   -3.9330  -17.6810 C.ar   29  PHE29      -0.0003
     20  CZ        15.9080   -4.9410  -18.2380 C.ar   29  PHE29      -0.0000
     21  N         21.1490   -2.0730  -18.3580 N.am   30  CYS30      -0.1968
     22  CA        21.3180   -1.6730  -16.9770 C.3    30  CYS30       0.1712
     23  C         20.4740   -0.4380  -16.6650 C.2    30  CYS30       0.2296
     24  O         19.9090    0.2190  -17.5500 O.2    30  CYS30      -0.2864
     25  CB        22.7920   -1.4010  -16.6720 C.3    30  CYS30       0.0983
     26  SG        23.7790   -2.8910  -16.4800 S.3    30  CYS30      -0.0798
     27  N         30.2170   -2.8430  -14.0930 N.3    45  HIS45      -0.1241
     28  CA        30.0630   -4.0510  -14.9060 C.3    45  HIS45       0.1621
     29  C         29.1460   -3.8100  -16.1320 C.2    45  HIS45       0.2264
     30  O         29.0890   -4.6270  -17.0710 O.2    45  HIS45      -0.2867
     31  CB        29.6210   -5.2610  -14.0500 C.3    45  HIS45       0.0745
     32  CG        28.2220   -5.1710  -13.5050 C.ar   45  HIS45       0.0817
     33  ND1       27.9410   -4.6960  -12.2380 N.ar   45  HIS45      -0.2268
     34  CD2       27.0280   -5.5280  -14.0390 C.ar   45  HIS45       0.1154
     35  CE1       26.6360   -4.7570  -12.0180 C.ar   45  HIS45       0.1986
     36  NE2       26.0600   -5.2570  -13.0960 N.ar   45  HIS45      -0.2212
     37  N         38.4380   -1.0000  -10.3750 N.3    81  TYR81      -0.1241
     38  CA        37.3280   -1.9450  -10.4390 C.3    81  TYR81       0.1605
     39  C         37.8710   -3.3050  -10.8480 C.2    81  TYR81       0.2264
     40  O         38.6030   -3.4020  -11.8160 O.2    81  TYR81      -0.2867
     41  CB        36.2330   -1.4460  -11.3980 C.3    81  TYR81       0.0534
     42  CG        35.3180   -2.5440  -11.8730 C.ar   81  TYR81      -0.0201
     43  CD1       34.4040   -3.1480  -11.0030 C.ar   81  TYR81      -0.0009
     44  CD2       35.3750   -2.9930  -13.1890 C.ar   81  TYR81      -0.0009
     45  CE1       33.5790   -4.1630  -11.4340 C.ar   81  TYR81       0.0417
     46  CE2       34.5580   -4.0120  -13.6390 C.ar   81  TYR81       0.0417
     47  CZ        33.6590   -4.6010  -12.7620 C.ar   81  TYR81       0.1957
     48  OH        32.8370   -5.6270  -13.2190 O.3    81  TYR81      -0.2866
     49  N         34.4650   -7.7170   -7.7450 N.3    86  LEU86      -0.1245
     50  CA        33.3890   -6.7480   -7.9810 C.3    86  LEU86       0.1561
     51  C         33.4750   -5.5360   -7.0570 C.2    86  LEU86       0.2260
     52  O         32.4490   -4.9370   -6.7230 O.2    86  LEU86      -0.2867
     53  CB        32.0200   -7.4270   -7.8760 C.3    86  LEU86       0.0270
     54  CG        31.8170   -8.5400   -8.9000 C.3    86  LEU86       0.0019
     55  CD1       30.4520   -9.1920   -8.7710 C.3    86  LEU86       0.0001
     56  CD2       32.0150   -7.9560  -10.2710 C.3    86  LEU86       0.0001
     57  N         32.4980   -1.2280   -8.1080 N.3    89  ASP89      -0.1239
     58  CA        31.5790   -1.4630   -9.2210 C.3    89  ASP89       0.1674
     59  C         30.8140   -0.1780   -9.5120 C.2    89  ASP89       0.2266
     60  O         29.6170   -0.0460   -9.1900 O.2    89  ASP89      -0.2867
     61  CB        30.6300   -2.6260   -8.8970 C.3    89  ASP89       0.1410
     62  CG        29.8010   -3.0710  -10.0930 C.2    89  ASP89       0.3668
     63  OD1       29.9880   -2.5650  -11.2240 O.co2  89  ASP89      -0.2456
     64  OD2       28.9490   -3.9490   -9.8870 O.co2  89  ASP89      -0.2456
     65  N         13.6300   -7.4430   -3.7190 N.3   170  SER170     -0.1202
     66  CA        15.0270   -7.1430   -4.0400 C.3   170  SER170      0.2020
     67  C         15.2480   -6.5130   -5.4040 C.2   170  SER170      0.2619
     68  O         14.3920   -6.5820   -6.2790 O.2   170  SER170     -0.2717
     69  CB        15.8920   -8.3980   -3.9510 C.3   170  SER170      0.2103
     70  OG        17.1110   -8.1850   -4.6430 O.3   170  SER170     -0.2182
     71  N         16.4200   -5.9190   -5.5840 N.am  171  ALA171     -0.1965
     72  CA        16.8510   -5.5280   -6.9110 C.3   171  ALA171      0.1728
     73  C         17.3550   -6.7970   -7.5590 C.2   171  ALA171      0.2616
     74  O         17.8470   -7.6850   -6.8560 O.2   171  ALA171     -0.2715
     75  CB        17.9450   -4.5110   -6.8310 C.3   171  ALA171      0.0334
     76  N         17.2280   -6.9080   -8.8790 N.am  172  PHE172     -0.1960
     77  CA        17.6680   -8.1350   -9.5520 C.3   172  PHE172      0.1771
     78  C         18.4170   -7.9390  -10.8970 C.2   172  PHE172      0.2619
     79  O         18.8600   -6.8340  -11.2120 O.2   172  PHE172     -0.2715
     80  CB        16.5170   -9.1540   -9.6360 C.3   172  PHE172      0.0574
     81  CG        16.9900  -10.5690   -9.7290 C.ar  172  PHE172     -0.0200
     82  CD1       17.9120  -11.0640   -8.8080 C.ar  172  PHE172     -0.0042
     83  CD2       16.5400  -11.4000  -10.7400 C.ar  172  PHE172     -0.0042
     84  CE1       18.3810  -12.3740   -8.8970 C.ar  172  PHE172     -0.0003
     85  CE2       16.9880  -12.7080  -10.8420 C.ar  172  PHE172     -0.0003
     86  CZ        17.9200  -13.1990   -9.9180 C.ar  172  PHE172     -0.0000
     87  N         18.5980   -9.0070  -11.6680 N.am  173  LYS173     -0.1963
     88  CA        19.3260   -8.8890  -12.9330 C.3   173  LYS173      0.1728
     89  C         18.7150   -7.8090  -13.8410 C.2   173  LYS173      0.2616
     90  O         17.5240   -7.8430  -14.1350 O.2   173  LYS173     -0.2715
     91  CB        19.3770  -10.2410  -13.6720 C.3   173  LYS173      0.0311
     92  CG        20.5070  -11.2180  -13.2670 C.3   173  LYS173      0.0038
     93  CD        19.9830  -12.3750  -12.4270 C.3   173  LYS173      0.0206
     94  CE        20.4350  -13.7490  -12.9550 C.3   173  LYS173      0.1093
     95  NZ        21.8860  -14.0310  -12.7250 N.3   173  LYS173     -0.1314
     96  N         19.5260   -6.8610  -14.2900 N.am  174  GLY174     -0.1955
     97  CA        19.0060   -5.7750  -15.1120 C.3   174  GLY174      0.1869
     98  C         18.7230   -4.5190  -14.3060 C.2   174  GLY174      0.2309
     99  O         18.4940   -3.4540  -14.8690 O.2   174  GLY174     -0.2863
    100  N         21.0680   -3.4610  -12.1930 N.3   176  SER176     -0.1217
    101  CA        22.4060   -2.8790  -11.9970 C.3   176  SER176      0.1889
    102  C         22.4860   -1.4170  -12.4050 C.2   176  SER176      0.2288
    103  O         21.8860   -0.9970  -13.3850 O.2   176  SER176     -0.2866
    104  CB        23.4670   -3.6690  -12.7640 C.3   176  SER176      0.2089
    105  OG        23.5210   -5.0100  -12.3250 O.3   176  SER176     -0.2183
    106  N         22.9970   -0.4140   -7.1310 N.3   190  VAL190     -0.1231
    107  CA        22.8210   -1.8310   -7.3920 C.3   190  VAL190      0.1692
    108  C         24.0790   -2.3990   -8.0470 C.2   190  VAL190      0.2593
    109  O         24.5500   -1.8750   -9.0360 O.2   190  VAL190     -0.2718
    110  CB        21.5640   -2.1090   -8.2730 C.3   190  VAL190      0.0266
    111  CG1       21.2820   -3.5820   -8.2990 C.3   190  VAL190      0.0020
    112  CG2       20.3160   -1.3550   -7.7710 C.3   190  VAL190      0.0020
    113  N         24.6330   -3.4620   -7.4650 N.am  191  SER191     -0.1938
    114  CA        25.8340   -4.1160   -8.0080 C.3   191  SER191      0.2055
    115  C         25.6350   -5.6020   -8.2880 C.2   191  SER191      0.2643
    116  O         25.6910   -6.0330   -9.4320 O.2   191  SER191     -0.2714
    117  CB        27.0120   -3.9360   -7.0740 C.3   191  SER191      0.2130
    118  OG        28.1510   -4.5490   -7.6280 O.3   191  SER191     -0.2179
    119  N         25.4080   -6.3870   -7.2440 N.am  192  TYR192     -0.1959
    120  CA        25.2150   -7.8300   -7.4060 C.3   192  TYR192      0.1771
    121  C         24.5130   -8.4690   -6.2140 C.2   192  TYR192      0.2620
    122  O         24.2110   -7.7940   -5.2420 O.2   192  TYR192     -0.2715
    123  CB        26.5430   -8.5420   -7.6860 C.3   192  TYR192      0.0574
    124  CG        27.5090   -8.6510   -6.5210 C.ar  192  TYR192     -0.0198
    125  CD1       27.4720   -9.7470   -5.6430 C.ar  192  TYR192     -0.0009
    126  CD2       28.4940   -7.6760   -6.3190 C.ar  192  TYR192     -0.0009
    127  CE1       28.3880   -9.8610   -4.5750 C.ar  192  TYR192      0.0417
    128  CE2       29.4180   -7.7810   -5.2660 C.ar  192  TYR192      0.0417
    129  CZ        29.3630   -8.8780   -4.3920 C.ar  192  TYR192      0.1957
    130  OH        30.2860   -8.9640   -3.3510 O.3   192  TYR192     -0.2866
    131  N         24.2670   -9.7730   -6.3220 N.am  193  GLY193     -0.1940
    132  CA        23.7220  -10.6150   -5.2570 C.3   193  GLY193      0.2014
    133  C         23.7730  -12.0550   -5.7280 C.2   193  GLY193      0.2639
    134  O         24.4220  -12.3710   -6.7220 O.2   193  GLY193     -0.2714
    135  N         23.0800  -12.9390   -5.0310 N.am  194  ARG194     -0.1963
    136  CA        23.0800  -14.3480   -5.4020 C.3   194  ARG194      0.1729
    137  C         22.1150  -14.5600   -6.5350 C.2   194  ARG194      0.2616
    138  O         20.9810  -14.0590   -6.4980 O.2   194  ARG194     -0.2715
    139  CB        22.6200  -15.2240   -4.2500 C.3   194  ARG194      0.0348
    140  CG        23.2010  -14.9010   -2.9140 C.3   194  ARG194      0.0492
    141  CD        22.2210  -15.3350   -1.8440 C.3   194  ARG194      0.2205
    142  NE        21.7050  -16.6840   -2.0870 N.pl3 194  ARG194     -0.0865
    143  CZ        22.3990  -17.8060   -1.8790 C.cat 194  ARG194      0.5346
    144  NH1       23.6510  -17.7490   -1.4260 N.pl3 194  ARG194      0.1354
    145  NH2       21.8400  -18.9830   -2.1410 N.pl3 194  ARG194      0.1354
    146  N         22.5340  -15.3540   -7.5150 N.am  195  SER195     -0.1950
    147  CA        21.6920  -15.6070   -8.6660 C.3   195  SER195      0.1924
    148  C         20.3530  -16.2820   -8.3250 C.2   195  SER195      0.2314
    149  O         19.4790  -16.4010   -9.1740 O.2   195  SER195     -0.2863
    150  CB        22.4670  -16.3870   -9.7120 C.3   195  SER195      0.2116
    151  OG        22.5570  -17.7370   -9.3340 O.3   195  SER195     -0.2180
    152  N         18.3530  -15.0050   -6.1040 N.3   197  ALA197     -0.1245
    153  CA        17.5010  -13.8580   -5.7770 C.3   197  ALA197      0.1562
    154  C         17.3380  -13.5900   -4.2830 C.2   197  ALA197      0.2260
    155  O         16.8290  -12.5240   -3.8940 O.2   197  ALA197     -0.2867
    156  CB        16.1330  -13.9990   -6.4360 C.3   197  ALA197      0.0290
    157  N         21.2770   -8.2430   -1.0890 N.3   201  ALA201     -0.1245
    158  CA        22.0820   -7.9940   -2.2770 C.3   201  ALA201      0.1562
    159  C         23.0850   -6.9190   -1.9020 C.2   201  ALA201      0.2260
    160  O         22.8200   -6.1100   -0.9940 O.2   201  ALA201     -0.2867
    161  CB        21.2130   -7.5320   -3.4210 C.3   201  ALA201      0.0290
@<TRIPOS>BOND
     1     1     2    1
     2     4     3    2
     3     2     3    1
     4     2     5    1
     5     3    10   am
     6     5     6    1
     7     6     7    1
     8    10    11    1
     9     8     7    1
    10     8     9    1
    11    14    11    1
    12    14    15    1
    13    16    15   ar
    14    16    18   ar
    15    11    12    1
    16    15    17   ar
    17    18    20   ar
    18    12    21   am
    19    12    13    2
    20    17    19   ar
    21    21    22    1
    22    20    19   ar
    23    24    23    2
    24    30    29    2
    25    22    25    1
    26    22    23    1
    27    25    26    1
    28    29    28    1
    29    97    98    1
    30    97    96    1
    31    28    27    1
    32    28    31    1
    33    99    98    2
    34    96    89   am
    35    90    89    2
    36    31    32    1
    37    34    32   ar
    38    34    36   ar
    39    89    88    1
    40    91    92    1
    41    91    88    1
    42    46    44   ar
    43    46    47   ar
    44    32    33   ar
    45   103   102    2
    46    92    93    1
    47    48    47    1
    48    44    42   ar
    49    36    35   ar
    50    94    95    1
    51    94    93    1
    52    88    87    1
    53   104   105    1
    54   104   101    1
    55    47    45   ar
    56   102   101    1
    57    33    35   ar
    58   100   101    1
    59    42    41    1
    60    42    43   ar
    61    40    39    2
    62    87    78   am
    63    45    43   ar
    64    41    38    1
    65    63    62   ar
    66    79    78    2
    67    78    77    1
    68    39    38    1
    69    85    83   ar
    70    85    86   ar
    71    83    81   ar
    72    38    37    1
    73    56    54    1
    74    62    64   ar
    75    62    61    1
    76    86    84   ar
    77    81    80    1
    78    81    82   ar
    79   150   151    1
    80   150   147    1
    81    80    77    1
    82    77    76    1
    83    59    58    1
    84    59    60    2
    85   116   115    2
    86    58    61    1
    87    58    57    1
    88   149   148    2
    89   109   108    2
    90    54    55    1
    91    54    53    1
    92    84    82   ar
    93    76    73   am
    94   147   148    1
    95   147   146    1
    96   111   110    1
    97   115   114    1
    98   115   119   am
    99   110   112    1
   100   110   107    1
   101   108   113   am
   102   108   107    1
   103   114   113    1
   104   114   117    1
   105    50    53    1
   106    50    49    1
   107    50    51    1
   108   123   120    1
   109   123   124    1
   110   118   117    1
   111    73    72    1
   112    73    74    2
   113   146   137   am
   114   120   119    1
   115   120   121    1
   116   107   106    1
   117    51    52    2
   118    72    75    1
   119    72    71    1
   120   134   133    2
   121   137   138    2
   122   137   136    1
   123   124   126   ar
   124   124   125   ar
   125   156   153    1
   126   131   121   am
   127   131   132    1
   128   126   128   ar
   129    68    67    2
   130   121   122    2
   131   152   153    1
   132   153   154    1
   133   133   132    1
   134   133   135   am
   135   125   127   ar
   136    71    67   am
   137    67    66    1
   138   136   135    1
   139   136   139    1
   140   128   129   ar
   141    70    69    1
   142   127   129   ar
   143   129   130    1
   144   154   155    2
   145   139   140    1
   146    66    69    1
   147    66    65    1
   148   161   158    1
   149   140   141    1
   150   158   159    1
   151   158   157    1
   152   145   143    1
   153   142   143    2
   154   142   141    1
   155   159   160    2
   156   143   144    1
