@<TRIPOS>MOLECULE
tmp/4kp1A04.pdb
 117 114 0 0 0
SMALL
GASTEIGER

@<TRIPOS>ATOM
      1  N         -8.8940  -26.2210  -22.2610 N.3   155  TYR155     -0.1241
      2  CA        -9.3330  -26.0490  -23.6350 C.3   155  TYR155      0.1605
      3  C        -10.4030  -27.0930  -23.9970 C.2   155  TYR155      0.2264
      4  O        -10.1660  -28.3030  -23.8810 O.2   155  TYR155     -0.2867
      5  CB        -8.1370  -26.1680  -24.5780 C.3   155  TYR155      0.0534
      6  CG        -8.4020  -25.7390  -25.9880 C.ar  155  TYR155     -0.0201
      7  CD1       -8.8900  -26.6330  -26.9230 C.ar  155  TYR155     -0.0009
      8  CD2       -8.1470  -24.4320  -26.4020 C.ar  155  TYR155     -0.0009
      9  CE1       -9.1310  -26.2540  -28.2370 C.ar  155  TYR155      0.0417
     10  CE2       -8.3780  -24.0380  -27.7310 C.ar  155  TYR155      0.0417
     11  CZ        -8.8700  -24.9640  -28.6380 C.ar  155  TYR155      0.1957
     12  OH        -9.1070  -24.6130  -29.9470 O.3   155  TYR155     -0.2866
     13  N        -11.5810  -22.1530  -22.3050 N.3   190  GLN190     -0.1231
     14  CA       -11.4700  -21.7240  -23.6960 C.3   190  GLN190      0.1698
     15  C        -12.2150  -22.7220  -24.5540 C.2   190  GLN190      0.2592
     16  O        -12.0260  -23.9250  -24.4020 O.2   190  GLN190     -0.2718
     17  CB       -10.0000  -21.6340  -24.1180 C.3   190  GLN190      0.0381
     18  CG        -9.7680  -21.4050  -25.6010 C.3   190  GLN190      0.0905
     19  CD        -8.3520  -20.9200  -25.9020 C.2   190  GLN190      0.2608
     20  OE1       -7.4620  -20.9470  -25.0430 O.2   190  GLN190     -0.2717
     21  NE2       -8.1450  -20.4500  -27.1310 N.am  190  GLN190     -0.0878
     22  N        -13.0780  -22.2260  -25.4290 N.am  191  PHE191     -0.1962
     23  CA       -13.7490  -23.0910  -26.3810 C.3   191  PHE191      0.1771
     24  C        -13.2220  -22.7980  -27.7800 C.2   191  PHE191      0.2620
     25  O        -13.0270  -21.6300  -28.1710 O.2   191  PHE191     -0.2715
     26  CB       -15.2680  -22.9170  -26.2990 C.3   191  PHE191      0.0574
     27  CG       -15.7860  -22.8380  -24.8740 C.ar  191  PHE191     -0.0200
     28  CD1      -16.1380  -24.0000  -24.1750 C.ar  191  PHE191     -0.0042
     29  CD2      -15.8820  -21.6170  -24.2220 C.ar  191  PHE191     -0.0042
     30  CE1      -16.5920  -23.9390  -22.8710 C.ar  191  PHE191     -0.0003
     31  CE2      -16.3400  -21.5430  -22.9020 C.ar  191  PHE191     -0.0003
     32  CZ       -16.6950  -22.7090  -22.2280 C.ar  191  PHE191     -0.0000
     33  N        -12.9810  -23.8610  -28.5450 N.am  192  GLY192     -0.1940
     34  CA       -12.4300  -23.7080  -29.8780 C.3   192  GLY192      0.2014
     35  C        -12.7780  -24.9520  -30.6640 C.2   192  GLY192      0.2639
     36  O        -13.4370  -25.8580  -30.1520 O.2   192  GLY192     -0.2714
     37  N        -12.3420  -25.0090  -31.9090 N.am  193  GLY193     -0.1939
     38  CA       -12.6390  -26.1770  -32.7150 C.3   193  GLY193      0.2014
     39  C        -13.6110  -25.8250  -33.8070 C.2   193  GLY193      0.2638
     40  O        -14.2930  -24.7890  -33.7560 O.2   193  GLY193     -0.2714
     41  N        -13.6330  -26.6840  -34.8170 N.am  194  GLU194     -0.1977
     42  CA       -14.4840  -26.5460  -35.9760 C.3   194  GLU194      0.1602
     43  C        -15.9360  -26.1920  -35.6250 C.2   194  GLU194      0.2287
     44  O        -16.5480  -25.3820  -36.3120 O.2   194  GLU194     -0.2864
     45  CB       -14.4390  -27.8670  -36.7430 C.3   194  GLU194      0.0415
     46  CG       -15.5950  -28.1210  -37.6450 C.3   194  GLU194      0.1163
     47  CD       -15.5550  -29.5400  -38.2150 C.2   194  GLU194      0.3649
     48  OE1      -15.4680  -30.5210  -37.4370 O.co2 194  GLU194     -0.2457
     49  OE2      -15.6050  -29.6560  -39.4510 O.co2 194  GLU194     -0.2457
     50  N        -17.0740  -24.5160  -33.0910 N.3   196  VAL196     -0.1231
     51  CA       -17.1400  -23.1370  -32.6120 C.3   196  VAL196      0.1692
     52  C        -16.9590  -22.1270  -33.7620 C.2   196  VAL196      0.2591
     53  O        -17.6340  -21.0890  -33.8250 O.2   196  VAL196     -0.2718
     54  CB       -16.1170  -22.9110  -31.4890 C.3   196  VAL196      0.0266
     55  CG1      -16.1140  -21.4790  -31.0660 C.3   196  VAL196      0.0020
     56  CG2      -16.4500  -23.8070  -30.2890 C.3   196  VAL196      0.0020
     57  N        -16.0640  -22.4510  -34.6900 N.am  197  LYS197     -0.1980
     58  CA       -15.8830  -21.6540  -35.8990 C.3   197  LYS197      0.1596
     59  C        -17.2130  -21.4550  -36.6600 C.2   197  LYS197      0.2287
     60  O        -17.5390  -20.3500  -37.0760 O.2   197  LYS197     -0.2864
     61  CB       -14.8140  -22.2990  -36.8040 C.3   197  LYS197      0.0298
     62  CG       -14.5120  -21.5040  -38.0610 C.3   197  LYS197      0.0038
     63  CD       -13.2330  -21.9680  -38.7350 C.3   197  LYS197      0.0206
     64  CE       -12.8420  -21.0180  -39.8820 C.3   197  LYS197      0.1093
     65  NZ       -12.9550  -19.5570  -39.4950 N.3   197  LYS197     -0.1314
     66  N        -21.8040  -18.1990  -29.7360 N.3   203  ARG203     -0.1245
     67  CA       -20.5690  -18.2380  -28.9600 C.3   203  ARG203      0.1563
     68  C        -20.7580  -17.5900  -27.5770 C.2   203  ARG203      0.2260
     69  O        -20.2760  -18.0970  -26.5640 O.2   203  ARG203     -0.2867
     70  CB       -19.4400  -17.5400  -29.7270 C.3   203  ARG203      0.0307
     71  CG       -18.9000  -18.3390  -30.9170 C.3   203  ARG203      0.0489
     72  CD       -17.8440  -17.5550  -31.6890 C.3   203  ARG203      0.2205
     73  NE       -17.6440  -18.1680  -32.9970 N.pl3 203  ARG203     -0.0865
     74  CZ       -16.9290  -17.6530  -33.9920 C.cat 203  ARG203      0.5346
     75  NH1      -16.3010  -16.4950  -33.8270 N.pl3 203  ARG203      0.1354
     76  NH2      -16.8560  -18.3060  -35.1640 N.pl3 203  ARG203      0.1354
     77  N        -13.1140  -17.2880  -26.2970 N.3   216  ILE216     -0.1231
     78  CA       -13.0450  -17.8790  -27.6180 C.3   216  ILE216      0.1692
     79  C        -12.2010  -16.9430  -28.4530 C.2   216  ILE216      0.2592
     80  O        -12.3810  -15.7120  -28.3980 O.2   216  ILE216     -0.2718
     81  CB       -14.4460  -18.0830  -28.2390 C.3   216  ILE216      0.0266
     82  CG1      -15.2910  -18.9430  -27.3020 C.3   216  ILE216      0.0019
     83  CG2      -14.3080  -18.7320  -29.6350 C.3   216  ILE216      0.0020
     84  CD1      -16.7340  -19.0090  -27.6430 C.3   216  ILE216      0.0001
     85  N        -11.2570  -17.5050  -29.2030 N.am  217  GLU217     -0.1966
     86  CA       -10.3700  -16.6950  -30.0310 C.3   217  GLU217      0.1718
     87  C        -11.1920  -16.0200  -31.1080 C.2   217  GLU217      0.2458
     88  O        -12.2460  -16.5050  -31.4930 O.2   217  GLU217     -0.2730
     89  CB        -9.2500  -17.5430  -30.6480 C.3   217  GLU217      0.0428
     90  CG        -8.0690  -17.7310  -29.7070 C.3   217  GLU217      0.1163
     91  CD        -7.0840  -18.7730  -30.1800 C.2   217  GLU217      0.3649
     92  OE1       -7.1690  -19.1820  -31.3540 O.co2 217  GLU217     -0.2457
     93  OE2       -6.2370  -19.2090  -29.3740 O.co2 217  GLU217     -0.2457
     94  N        -10.7250  -14.8640  -31.5750 N.am  218  PRO218     -0.2716
     95  CA       -11.4930  -14.1490  -32.5930 C.3   218  PRO218      0.1536
     96  C        -11.2190  -14.7460  -33.9800 C.2   218  PRO218      0.2598
     97  O        -10.1120  -15.2330  -34.2440 O.2   218  PRO218     -0.2715
     98  CB       -10.9390  -12.7240  -32.5200 C.3   218  PRO218      0.0310
     99  CG        -9.5390  -12.9030  -31.9860 C.3   218  PRO218      0.0237
    100  CD        -9.5720  -14.1070  -31.0720 C.3   218  PRO218      0.0939
    101  N        -12.2350  -14.7230  -34.8330 N.am  219  ASP219     -0.1972
    102  CA       -12.0690  -14.9470  -36.2540 C.3   219  ASP219      0.1709
    103  C        -12.7720  -13.8380  -37.0490 C.2   219  ASP219      0.2293
    104  O        -13.1520  -12.8070  -36.4960 O.2   219  ASP219     -0.2864
    105  CB       -12.6060  -16.3230  -36.6520 C.3   219  ASP219      0.1436
    106  CG       -14.1050  -16.4700  -36.4390 C.2   219  ASP219      0.3671
    107  OD1      -14.8430  -15.4810  -36.1840 O.co2 219  ASP219     -0.2456
    108  OD2      -14.5710  -17.6100  -36.5530 O.co2 219  ASP219     -0.2456
    109  N         -4.1630  -14.2890  -30.6140 N.3   242  LYS242     -0.1245
    110  CA        -4.5470  -15.6970  -30.6220 C.3   242  LYS242      0.1561
    111  C         -3.5240  -16.5140  -29.8420 C.2   242  LYS242      0.2260
    112  O         -2.3670  -16.1180  -29.7500 O.2   242  LYS242     -0.2867
    113  CB        -4.6680  -16.2140  -32.0640 C.3   242  LYS242      0.0271
    114  CG        -5.7890  -15.5960  -32.8940 C.3   242  LYS242      0.0035
    115  CD        -6.2110  -16.5550  -34.0160 C.3   242  LYS242      0.0206
    116  CE        -6.9610  -15.8540  -35.1420 C.3   242  LYS242      0.1093
    117  NZ        -6.0520  -14.8390  -35.7610 N.3   242  LYS242     -0.1314
@<TRIPOS>BOND
     1    64    65    1
     2    64    63    1
     3    49    47   ar
     4    63    62    1
     5    47    46    1
     6    47    48   ar
     7    62    61    1
     8    46    45    1
     9    60    59    2
    10   103   104    2
    11   103   102    1
    12    61    58    1
    13    45    42    1
    14    59    58    1
    15   105   106    1
    16   105   102    1
    17   108   106   ar
    18   106   107   ar
    19    44    43    2
    20   102   101    1
    21    42    43    1
    22    42    41    1
    23    58    57    1
    24   117   116    1
    25    76    74    1
    26   116   115    1
    27   101    96   am
    28    41    39   am
    29    57    52   am
    30    97    96    2
    31   115   114    1
    32    74    75    1
    33    74    73    2
    34    96    95    1
    35    53    52    2
    36    39    40    2
    37    39    38    1
    38    52    51    1
    39    50    51    1
    40    73    72    1
    41   114   113    1
    42    38    37    1
    43    51    54    1
    44    95    98    1
    45    95    94    1
    46    98    99    1
    47   113   110    1
    48    99   100    1
    49    37    35   am
    50    72    71    1
    51    94    87   am
    52    94   100    1
    53    88    87    2
    54    54    55    1
    55    54    56    1
    56    92    91   ar
    57    87    86    1
    58    71    70    1
    59    35    36    2
    60    35    34    1
    61    89    86    1
    62    89    90    1
    63   110   109    1
    64   110   111    1
    65    91    90    1
    66    91    93   ar
    67    86    85    1
    68    12    11    1
    69    34    33    1
    70   111   112    2
    71    66    67    1
    72    70    67    1
    73    83    81    1
    74    85    79   am
    75    67    68    1
    76    11     9   ar
    77    11    10   ar
    78    33    24   am
    79    79    80    2
    80    79    78    1
    81    81    78    1
    82    81    82    1
    83     9     7   ar
    84    25    24    2
    85    24    23    1
    86    10     8   ar
    87    84    82    1
    88    78    77    1
    89    68    69    2
    90    21    19   am
    91     7     6   ar
    92     8     6   ar
    93    23    26    1
    94    23    22    1
    95    26    27    1
    96     6     5    1
    97    19    18    1
    98    19    20    2
    99    18    17    1
   100    22    15   am
   101    27    29   ar
   102    27    28   ar
   103     5     2    1
   104    15    16    2
   105    15    14    1
   106    29    31   ar
   107    28    30   ar
   108    17    14    1
   109     3     4    2
   110     3     2    1
   111    14    13    1
   112     2     1    1
   113    31    32   ar
   114    30    32   ar
