@<TRIPOS>MOLECULE
tmp/4kp1A01.pdb
 107 103 0 0 0
SMALL
GASTEIGER

@<TRIPOS>ATOM
      1  N        -30.8370  -28.3530  -17.8440 N.3   265  ALA265     -0.1231
      2  CA       -30.2530  -28.3030  -16.5160 C.3   265  ALA265      0.1694
      3  C        -31.4540  -28.3210  -15.5610 C.2   265  ALA265      0.2592
      4  O        -32.3510  -27.4760  -15.6580 O.2   265  ALA265     -0.2718
      5  CB       -29.4090  -27.0550  -16.3330 C.3   265  ALA265      0.0304
      6  N        -31.4640  -29.3020  -14.6540 N.am  266  CYS266     -0.1957
      7  CA       -32.6480  -29.6220  -13.8590 C.3   266  CYS266      0.1828
      8  C        -32.4880  -29.1380  -12.4170 C.2   266  CYS266      0.2467
      9  O        -31.3550  -28.9800  -11.9360 O.2   266  CYS266     -0.2730
     10  CB       -32.8860  -31.1430  -13.8740 C.3   266  CYS266      0.0996
     11  SG       -32.9630  -31.9100  -15.5430 S.3   266  CYS266     -0.0797
     12  N        -33.6200  -28.9050  -11.7200 N.am  267  PRO267     -0.2715
     13  CA       -33.4950  -28.4800  -10.3170 C.3   267  PRO267      0.1536
     14  C        -32.6970  -29.4990   -9.4950 C.2   267  PRO267      0.2598
     15  O        -32.7920  -30.7000   -9.7580 O.2   267  PRO267     -0.2715
     16  CB       -34.9530  -28.4150   -9.8390 C.3   267  PRO267      0.0310
     17  CG       -35.7580  -28.2030  -11.0890 C.3   267  PRO267      0.0237
     18  CD       -35.0300  -28.9740  -12.1630 C.3   267  PRO267      0.0939
     19  N        -31.8810  -29.0290   -8.5580 N.am  268  HIS268     -0.1974
     20  CA       -31.6670  -27.6010   -8.3640 C.3   268  HIS268      0.1656
     21  C        -30.2150  -27.1970   -8.6430 C.2   268  HIS268      0.2291
     22  O        -29.6650  -26.2940   -7.9940 O.2   268  HIS268     -0.2864
     23  CB       -32.0820  -27.1950   -6.9480 C.3   268  HIS268      0.0771
     24  CG       -33.5480  -27.3550   -6.6890 C.ar  268  HIS268      0.0820
     25  ND1      -34.1250  -28.5740   -6.4030 N.ar  268  HIS268     -0.2267
     26  CD2      -34.5580  -26.4490   -6.6980 C.ar  268  HIS268      0.1154
     27  CE1      -35.4290  -28.4130   -6.2370 C.ar  268  HIS268      0.1986
     28  NE2      -35.7150  -27.1340   -6.4100 N.ar  268  HIS268     -0.2212
     29  N        -27.2610  -26.4180  -11.9230 N.3   270  VAL270     -0.1245
     30  CA       -26.9070  -26.2300  -13.3280 C.3   270  VAL270      0.1561
     31  C        -26.1340  -27.4590  -13.7960 C.2   270  VAL270      0.2260
     32  O        -26.2360  -27.8750  -14.9420 O.2   270  VAL270     -0.2867
     33  CB       -26.0610  -24.9640  -13.5200 C.3   270  VAL270      0.0252
     34  CG1      -25.7870  -24.7450  -14.9740 C.3   270  VAL270      0.0019
     35  CG2      -26.7700  -23.7670  -12.9430 C.3   270  VAL270      0.0019
     36  N        -32.4710  -19.0890  -19.5820 N.3   372  SER372     -0.1217
     37  CA       -31.4440  -18.3840  -18.8120 C.3   372  SER372      0.1889
     38  C        -30.1010  -19.1000  -18.9030 C.2   372  SER372      0.2288
     39  O        -30.0700  -20.3230  -19.0150 O.2   372  SER372     -0.2866
     40  CB       -31.8480  -18.2390  -17.3500 C.3   372  SER372      0.2089
     41  OG       -30.7730  -17.6700  -16.6250 O.3   372  SER372     -0.2183
     42  N        -27.7520  -18.2690  -16.5440 N.3   374  ARG374     -0.1231
     43  CA       -27.2470  -18.1300  -15.1760 C.3   374  ARG374      0.1694
     44  C        -28.2220  -18.7590  -14.2080 C.2   374  ARG374      0.2592
     45  O        -29.4280  -18.7850  -14.4720 O.2   374  ARG374     -0.2718
     46  CB       -27.0480  -16.6500  -14.8250 C.3   374  ARG374      0.0321
     47  CG       -28.3200  -15.8150  -14.8970 C.3   374  ARG374      0.0489
     48  CD       -27.9620  -14.3530  -14.8160 C.3   374  ARG374      0.2205
     49  NE       -27.3470  -13.9830  -13.5480 N.pl3 374  ARG374     -0.0865
     50  CZ       -26.4420  -13.0110  -13.4120 C.cat 374  ARG374      0.5346
     51  NH1      -26.0180  -12.3500  -14.4830 N.pl3 374  ARG374      0.1354
     52  NH2      -25.9400  -12.7170  -12.2140 N.pl3 374  ARG374      0.1354
     53  N        -27.6970  -19.2920  -13.1100 N.am  375  ASN375     -0.1960
     54  CA       -28.5230  -19.8180  -12.0240 C.3   375  ASN375      0.1819
     55  C        -29.0250  -18.6820  -11.1400 C.2   375  ASN375      0.2621
     56  O        -28.3870  -17.6230  -11.0630 O.2   375  ASN375     -0.2715
     57  CB       -27.7200  -20.7830  -11.1420 C.3   375  ASN375      0.1195
     58  CG       -26.7720  -20.0520  -10.1770 C.2   375  ASN375      0.2630
     59  OD1      -27.1900  -19.5230   -9.1290 O.2   375  ASN375     -0.2716
     60  ND2      -25.4950  -20.0170  -10.5350 N.am  375  ASN375     -0.0877
     61  N        -30.1600  -18.9140  -10.4760 N.am  376  PHE376     -0.1960
     62  CA       -30.6780  -17.9850   -9.4740 C.3   376  PHE376      0.1771
     63  C        -30.7350  -18.6850   -8.1260 C.2   376  PHE376      0.2619
     64  O        -31.6550  -18.4740   -7.3420 O.2   376  PHE376     -0.2715
     65  CB       -32.0740  -17.4760   -9.8570 C.3   376  PHE376      0.0574
     66  CG       -32.0790  -16.5330  -11.0200 C.ar  376  PHE376     -0.0200
     67  CD1      -31.9550  -17.0180  -12.3180 C.ar  376  PHE376     -0.0042
     68  CD2      -32.2210  -15.1670  -10.8210 C.ar  376  PHE376     -0.0042
     69  CE1      -31.9580  -16.1690  -13.3880 C.ar  376  PHE376     -0.0003
     70  CE2      -32.2320  -14.3020  -11.8880 C.ar  376  PHE376     -0.0003
     71  CZ       -32.1000  -14.8020  -13.1820 C.ar  376  PHE376     -0.0000
     72  N        -29.7470  -19.5270   -7.8600 N.am  377  ARG377     -0.1977
     73  CA       -29.7360  -20.2850   -6.6130 C.3   377  ARG377      0.1597
     74  C        -29.6590  -19.3740   -5.3770 C.2   377  ARG377      0.2287
     75  O        -29.1220  -18.2540   -5.4290 O.2   377  ARG377     -0.2864
     76  CB       -28.6320  -21.3400   -6.6220 C.3   377  ARG377      0.0334
     77  CG       -28.9810  -22.5820   -7.4360 C.3   377  ARG377      0.0492
     78  CD       -27.7460  -23.4630   -7.5800 C.3   377  ARG377      0.2205
     79  NE       -26.9370  -23.4330   -6.3580 N.pl3 377  ARG377     -0.0865
     80  CZ       -26.8950  -24.4110   -5.4530 C.cat 377  ARG377      0.5346
     81  NH1      -27.6060  -25.5210   -5.6330 N.pl3 377  ARG377      0.1354
     82  NH2      -26.1340  -24.2840   -4.3710 N.pl3 377  ARG377      0.1354
     83  N        -34.0250  -18.5490   -5.7090 N.3   380  GLN380     -0.1245
     84  CA       -35.0800  -19.2280   -6.4620 C.3   380  GLN380      0.1566
     85  C        -35.7930  -20.1960   -5.4940 C.2   380  GLN380      0.2260
     86  O        -35.4720  -21.3860   -5.3840 O.2   380  GLN380     -0.2867
     87  CB       -34.5730  -19.8630   -7.7800 C.3   380  GLN380      0.0367
     88  CG       -33.8660  -21.2390   -7.7190 C.3   380  GLN380      0.0905
     89  CD       -34.8040  -22.3870   -8.1290 C.2   380  GLN380      0.2608
     90  OE1      -34.7570  -22.8790   -9.2700 O.2   380  GLN380     -0.2717
     91  NE2      -35.6710  -22.8050   -7.2000 N.am  380  GLN380     -0.0878
     92  N        -37.2330  -24.9950  -11.8760 N.3   387  ILE387     -0.1245
     93  CA       -36.7520  -24.2850  -13.0560 C.3   387  ILE387      0.1561
     94  C        -35.7540  -25.1240  -13.8300 C.2   387  ILE387      0.2260
     95  O        -34.7360  -25.5690  -13.2990 O.2   387  ILE387     -0.2867
     96  CB       -36.1040  -22.9380  -12.7140 C.3   387  ILE387      0.0252
     97  CG1      -37.0950  -22.0500  -11.9540 C.3   387  ILE387      0.0019
     98  CG2      -35.6300  -22.2570  -13.9850 C.3   387  ILE387      0.0019
     99  CD1      -36.5020  -20.7250  -11.4840 C.3   387  ILE387      0.0001
    100  N        -33.3130  -25.2340  -17.1270 N.3   389  LEU389     -0.1245
    101  CA       -32.6640  -24.4250  -18.1740 C.3   389  LEU389      0.1561
    102  C        -32.5680  -25.2150  -19.4760 C.2   389  LEU389      0.2260
    103  O        -32.2930  -26.4090  -19.4500 O.2   389  LEU389     -0.2867
    104  CB       -31.2730  -23.9750  -17.7520 C.3   389  LEU389      0.0270
    105  CG       -31.1870  -23.2420  -16.4200 C.3   389  LEU389      0.0019
    106  CD1      -29.7380  -22.8950  -16.0860 C.3   389  LEU389      0.0001
    107  CD2      -32.0570  -22.0020  -16.4990 C.3   389  LEU389      0.0001
@<TRIPOS>BOND
     1    36    37    1
     2   102   103    2
     3   102   101    1
     4    39    38    2
     5    38    37    1
     6    37    40    1
     7   101   104    1
     8   101   100    1
     9     1     2    1
    10   104   105    1
    11    40    41    1
    12    42    43    1
    13     2     5    1
    14     2     3    1
    15   107   105    1
    16   105   106    1
    17     4     3    2
    18     3     6   am
    19    11    10    1
    20    43    46    1
    21    43    44    1
    22    34    33    1
    23    32    31    2
    24    47    46    1
    25    47    48    1
    26    48    49    1
    27     6     7    1
    28    51    50    1
    29    45    44    2
    30    44    53   am
    31    98    96    1
    32    10     7    1
    33     7     8    1
    34    94    95    2
    35    94    93    1
    36    31    30    1
    37    49    50    2
    38    33    30    1
    39    33    35    1
    40    50    52    1
    41    69    71   ar
    42    69    67   ar
    43    30    29    1
    44    71    70   ar
    45    53    54    1
    46    93    96    1
    47    93    92    1
    48    96    97    1
    49     8     9    2
    50     8    12   am
    51    67    66   ar
    52    18    12    1
    53    18    17    1
    54    54    57    1
    55    54    55    1
    56    97    99    1
    57    70    68   ar
    58    12    13    1
    59    57    58    1
    60    55    56    2
    61    55    61   am
    62    17    16    1
    63    66    68   ar
    64    66    65    1
    65    60    58   am
    66    61    62    1
    67    13    16    1
    68    13    14    1
    69    58    59    2
    70    65    62    1
    71    15    14    2
    72    14    19   am
    73    62    63    1
    74    90    89    2
    75    21    20    1
    76    21    22    2
    77    19    20    1
    78    20    23    1
    79    89    88    1
    80    89    91   am
    81    63    72   am
    82    63    64    2
    83    72    73    1
    84    87    88    1
    85    87    84    1
    86    78    77    1
    87    78    79    1
    88    77    76    1
    89    23    24    1
    90    26    24   ar
    91    26    28   ar
    92    24    25   ar
    93    76    73    1
    94    73    74    1
    95    84    83    1
    96    84    85    1
    97    28    27   ar
    98    25    27   ar
    99    79    80    2
   100    81    80    1
   101    85    86    2
   102    80    82    1
   103    75    74    2
