@<TRIPOS>MOLECULE
tmp/4kp1A00.pdb
 100 91 0 0 0
SMALL
GASTEIGER

@<TRIPOS>ATOM
      1  N        -39.8530  -19.1320  -20.2660 N.3   288  PHE288     -0.1241
      2  CA       -39.2130  -17.8470  -20.5760 C.3   288  PHE288      0.1605
      3  C        -38.2500  -18.0400  -21.7300 C.2   288  PHE288      0.2264
      4  O        -37.2870  -18.8300  -21.6440 O.2   288  PHE288     -0.2867
      5  CB       -38.4620  -17.2610  -19.3700 C.3   288  PHE288      0.0534
      6  CG       -39.3640  -16.7050  -18.2860 C.ar  288  PHE288     -0.0203
      7  CD1      -39.9040  -17.5440  -17.3020 C.ar  288  PHE288     -0.0042
      8  CD2      -39.6560  -15.3390  -18.2380 C.ar  288  PHE288     -0.0042
      9  CE1      -40.7360  -17.0360  -16.2930 C.ar  288  PHE288     -0.0003
     10  CE2      -40.4880  -14.8230  -17.2370 C.ar  288  PHE288     -0.0003
     11  CZ       -41.0280  -15.6830  -16.2580 C.ar  288  PHE288     -0.0000
     12  N        -35.6880  -16.0610  -23.9520 N.3   290  GLY290     -0.1210
     13  CA       -34.9500  -14.8100  -23.8920 C.3   290  GLY290      0.1956
     14  C        -34.7950  -14.5140  -22.4180 C.2   290  GLY290      0.2613
     15  O        -35.7750  -14.4030  -21.6660 O.2   290  GLY290     -0.2717
     16  N        -33.5540  -14.4000  -21.9790 N.am  291  SER291     -0.1938
     17  CA       -33.2860  -14.3150  -20.5620 C.3   291  SER291      0.2055
     18  C        -31.8750  -13.7430  -20.4110 C.2   291  SER291      0.2643
     19  O        -31.4190  -12.9560  -21.2580 O.2   291  SER291     -0.2714
     20  CB       -33.4050  -15.7190  -19.9700 C.3   291  SER291      0.2130
     21  OG       -33.3780  -15.7150  -18.5550 O.3   291  SER291     -0.2179
     22  N        -31.1880  -14.1320  -19.3430 N.am  292  CYS292     -0.1967
     23  CA       -29.8460  -13.6180  -19.0790 C.3   292  CYS292      0.1712
     24  C        -28.7950  -14.6690  -19.4230 C.2   292  CYS292      0.2296
     25  O        -28.7180  -15.6970  -18.7500 O.2   292  CYS292     -0.2864
     26  CB       -29.7210  -13.2660  -17.5990 C.3   292  CYS292      0.0983
     27  SG       -31.1160  -12.3200  -16.9440 S.3   292  CYS292     -0.0798
     28  N        -33.2170   -7.4300  -13.7990 N.3   354  ALA354     -0.1245
     29  CA       -33.9170   -8.7020  -13.6370 C.3   354  ALA354      0.1562
     30  C        -32.9220   -9.8540  -13.4920 C.2   354  ALA354      0.2260
     31  O        -33.1400  -10.7970  -12.7180 O.2   354  ALA354     -0.2867
     32  CB       -34.8880   -8.9470  -14.8070 C.3   354  ALA354      0.0290
     33  N        -36.2050  -13.9240   -7.8720 N.3   358  LEU358     -0.1245
     34  CA       -37.2890  -14.4200   -8.7050 C.3   358  LEU358      0.1561
     35  C        -38.6060  -14.4320   -7.9250 C.2   358  LEU358      0.2260
     36  O        -39.6190  -14.9630   -8.4020 O.2   358  LEU358     -0.2867
     37  CB       -36.9440  -15.8060   -9.2620 C.3   358  LEU358      0.0270
     38  CG       -35.7140  -15.8040  -10.1920 C.3   358  LEU358      0.0019
     39  CD1      -35.5000  -17.1570  -10.8510 C.3   358  LEU358      0.0001
     40  CD2      -35.8150  -14.6900  -11.2490 C.3   358  LEU358      0.0001
     41  N        -42.2020  -13.6640   -9.7220 N.3   361  VAL361     -0.1231
     42  CA       -42.3390  -14.1230  -11.1060 C.3   361  VAL361      0.1692
     43  C        -42.8440  -15.5600  -11.1810 C.2   361  VAL361      0.2591
     44  O        -43.7120  -15.8710  -11.9990 O.2   361  VAL361     -0.2718
     45  CB       -41.0560  -13.9060  -11.9560 C.3   361  VAL361      0.0266
     46  CG1      -39.8810  -13.5260  -11.0850 C.3   361  VAL361      0.0020
     47  CG2      -40.7390  -15.1310  -12.8270 C.3   361  VAL361      0.0020
     48  N        -42.3290  -16.4350  -10.3230 N.am  362  LEU362     -0.1980
     49  CA       -42.8660  -17.7900  -10.2720 C.3   362  LEU362      0.1596
     50  C        -43.7840  -17.9910   -9.0640 C.2   362  LEU362      0.2287
     51  O        -43.4470  -17.5780   -7.9550 O.2   362  LEU362     -0.2864
     52  CB       -41.7450  -18.8260  -10.2500 C.3   362  LEU362      0.0297
     53  CG       -40.9210  -19.0010  -11.5220 C.3   362  LEU362      0.0022
     54  CD1      -40.4080  -20.4380  -11.5840 C.3   362  LEU362      0.0001
     55  CD2      -41.7280  -18.6380  -12.7780 C.3   362  LEU362      0.0001
     56  N        -41.1400  -24.2810  -14.4210 N.3   368  CYS368     -0.1235
     57  CA       -40.7700  -23.3000  -15.4400 C.3   368  CYS368      0.1677
     58  C        -39.6170  -23.8200  -16.3040 C.2   368  CYS368      0.2270
     59  O        -38.6960  -24.4700  -15.8010 O.2   368  CYS368     -0.2867
     60  CB       -40.3850  -21.9810  -14.7620 C.3   368  CYS368      0.0956
     61  SG       -39.6120  -20.6850  -15.7970 S.3   368  CYS368     -0.0801
     62  N        -36.6840  -22.2410  -18.7900 N.3   370  SER370     -0.1217
     63  CA       -36.0410  -20.9500  -19.0680 C.3   370  SER370      0.1889
     64  C        -34.8250  -21.0970  -19.9790 C.2   370  SER370      0.2288
     65  O        -34.0570  -22.0780  -19.8750 O.2   370  SER370     -0.2866
     66  CB       -35.5940  -20.2970  -17.7480 C.3   370  SER370      0.2089
     67  OG       -34.9470  -19.0500  -17.9820 O.3   370  SER370     -0.2183
     68  N        -32.4710  -19.0890  -19.5820 N.3   372  SER372     -0.1217
     69  CA       -31.4440  -18.3840  -18.8120 C.3   372  SER372      0.1889
     70  C        -30.1010  -19.1000  -18.9030 C.2   372  SER372      0.2288
     71  O        -30.0700  -20.3230  -19.0150 O.2   372  SER372     -0.2866
     72  CB       -31.8480  -18.2390  -17.3500 C.3   372  SER372      0.2089
     73  OG       -30.7730  -17.6700  -16.6250 O.3   372  SER372     -0.2183
     74  N        -30.1600  -18.9140  -10.4760 N.3   376  PHE376     -0.1241
     75  CA       -30.6780  -17.9850   -9.4740 C.3   376  PHE376      0.1605
     76  C        -30.7350  -18.6850   -8.1260 C.2   376  PHE376      0.2264
     77  O        -31.6550  -18.4740   -7.3420 O.2   376  PHE376     -0.2867
     78  CB       -32.0740  -17.4760   -9.8570 C.3   376  PHE376      0.0534
     79  CG       -32.0790  -16.5330  -11.0200 C.ar  376  PHE376     -0.0203
     80  CD1      -31.9550  -17.0180  -12.3180 C.ar  376  PHE376     -0.0042
     81  CD2      -32.2210  -15.1670  -10.8210 C.ar  376  PHE376     -0.0042
     82  CE1      -31.9580  -16.1690  -13.3880 C.ar  376  PHE376     -0.0003
     83  CE2      -32.2320  -14.3020  -11.8880 C.ar  376  PHE376     -0.0003
     84  CZ       -32.1000  -14.8020  -13.1820 C.ar  376  PHE376     -0.0000
     85  N        -37.2330  -24.9950  -11.8760 N.3   387  ILE387     -0.1245
     86  CA       -36.7520  -24.2850  -13.0560 C.3   387  ILE387      0.1561
     87  C        -35.7540  -25.1240  -13.8300 C.2   387  ILE387      0.2260
     88  O        -34.7360  -25.5690  -13.2990 O.2   387  ILE387     -0.2867
     89  CB       -36.1040  -22.9380  -12.7140 C.3   387  ILE387      0.0252
     90  CG1      -37.0950  -22.0500  -11.9540 C.3   387  ILE387      0.0019
     91  CG2      -35.6300  -22.2570  -13.9850 C.3   387  ILE387      0.0019
     92  CD1      -36.5020  -20.7250  -11.4840 C.3   387  ILE387      0.0001
     93  N        -33.3130  -25.2340  -17.1270 N.3   389  LEU389     -0.1245
     94  CA       -32.6640  -24.4250  -18.1740 C.3   389  LEU389      0.1561
     95  C        -32.5680  -25.2150  -19.4760 C.2   389  LEU389      0.2260
     96  O        -32.2930  -26.4090  -19.4500 O.2   389  LEU389     -0.2867
     97  CB       -31.2730  -23.9750  -17.7520 C.3   389  LEU389      0.0270
     98  CG       -31.1870  -23.2420  -16.4200 C.3   389  LEU389      0.0019
     99  CD1      -29.7380  -22.8950  -16.0860 C.3   389  LEU389      0.0001
    100  CD2      -32.0570  -22.0020  -16.4990 C.3   389  LEU389      0.0001
@<TRIPOS>BOND
     1    12    13    1
     2    13    14    1
     3    14    16   am
     4    14    15    2
     5    16    17    1
     6     3     4    2
     7     3     2    1
     8    19    18    2
     9     2     1    1
    10     2     5    1
    11    17    18    1
    12    17    20    1
    13    18    22   am
    14    64    65    2
    15    64    63    1
    16    20    21    1
    17    68    69    1
    18    95    96    2
    19    95    94    1
    20    24    23    1
    21    24    25    2
    22     5     6    1
    23    22    23    1
    24    23    26    1
    25    63    62    1
    26    63    66    1
    27    71    70    2
    28    70    69    1
    29    69    72    1
    30     6     8   ar
    31     6     7   ar
    32     8    10   ar
    33    94    97    1
    34    94    93    1
    35    67    66    1
    36    97    98    1
    37    26    27    1
    38    72    73    1
    39     7     9   ar
    40    10    11   ar
    41   100    98    1
    42    98    99    1
    43    58    59    2
    44    58    57    1
    45     9    11   ar
    46    61    60    1
    47    57    60    1
    48    57    56    1
    49    32    29    1
    50    91    89    1
    51    87    88    2
    52    87    86    1
    53    28    29    1
    54    29    30    1
    55    30    31    2
    56    82    84   ar
    57    82    80   ar
    58    84    83   ar
    59    86    89    1
    60    86    85    1
    61    47    45    1
    62    55    53    1
    63    89    90    1
    64    80    79   ar
    65    44    43    2
    66    45    42    1
    67    45    46    1
    68    90    92    1
    69    83    81   ar
    70    54    53    1
    71    53    52    1
    72    40    38    1
    73    43    42    1
    74    43    48   am
    75    42    41    1
    76    79    81   ar
    77    79    78    1
    78    39    38    1
    79    74    75    1
    80    48    49    1
    81    49    52    1
    82    49    50    1
    83    38    37    1
    84    78    75    1
    85    75    76    1
    86    37    34    1
    87    50    51    2
    88    34    35    1
    89    34    33    1
    90    36    35    2
    91    76    77    2
