@<TRIPOS>MOLECULE
tmp/4kp4A00.pdb
 177 169 0 0 0
SMALL
GASTEIGER

@<TRIPOS>ATOM
      1  N        -41.4610   41.5800   -6.6340 N.3    13  HIS13      -0.1241
      2  CA       -41.8660   41.1030   -5.3250 C.3    13  HIS13       0.1621
      3  C        -42.4740   42.1980   -4.4670 C.2    13  HIS13       0.2264
      4  O        -43.4950   41.9820   -3.8430 O.2    13  HIS13      -0.2867
      5  CB       -40.7010   40.5040   -4.5580 C.3    13  HIS13       0.0745
      6  CG       -41.0520   40.1540   -3.1530 C.ar   13  HIS13       0.0817
      7  ND1      -40.9870   41.0670   -2.1260 N.ar   13  HIS13      -0.2268
      8  CD2      -41.5130   39.0060   -2.6100 C.ar   13  HIS13       0.1154
      9  CE1      -41.3680   40.4870   -1.0020 C.ar   13  HIS13       0.1986
     10  NE2      -41.6880   39.2360   -1.2660 N.ar   13  HIS13      -0.2212
     11  N        -40.3630   43.0900    6.4320 N.3   122  MET122     -0.1245
     12  CA       -40.2180   42.6580    7.8100 C.3   122  MET122      0.1570
     13  C        -41.5900   42.5880    8.4900 C.2   122  MET122      0.2261
     14  O        -41.8980   41.6300    9.2000 O.2   122  MET122     -0.2867
     15  CB       -39.3030   43.6100    8.5870 C.3   122  MET122      0.0387
     16  CG       -37.8630   43.7000    8.1100 C.3   122  MET122      0.0595
     17  SD       -36.9430   44.9030    9.1140 S.3   122  MET122     -0.1393
     18  CE       -35.3290   44.7550    8.3680 C.3   122  MET122      0.0692
     19  N        -44.7720   42.4680    7.0640 N.3   124  VAL124     -0.1231
     20  CA       -45.6850   41.4400    6.5380 C.3   124  VAL124      0.1692
     21  C        -45.3090   40.0510    7.0510 C.2   124  VAL124      0.2592
     22  O        -46.1820   39.2680    7.3720 O.2   124  VAL124     -0.2718
     23  CB       -45.8300   41.4240    5.0000 C.3   124  VAL124      0.0266
     24  CG1      -46.0860   42.8260    4.4760 C.3   124  VAL124      0.0020
     25  CG2      -44.6290   40.7930    4.3230 C.3   124  VAL124      0.0020
     26  N        -44.0250   39.7570    7.1510 N.am  125  ASN125     -0.1960
     27  CA       -43.5940   38.5080    7.7650 C.3   125  ASN125      0.1819
     28  C        -44.0270   38.3950    9.2220 C.2   125  ASN125      0.2621
     29  O        -44.3570   37.3190    9.6970 O.2   125  ASN125     -0.2715
     30  CB       -42.0760   38.3730    7.7060 C.3   125  ASN125      0.1195
     31  CG       -41.5780   38.0480    6.3240 C.2   125  ASN125      0.2630
     32  OD1      -42.3490   37.9890    5.3650 O.2   125  ASN125     -0.2716
     33  ND2      -40.2780   37.8210    6.2120 N.am  125  ASN125     -0.0877
     34  N        -43.9980   39.4970    9.9450 N.am  126  ALA126     -0.1977
     35  CA       -44.2970   39.4360   11.3640 C.3   126  ALA126      0.1597
     36  C        -45.7620   39.0540   11.5200 C.2   126  ALA126      0.2287
     37  O        -46.1650   38.3880   12.4810 O.2   126  ALA126     -0.2864
     38  CB       -44.0140   40.7750   12.0210 C.3   126  ALA126      0.0319
     39  N        -47.3140   37.3760    8.9950 N.3   128  ARG128     -0.1231
     40  CA       -47.4090   36.0660    8.3730 C.3   128  ARG128      0.1694
     41  C        -47.0080   34.9240    9.3130 C.2   128  ARG128      0.2592
     42  O        -47.6620   33.8960    9.3380 O.2   128  ARG128     -0.2718
     43  CB       -46.5550   36.0260    7.1030 C.3   128  ARG128      0.0321
     44  CG       -47.1210   35.1590    5.9950 C.3   128  ARG128      0.0489
     45  CD       -46.1090   34.9440    4.8730 C.3   128  ARG128      0.2205
     46  NE       -46.3080   35.8350    3.7270 N.pl3 128  ARG128     -0.0865
     47  CZ       -45.3330   36.3050    2.9430 C.cat 128  ARG128      0.5346
     48  NH1      -44.0570   36.0120    3.1760 N.pl3 128  ARG128      0.1354
     49  NH2      -45.6290   37.1030    1.9240 N.pl3 128  ARG128      0.1354
     50  N        -45.9440   35.1060   10.0830 N.am  129  TYR129     -0.1976
     51  CA       -45.3990   34.0230   10.9010 C.3   129  TYR129      0.1639
     52  C        -45.6190   34.2680   12.3860 C.2   129  TYR129      0.2290
     53  O        -45.1930   33.4810   13.2160 O.2   129  TYR129     -0.2864
     54  CB       -43.9050   33.8320   10.6150 C.3   129  TYR129      0.0560
     55  CG       -43.6080   33.5510    9.1570 C.ar  129  TYR129     -0.0198
     56  CD1      -43.1180   34.5420    8.3190 C.ar  129  TYR129     -0.0009
     57  CD2      -43.8400   32.3080    8.6120 C.ar  129  TYR129     -0.0009
     58  CE1      -42.8590   34.2900    6.9810 C.ar  129  TYR129      0.0417
     59  CE2      -43.5910   32.0450    7.2730 C.ar  129  TYR129      0.0417
     60  CZ       -43.0950   33.0360    6.4570 C.ar  129  TYR129      0.1957
     61  OH       -42.8310   32.7690    5.1250 O.3   129  TYR129     -0.2866
     62  N        -42.0800   40.0530   16.3020 N.3   151  ASP151     -0.1239
     63  CA       -43.3530   39.3080   16.3370 C.3   151  ASP151      0.1674
     64  C        -43.3390   38.3100   17.4670 C.2   151  ASP151      0.2266
     65  O        -42.2920   38.0400   18.0320 O.2   151  ASP151     -0.2867
     66  CB       -43.5990   38.5510   15.0390 C.3   151  ASP151      0.1410
     67  CG       -42.4860   37.5810   14.7060 C.2   151  ASP151      0.3668
     68  OD1      -42.2790   36.5810   15.4210 O.co2 151  ASP151     -0.2456
     69  OD2      -41.8140   37.8160   13.6970 O.co2 151  ASP151     -0.2456
     70  N        -42.7220   31.9180   16.3010 N.3   154  PRO154     -0.2102
     71  CA       -41.7130   30.9850   16.7760 C.3   154  PRO154      0.1504
     72  C        -40.2650   31.4530   16.6420 C.2   154  PRO154      0.2576
     73  O        -39.3660   30.7360   17.0390 O.2   154  PRO154     -0.2718
     74  CB       -41.9120   29.8000   15.8480 C.3   154  PRO154      0.0282
     75  CG       -42.2960   30.4170   14.5630 C.3   154  PRO154      0.0208
     76  CD       -43.2180   31.5320   14.9690 C.3   154  PRO154      0.0893
     77  N        -40.0250   32.6160   16.0530 N.am  155  GLY155     -0.1943
     78  CA       -38.6490   33.0560   15.8330 C.3   155  GLY155      0.2014
     79  C        -37.9850   32.2240   14.7580 C.2   155  GLY155      0.2638
     80  O        -38.6490   31.4010   14.1360 O.2   155  GLY155     -0.2714
     81  N        -36.6920   32.4610   14.5250 N.am  156  ILE156     -0.1977
     82  CA       -35.9080   31.6430   13.5950 C.3   156  ILE156      0.1596
     83  C        -34.6480   31.1270   14.2650 C.2   156  ILE156      0.2287
     84  O        -33.7770   31.9020   14.6310 O.2   156  ILE156     -0.2864
     85  CB       -35.4840   32.4070   12.3380 C.3   156  ILE156      0.0276
     86  CG1      -36.7110   32.9300   11.6010 C.3   156  ILE156      0.0022
     87  CG2      -34.6710   31.4910   11.4350 C.3   156  ILE156      0.0022
     88  CD1      -36.3670   33.7820   10.3960 C.3   156  ILE156      0.0001
     89  N        -31.6620   30.8990    5.2070 N.3   164  LEU164     -0.1245
     90  CA       -32.9240   31.5110    4.7880 C.3   164  LEU164      0.1561
     91  C        -32.7890   32.9030    4.1480 C.2   164  LEU164      0.2260
     92  O        -33.7470   33.3880    3.5380 O.2   164  LEU164     -0.2867
     93  CB       -33.9120   31.5420    5.9580 C.3   164  LEU164      0.0270
     94  CG       -34.3290   30.1490    6.4910 C.3   164  LEU164      0.0019
     95  CD1      -35.0590   30.2520    7.8310 C.3   164  LEU164      0.0001
     96  CD2      -35.1690   29.3540    5.4880 C.3   164  LEU164      0.0001
     97  N        -35.6150   30.7160   -1.2550 N.3   169  VAL169     -0.1231
     98  CA       -35.4820   29.6860   -0.2560 C.3   169  VAL169      0.1692
     99  C        -36.5210   29.9990    0.7740 C.2   169  VAL169      0.2592
    100  O        -36.5220   31.0850    1.3540 O.2   169  VAL169     -0.2718
    101  CB       -34.1010   29.6900    0.4120 C.3   169  VAL169      0.0266
    102  CG1      -34.0810   28.7310    1.5840 C.3   169  VAL169      0.0020
    103  CG2      -33.0180   29.3440   -0.5980 C.3   169  VAL169      0.0020
    104  N        -37.4000   29.0320    0.9810 N.am  170  ARG170     -0.1966
    105  CA       -38.4820   29.1210    1.9390 C.3   170  ARG170      0.1729
    106  C        -38.1160   28.2900    3.1680 C.2   170  ARG170      0.2616
    107  O        -37.0780   27.6430    3.1960 O.2   170  ARG170     -0.2715
    108  CB       -39.7400   28.5810    1.2820 C.3   170  ARG170      0.0348
    109  CG       -40.1590   29.3710    0.0510 C.3   170  ARG170      0.0492
    110  CD       -41.4420   28.8270   -0.5470 C.3   170  ARG170      0.2205
    111  NE       -42.6840   29.4300   -0.0600 N.pl3 170  ARG170     -0.0865
    112  CZ       -42.8960   30.0240    1.1220 C.cat 170  ARG170      0.5346
    113  NH1      -44.0990   30.4920    1.3560 N.pl3 170  ARG170      0.1354
    114  NH2      -41.9730   30.1810    2.0700 N.pl3 170  ARG170      0.1354
    115  N        -38.9600   28.3440    4.1920 N.am  171  GLY171     -0.1955
    116  CA       -38.8210   27.4940    5.3780 C.3   171  GLY171      0.1869
    117  C        -39.7420   26.2820    5.3420 C.2   171  GLY171      0.2309
    118  O        -40.8760   26.3460    4.8600 O.2   171  GLY171     -0.2863
    119  N        -40.9150   25.0340    8.0380 N.3   173  SER173     -0.1202
    120  CA       -41.9120   25.6400    8.9230 C.3   173  SER173      0.2020
    121  C        -42.7960   26.5570    8.1000 C.2   173  SER173      0.2618
    122  O        -44.0080   26.5870    8.2790 O.2   173  SER173     -0.2717
    123  CB       -41.2480   26.4480   10.0450 C.3   173  SER173      0.2103
    124  OG       -40.4190   25.6250   10.8370 O.3   173  SER173     -0.2182
    125  N        -42.1700   27.3030    7.1940 N.am  174  ALA174     -0.1979
    126  CA       -42.8970   28.1690    6.2750 C.3   174  ALA174      0.1597
    127  C        -43.7670   27.4190    5.2690 C.2   174  ALA174      0.2287
    128  O        -44.7620   27.9710    4.8180 O.2   174  ALA174     -0.2864
    129  CB       -41.9360   29.0770    5.5310 C.3   174  ALA174      0.0319
    130  N        -45.9130   31.8140    0.1120 N.3   179  GLY179     -0.1210
    131  CA       -44.7670   32.7200   -0.1020 C.3   179  GLY179      0.1956
    132  C        -43.7880   32.3750   -1.2250 C.2   179  GLY179      0.2613
    133  O        -44.0910   31.5800   -2.1150 O.2   179  GLY179     -0.2717
    134  N        -42.6060   32.9930   -1.1700 N.am  180  THR180     -0.1938
    135  CA       -41.6750   33.0450   -2.3180 C.3   180  THR180      0.2028
    136  C        -40.2060   32.9270   -1.9570 C.2   180  THR180      0.2643
    137  O        -39.3670   32.7050   -2.8490 O.2   180  THR180     -0.2714
    138  CB       -41.7460   34.3890   -3.0690 C.3   180  THR180      0.1808
    139  OG1      -42.8680   35.1540   -2.6320 O.3   180  THR180     -0.2208
    140  CG2      -41.8020   34.1630   -4.5650 C.3   180  THR180      0.0379
    141  N        -39.8920   33.1320   -0.6790 N.am  181  GLY181     -0.1939
    142  CA       -38.5310   32.9790   -0.1940 C.3   181  GLY181      0.2014
    143  C        -37.6300   34.1140   -0.6270 C.2   181  GLY181      0.2639
    144  O        -36.4610   33.9090   -0.9400 O.2   181  GLY181     -0.2714
    145  N        -38.1820   35.3170   -0.5970 N.am  182  LEU182     -0.1963
    146  CA       -37.5410   36.5000   -1.1500 C.3   182  LEU182      0.1728
    147  C        -37.4410   37.6670   -0.1660 C.2   182  LEU182      0.2617
    148  O        -36.4740   38.4040   -0.1880 O.2   182  LEU182     -0.2715
    149  CB       -38.3100   36.9430   -2.3960 C.3   182  LEU182      0.0311
    150  CG       -37.6630   36.7730   -3.7670 C.3   182  LEU182      0.0022
    151  CD1      -36.6220   35.6820   -3.8150 C.3   182  LEU182      0.0001
    152  CD2      -38.7230   36.4990   -4.8230 C.3   182  LEU182      0.0001
    153  N        -38.4240   37.8380    0.7080 N.am  183  GLY183     -0.1940
    154  CA       -38.4560   39.0250    1.5730 C.3   183  GLY183      0.2014
    155  C        -37.1510   39.3570    2.2690 C.2   183  GLY183      0.2639
    156  O        -36.6410   40.4640    2.1630 O.2   183  GLY183     -0.2714
    157  N        -36.6180   38.3770    2.9780 N.am  184  LEU184     -0.1963
    158  CA       -35.3550   38.5070    3.6900 C.3   184  LEU184      0.1728
    159  C        -34.1640   38.7070    2.7640 C.2   184  LEU184      0.2616
    160  O        -33.2650   39.5040    3.0480 O.2   184  LEU184     -0.2715
    161  CB       -35.1320   37.2720    4.5560 C.3   184  LEU184      0.0311
    162  CG       -35.3120   37.4450    6.0600 C.3   184  LEU184      0.0022
    163  CD1      -36.3090   38.5270    6.4480 C.3   184  LEU184      0.0001
    164  CD2      -35.7210   36.1030    6.6280 C.3   184  LEU184      0.0001
    165  N        -34.1590   37.9840    1.6560 N.am  185  ALA185     -0.1977
    166  CA       -33.1150   38.1690    0.6550 C.3   185  ALA185      0.1597
    167  C        -33.0590   39.6370    0.1900 C.2   185  ALA185      0.2287
    168  O        -31.9950   40.2300    0.0870 O.2   185  ALA185     -0.2864
    169  CB       -33.3330   37.2230   -0.5190 C.3   185  ALA185      0.0319
    170  N        -39.3040   36.2130   16.3360 N.3   208  LEU208     -0.1245
    171  CA       -38.1750   36.8140   15.6580 C.3   208  LEU208      0.1561
    172  C        -38.0980   38.3010   15.9840 C.2   208  LEU208      0.2260
    173  O        -39.1150   38.9970   16.0730 O.2   208  LEU208     -0.2867
    174  CB       -38.3280   36.6550   14.1540 C.3   208  LEU208      0.0270
    175  CG       -37.2470   37.2610   13.2640 C.3   208  LEU208      0.0019
    176  CD1      -35.9060   36.6270   13.5710 C.3   208  LEU208      0.0001
    177  CD2      -37.5860   37.0240   11.8090 C.3   208  LEU208      0.0001
@<TRIPOS>BOND
     1     1     2    1
     2     2     5    1
     3     2     3    1
     4   152   150    1
     5   140   138    1
     6     5     6    1
     7     3     4    2
     8   151   150    1
     9   150   149    1
    10     6     8   ar
    11     6     7   ar
    12   138   139    1
    13   138   135    1
    14   137   136    2
    15     8    10   ar
    16   149   146    1
    17   135   136    1
    18   135   134    1
    19     7     9   ar
    20   133   132    2
    21   136   141   am
    22    10     9   ar
    23    97    98    1
    24   132   134   am
    25   132   131    1
    26   146   145    1
    27   146   147    1
    28   144   143    2
    29   141   142    1
    30   143   145   am
    31   143   142    1
    32   103   101    1
    33   110   111    1
    34   110   109    1
    35   169   166    1
    36    98   101    1
    37    98    99    1
    38   148   147    2
    39   147   153   am
    40   131   130    1
    41   111   112    2
    42   109   108    1
    43   168   167    2
    44   167   166    1
    45   101   102    1
    46   166   165    1
    47   153   154    1
    48    99   104   am
    49    99   100    2
    50   104   105    1
    51   112   113    1
    52   112   114    1
    53   108   105    1
    54   154   155    1
    55   165   159   am
    56    49    47    1
    57   105   106    1
    58   156   155    2
    59   155   157   am
    60   159   160    2
    61   159   158    1
    62    47    48    1
    63    47    46    2
    64   157   158    1
    65   106   107    2
    66   106   115   am
    67    92    91    2
    68   158   161    1
    69    46    45    1
    70    91    90    1
    71   115   116    1
    72    25    23    1
    73    24    23    1
    74   161   162    1
    75    90    89    1
    76    90    93    1
    77   128   127    2
    78   118   117    2
    79    45    44    1
    80    23    20    1
    81    61    60    1
    82   127   126    1
    83   117   116    1
    84    32    31    2
    85    96    94    1
    86   129   126    1
    87    93    94    1
    88    44    43    1
    89   162   163    1
    90   162   164    1
    91    33    31   am
    92   126   125    1
    93    31    30    1
    94    11    12    1
    95    60    58   ar
    96    60    59   ar
    97    94    95    1
    98    20    21    1
    99    20    19    1
   100    58    56   ar
   101    21    26   am
   102    21    22    2
   103    43    40    1
   104    26    27    1
   105   125   121   am
   106    59    57   ar
   107    30    27    1
   108    27    28    1
   109    12    13    1
   110    12    15    1
   111   119   120    1
   112   121   122    2
   113   121   120    1
   114    16    15    1
   115    16    17    1
   116    56    55   ar
   117    18    17    1
   118    40    39    1
   119    40    41    1
   120    13    14    2
   121    57    55   ar
   122   120   123    1
   123    55    54    1
   124    28    29    2
   125    28    34   am
   126    41    42    2
   127    41    50   am
   128    34    35    1
   129   123   124    1
   130    50    51    1
   131    88    86    1
   132    54    51    1
   133    51    52    1
   134    35    36    1
   135    35    38    1
   136    87    85    1
   137    36    37    2
   138    86    85    1
   139   177   175    1
   140    85    82    1
   141    52    53    2
   142   175   176    1
   143   175   174    1
   144    82    83    1
   145    82    81    1
   146    69    67   ar
   147    80    79    2
   148   174   171    1
   149    83    84    2
   150    81    79   am
   151    75    76    1
   152    75    74    1
   153    67    66    1
   154    67    68   ar
   155    79    78    1
   156    76    70    1
   157    66    63    1
   158   171   172    1
   159   171   170    1
   160    78    77    1
   161    74    71    1
   162   172   173    2
   163    77    72   am
   164    70    71    1
   165    62    63    1
   166    63    64    1
   167    72    71    1
   168    72    73    2
   169    64    65    2
