@<TRIPOS>MOLECULE
tmp/4kp5A00.pdb
 150 144 0 0 0
SMALL
GASTEIGER

@<TRIPOS>ATOM
      1  N         35.1250    1.9600   10.3390 N.3    86  THR86      -0.1203
      2  CA        35.0850    3.1150   11.1980 C.3    86  THR86       0.1994
      3  C         34.4530    2.8490   12.5630 C.2    86  THR86       0.2617
      4  O         34.9140    3.4130   13.5780 O.2    86  THR86      -0.2717
      5  CB        34.4710    4.3150   10.4520 C.3    86  THR86       0.1784
      6  OG1       34.3400    5.3720   11.3470 O.3    86  THR86      -0.2211
      7  CG2       33.0160    4.0150    9.9650 C.3    86  THR86       0.0376
      8  N         33.3930    2.0220   12.6260 N.am   87  GLN87      -0.1979
      9  CA        32.7450    1.8310   13.9140 C.3    87  GLN87       0.1601
     10  C         31.7630    0.6190   13.7630 C.2    87  GLN87       0.2287
     11  O         31.3610    0.3100   12.6490 O.2    87  GLN87      -0.2864
     12  CB        31.9650    3.0700   14.4440 C.3    87  GLN87       0.0394
     13  CG        30.9900    3.6210   13.4720 C.3    87  GLN87       0.0908
     14  CD        29.5220    3.4190   13.9140 C.2    87  GLN87       0.2608
     15  OE1       29.1770    2.3220   14.2900 O.2    87  GLN87      -0.2717
     16  NE2       28.7600    4.4090   13.9530 N.am   87  GLN87      -0.0878
     17  N         28.0320   -0.8660   15.7820 N.3    89  HIS89      -0.1241
     18  CA        26.9970   -0.5320   16.7840 C.3    89  HIS89       0.1621
     19  C         25.8330   -1.4880   16.6030 C.2    89  HIS89       0.2264
     20  O         25.8900   -2.3510   15.6910 O.2    89  HIS89      -0.2867
     21  CB        26.5590    0.9670   16.6080 C.3    89  HIS89       0.0745
     22  CG        25.8940    1.1560   15.2630 C.ar   89  HIS89       0.0817
     23  ND1       26.6140    1.5920   14.1730 N.ar   89  HIS89      -0.2268
     24  CD2       24.6300    0.8520   14.8080 C.ar   89  HIS89       0.1154
     25  CE1       25.8330    1.5630   13.1040 C.ar   89  HIS89       0.1986
     26  NE2       24.6240    1.1190   13.4420 N.ar   89  HIS89      -0.2212
     27  N         21.3370   -2.3600   17.0820 N.3    91  HIS91      -0.1241
     28  CA        19.9010   -1.9110   17.1700 C.3    91  HIS91       0.1621
     29  C         19.1360   -3.0330   17.7880 C.2    91  HIS91       0.2264
     30  O         19.4320   -4.2430   17.5640 O.2    91  HIS91      -0.2867
     31  CB        19.3330   -1.6610   15.7140 C.3    91  HIS91       0.0745
     32  CG        20.0910   -0.6590   14.9320 C.ar   91  HIS91       0.0817
     33  ND1       19.8260    0.6990   14.9390 N.ar   91  HIS91      -0.2268
     34  CD2       21.1550   -0.8460   14.1270 C.ar   91  HIS91       0.1154
     35  CE1       20.7210    1.3130   14.1360 C.ar   91  HIS91       0.1986
     36  NE2       21.5370    0.4090   13.6370 N.ar   91  HIS91      -0.2212
     37  N         25.7130   -3.6920   13.1480 N.3   115  HIS115     -0.1241
     38  CA        26.2720   -3.0920   11.9400 C.3   115  HIS115      0.1621
     39  C         27.7330   -2.7350   12.0920 C.2   115  HIS115      0.2264
     40  O         28.0830   -2.0670   13.0780 O.2   115  HIS115     -0.2867
     41  CB        25.5030   -1.8180   11.6850 C.3   115  HIS115      0.0745
     42  CG        24.0670   -2.0290   11.2990 C.ar  115  HIS115      0.0817
     43  ND1       23.0350   -1.0830   11.4720 N.ar  115  HIS115     -0.2268
     44  CD2       23.5130   -3.0960   10.7450 C.ar  115  HIS115      0.1154
     45  CE1       21.9050   -1.5940   10.9830 C.ar  115  HIS115      0.1986
     46  NE2       22.1370   -2.8510   10.5790 N.ar  115  HIS115     -0.2212
     47  N         30.2610   -0.6410   10.2490 N.3   117  VAL117     -0.1245
     48  CA        30.2470    0.4570    9.2340 C.3   117  VAL117      0.1561
     49  C         31.6420    0.6240    8.6690 C.2   117  VAL117      0.2260
     50  O         32.5920    0.7830    9.4760 O.2   117  VAL117     -0.2867
     51  CB        29.7880    1.7690    9.8640 C.3   117  VAL117      0.0252
     52  CG1       29.7050    2.8920    8.7970 C.3   117  VAL117      0.0019
     53  CG2       28.3710    1.6330   10.5510 C.3   117  VAL117      0.0019
     54  N         35.1470    8.6040    7.4160 N.3   127  ALA127     -0.1231
     55  CA        33.8130    8.1490    7.1320 C.3   127  ALA127      0.1694
     56  C         32.8520    9.3490    7.0880 C.2   127  ALA127      0.2592
     57  O         31.8620    9.2660    6.3400 O.2   127  ALA127     -0.2718
     58  CB        33.3600    7.1870    8.2460 C.3   127  ALA127      0.0304
     59  N         33.1530   10.4180    7.8380 N.am  128  SER128     -0.1952
     60  CA        32.2910   11.5950    7.8770 C.3   128  SER128      0.1924
     61  C         32.2380   12.1680    6.4860 C.2   128  SER128      0.2314
     62  O         31.1560   12.4540    5.9980 O.2   128  SER128     -0.2863
     63  CB        32.9080   12.6150    8.8940 C.3   128  SER128      0.2116
     64  OG        32.1260   13.8080    8.9010 O.3   128  SER128     -0.2180
     65  N         30.3600    9.9240    3.9570 N.3   131  SER131     -0.1217
     66  CA        28.9310    9.5480    4.2670 C.3   131  SER131      0.1889
     67  C         27.8860   10.1080    3.2830 C.2   131  SER131      0.2288
     68  O         26.7740    9.5210    3.0560 O.2   131  SER131     -0.2866
     69  CB        28.5870    9.7900    5.6980 C.3   131  SER131      0.2089
     70  OG        28.5320   11.2130    5.9600 O.3   131  SER131     -0.2183
     71  N         29.8570    4.3840    1.5170 N.3   137  LEU137     -0.1245
     72  CA        29.8460    3.5420    2.7390 C.3   137  LEU137      0.1561
     73  C         29.5270    2.0830    2.3700 C.2   137  LEU137      0.2260
     74  O         28.8220    1.8490    1.3410 O.2   137  LEU137     -0.2867
     75  CB        28.8720    4.0180    3.8370 C.3   137  LEU137      0.0270
     76  CG        29.0470    5.4590    4.2610 C.3   137  LEU137      0.0019
     77  CD1       27.7930    5.9670    5.1150 C.3   137  LEU137      0.0001
     78  CD2       30.3670    5.6140    5.0900 C.3   137  LEU137      0.0001
     79  N         28.1940   -1.3630    4.7940 N.3   139  VAL139     -0.1245
     80  CA        27.9350   -1.9000    6.1150 C.3   139  VAL139      0.1561
     81  C         27.7480   -3.4000    6.0510 C.2   139  VAL139      0.2260
     82  O         27.1710   -3.9810    5.0770 O.2   139  VAL139     -0.2867
     83  CB        26.6430   -1.3160    6.6810 C.3   139  VAL139      0.0252
     84  CG1       26.2530   -1.9000    8.0350 C.3   139  VAL139      0.0019
     85  CG2       26.7680    0.1750    6.8120 C.3   139  VAL139      0.0019
     86  N         21.9520    5.0090    4.9740 N.3   195  LEU195     -0.1231
     87  CA        22.0830    4.9380    6.4300 C.3   195  LEU195      0.1693
     88  C         20.6470    4.7210    6.9970 C.2   195  LEU195      0.2593
     89  O         19.6600    5.3400    6.4540 O.2   195  LEU195     -0.2718
     90  CB        22.6000    6.2820    7.0040 C.3   195  LEU195      0.0284
     91  CG        24.0780    6.5560    6.9880 C.3   195  LEU195      0.0019
     92  CD1       24.4730    7.1320    5.6090 C.3   195  LEU195      0.0001
     93  CD2       24.3370    7.6550    8.0180 C.3   195  LEU195      0.0001
     94  N         20.4890    3.9220    8.0560 N.am  196  THR196     -0.1939
     95  CA        19.1610    3.7820    8.6320 C.3   196  THR196      0.2028
     96  C         18.8850    4.8230    9.7280 C.2   196  THR196      0.2643
     97  O         17.8190    4.7800   10.4000 O.2   196  THR196     -0.2714
     98  CB        18.9760    2.3620    9.2790 C.3   196  THR196      0.1808
     99  OG1       19.9630    2.2770   10.3370 O.3   196  THR196     -0.2208
    100  CG2       19.1990    1.2530    8.2590 C.3   196  THR196      0.0379
    101  N         19.8780    5.7290   10.0050 N.am  197  THR197     -0.1937
    102  CA        19.7460    6.8220   10.9140 C.3   197  THR197      0.2013
    103  C         19.9530    8.0850   10.1350 C.2   197  THR197      0.2484
    104  O         20.6160    8.0690    9.0800 O.2   197  THR197     -0.2729
    105  CB        20.7720    6.8270   12.0290 C.3   197  THR197      0.1807
    106  OG1       22.0330    6.8470   11.4080 O.3   197  THR197     -0.2208
    107  CG2       20.6610    5.4480   12.8230 C.3   197  THR197      0.0379
    108  N         19.4330    9.1760   10.7390 N.am  198  PRO198     -0.2715
    109  CA        19.7890   10.4860   10.1150 C.3   198  PRO198      0.1521
    110  C         21.3300   10.5960    9.9320 C.2   198  PRO198      0.2440
    111  O         22.0240   10.1190   10.8420 O.2   198  PRO198     -0.2731
    112  CB        19.2500   11.4760   11.1340 C.3   198  PRO198      0.0310
    113  CG        18.0560   10.8650   11.6860 C.3   198  PRO198      0.0237
    114  CD        18.4770    9.3470   11.8250 C.3   198  PRO198      0.0939
    115  N         21.7830   11.1330    8.8480 N.am  199  PRO199     -0.2727
    116  CA        20.9990   11.9130    7.8260 C.3   199  PRO199      0.1402
    117  C         20.4160   11.0870    6.7040 C.2   199  PRO199      0.2269
    118  O         19.9090   11.6190    5.7300 O.2   199  PRO199     -0.2865
    119  CB        22.0120   12.9070    7.2400 C.3   199  PRO199      0.0296
    120  CG        23.2140   12.9140    8.1710 C.3   199  PRO199      0.0237
    121  CD        23.2530   11.3910    8.7160 C.3   199  PRO199      0.0939
    122  N         21.6230    9.2560    4.3130 N.3   201  ASN201     -0.1240
    123  CA        22.1310    9.3900    2.9340 C.3   201  ASN201      0.1653
    124  C         22.1130    8.1270    2.1780 C.2   201  ASN201      0.2266
    125  O         22.4060    7.0520    2.7560 O.2   201  ASN201     -0.2867
    126  CB        23.6100    9.8350    3.0020 C.3   201  ASN201      0.1155
    127  CG        23.7750   11.0060    3.9350 C.2   201  ASN201      0.2627
    128  OD1       23.8530   10.8140    5.1580 O.2   201  ASN201     -0.2716
    129  ND2       23.7010   12.2580    3.4000 N.am  201  ASN201     -0.0877
    130  N         24.9790    3.7990    1.0300 N.3   204  VAL204     -0.1245
    131  CA        25.4680    2.5370    1.5870 C.3   204  VAL204      0.1561
    132  C         25.2630    1.3280    0.7570 C.2   204  VAL204      0.2260
    133  O         24.1570    1.0370    0.3190 O.2   204  VAL204     -0.2867
    134  CB        24.7130    2.3100    2.9610 C.3   204  VAL204      0.0252
    135  CG1       25.1340    0.8960    3.5570 C.3   204  VAL204      0.0019
    136  CG2       24.9670    3.4350    3.9130 C.3   204  VAL204      0.0019
    137  N         24.8330   -2.2880    1.2190 N.3   206  TRP206     -0.1241
    138  CA        24.4840   -3.2700    2.2740 C.3   206  TRP206      0.1605
    139  C         24.8690   -4.7260    1.9410 C.2   206  TRP206      0.2264
    140  O         24.5890   -5.2280    0.8770 O.2   206  TRP206     -0.2867
    141  CB        22.9200   -3.2090    2.5620 C.3   206  TRP206      0.0550
    142  CG        22.5670   -2.0220    3.3510 C.ar  206  TRP206      0.0003
    143  CD1       22.1160   -0.8230    2.8750 C.ar  206  TRP206      0.0946
    144  CD2       22.6560   -1.8440    4.7770 C.ar  206  TRP206      0.0152
    145  NE1       21.9650    0.0990    3.8720 N.ar  206  TRP206     -0.2442
    146  CE2       22.2990   -0.4950    5.0900 C.ar  206  TRP206      0.0810
    147  CE3       23.0990   -2.6830    5.8260 C.ar  206  TRP206      0.0012
    148  CZ2       22.2930   -0.0110    6.3960 C.ar  206  TRP206      0.0191
    149  CZ3       23.0490   -2.2300    7.1270 C.ar  206  TRP206      0.0001
    150  CH2       22.7490   -0.8430    7.4050 C.ar  206  TRP206      0.0015
@<TRIPOS>BOND
     1   133   132    2
     2   132   131    1
     3   140   139    2
     4   130   131    1
     5   137   138    1
     6    74    73    2
     7    71    72    1
     8   131   134    1
     9   139   138    1
    10   124   125    2
    11   124   123    1
    12   138   141    1
    13    73    72    1
    14   141   142    1
    15    72    75    1
    16   143   142   ar
    17   143   145   ar
    18   123   126    1
    19   123   122    1
    20   134   135    1
    21   134   136    1
    22   126   127    1
    23    68    67    2
    24    67    66    1
    25   142   144   ar
    26   129   127   am
    27    75    76    1
    28   145   146   ar
    29   127   128    2
    30    65    66    1
    31    76    78    1
    32    76    77    1
    33    66    69    1
    34   144   146   ar
    35   144   147   ar
    36    79    80    1
    37    86    87    1
    38    82    81    2
    39   146   148   ar
    40    92    91    1
    41    69    70    1
    42   118   117    2
    43   147   149   ar
    44    62    61    2
    45    81    80    1
    46    80    83    1
    47    57    56    2
    48   148   150   ar
    49    87    88    1
    50    87    90    1
    51    89    88    2
    52    61    60    1
    53    83    85    1
    54    83    84    1
    55   117   116    1
    56    91    90    1
    57    91    93    1
    58    88    94   am
    59    56    55    1
    60    56    59   am
    61   149   150   ar
    62    55    54    1
    63    55    58    1
    64   119   116    1
    65   119   120    1
    66   116   115    1
    67    59    60    1
    68    60    63    1
    69    94    95    1
    70   120   121    1
    71   100    98    1
    72    95    98    1
    73    95    96    1
    74    49    48    1
    75    49    50    2
    76   121   115    1
    77    52    51    1
    78   115   110   am
    79    63    64    1
    80   104   103    2
    81    48    51    1
    82    48    47    1
    83    98    99    1
    84    96   101   am
    85    96    97    2
    86    51    53    1
    87   110   109    1
    88   110   111    2
    89     7     5    1
    90   101   102    1
    91   109   108    1
    92   109   112    1
    93   103   108   am
    94   103   102    1
    95     1     2    1
    96     5     2    1
    97     5     6    1
    98    46    44   ar
    99    46    45   ar
   100   108   114    1
   101    44    42   ar
   102   102   105    1
   103    45    43   ar
   104   112   113    1
   105     2     3    1
   106    42    43   ar
   107    42    41    1
   108   106   105    1
   109    41    38    1
   110   113   114    1
   111    38    39    1
   112    38    37    1
   113   105   107    1
   114    39    40    2
   115     3     8   am
   116     3     4    2
   117     8     9    1
   118    11    10    2
   119    25    26   ar
   120    25    23   ar
   121    26    24   ar
   122    13    14    1
   123    13    12    1
   124    36    34   ar
   125    36    35   ar
   126    10     9    1
   127     9    12    1
   128    14    16   am
   129    14    15    2
   130    34    32   ar
   131    35    33   ar
   132    23    22   ar
   133    24    22   ar
   134    32    33   ar
   135    32    31    1
   136    22    21    1
   137    20    19    2
   138    31    28    1
   139    17    18    1
   140    19    18    1
   141    21    18    1
   142    27    28    1
   143    28    29    1
   144    30    29    2
