@<TRIPOS>MOLECULE
tmp/4kp6A00.pdb
 189 183 0 0 0
SMALL
GASTEIGER

@<TRIPOS>ATOM
      1  N        -44.1290   81.1580  116.8340 N.3    72  TYR72      -0.1227
      2  CA       -43.8770   82.3430  117.6610 C.3    72  TYR72       0.1736
      3  C        -45.0770   82.7430  118.5210 C.2    72  TYR72       0.2595
      4  O        -44.9550   82.8790  119.7160 O.2    72  TYR72      -0.2718
      5  CB       -43.4100   83.5090  116.7820 C.3    72  TYR72       0.0548
      6  CG       -43.0140   84.7150  117.5680 C.ar   72  TYR72      -0.0200
      7  CD1      -43.9630   85.6780  117.9070 C.ar   72  TYR72      -0.0009
      8  CD2      -41.7040   84.9030  117.9920 C.ar   72  TYR72      -0.0009
      9  CE1      -43.6250   86.7980  118.6510 C.ar   72  TYR72       0.0417
     10  CE2      -41.3490   86.0360  118.7430 C.ar   72  TYR72       0.0417
     11  CZ       -42.3240   86.9770  119.0530 C.ar   72  TYR72       0.1957
     12  OH       -42.0130   88.0890  119.7930 O.3    72  TYR72      -0.2866
     13  N        -46.2430   82.9150  117.9040 N.am   73  HIS73      -0.1975
     14  CA       -47.4190   83.4790  118.5880 C.3    73  HIS73       0.1656
     15  C        -48.1790   82.4110  119.3690 C.2    73  HIS73       0.2291
     16  O        -49.3740   82.2400  119.2200 O.2    73  HIS73      -0.2864
     17  CB       -48.3250   84.2110  117.5910 C.3    73  HIS73       0.0771
     18  CG       -47.7360   85.4910  117.0960 C.ar   73  HIS73       0.0820
     19  ND1      -47.1550   85.6040  115.8620 N.ar   73  HIS73      -0.2267
     20  CD2      -47.5450   86.6830  117.7130 C.ar   73  HIS73       0.1154
     21  CE1      -46.6770   86.8270  115.7090 C.ar   73  HIS73       0.1986
     22  NE2      -46.8910   87.4950  116.8240 N.ar   73  HIS73      -0.2212
     23  N        -44.7570   83.1880  124.0070 N.3    77  HIS77      -0.1241
     24  CA       -44.6860   84.6200  123.6780 C.3    77  HIS77       0.1621
     25  C        -45.5720   85.4350  124.6260 C.2    77  HIS77       0.2264
     26  O        -45.1540   86.5100  125.1380 O.2    77  HIS77      -0.2867
     27  CB       -45.0750   84.8760  122.2330 C.3    77  HIS77       0.0745
     28  CG       -45.2730   86.3270  121.8990 C.ar   77  HIS77       0.0817
     29  ND1      -44.2560   87.2590  121.9880 N.ar   77  HIS77      -0.2268
     30  CD2      -46.3800   87.0060  121.5130 C.ar   77  HIS77       0.1154
     31  CE1      -44.7280   88.4420  121.6460 C.ar   77  HIS77       0.1986
     32  NE2      -46.0190   88.3310  121.3720 N.ar   77  HIS77      -0.2212
     33  N        -55.8500   91.9670  116.4060 N.3   143  GLU143     -0.1245
     34  CA       -55.9140   92.5460  117.7410 C.3   143  GLU143      0.1567
     35  C        -57.3540   92.5980  118.2600 C.2   143  GLU143      0.2260
     36  O        -57.5990   92.2380  119.3920 O.2   143  GLU143     -0.2867
     37  CB       -55.2130   93.9130  117.7690 C.3   143  GLU143      0.0388
     38  CG       -53.7120   93.8090  117.4450 C.3   143  GLU143      0.1160
     39  CD       -53.3720   93.6550  115.9390 C.2   143  GLU143      0.3649
     40  OE1      -54.2220   93.9290  115.0600 O.co2 143  GLU143     -0.2457
     41  OE2      -52.2280   93.2300  115.6500 O.co2 143  GLU143     -0.2457
     42  N        -50.9430   97.1070  120.2890 N.3   184  THR184     -0.1218
     43  CA       -49.9770   96.1580  119.7210 C.3   184  THR184      0.1862
     44  C        -50.1080   96.0210  118.1950 C.2   184  THR184      0.2287
     45  O        -49.2890   95.3460  117.5750 O.2   184  THR184     -0.2866
     46  CB       -50.0300   94.7810  120.4290 C.3   184  THR184      0.1770
     47  OG1      -51.2890   94.1200  120.1480 O.3   184  THR184     -0.2211
     48  CG2      -49.8010   94.9410  121.9380 C.3   184  THR184      0.0375
     49  N        -49.3160   96.9590  114.7680 N.3   186  MET186     -0.1245
     50  CA       -48.2060   97.7310  114.2020 C.3   186  MET186      0.1570
     51  C        -48.6140   98.9370  113.3550 C.2   186  MET186      0.2261
     52  O        -47.8460   99.8850  113.1770 O.2   186  MET186     -0.2867
     53  CB       -47.2510   96.8160  113.4160 C.3   186  MET186      0.0387
     54  CG       -46.4830   95.8740  114.2910 C.3   186  MET186      0.0595
     55  SD       -45.3900   96.7360  115.4520 S.3   186  MET186     -0.1393
     56  CE       -44.5360   97.8420  114.3960 C.3   186  MET186      0.0692
     57  N        -44.1510   94.0160  123.8720 N.3   231  ASP231     -0.1225
     58  CA       -44.3880   93.1860  122.6890 C.3   231  ASP231      0.1805
     59  C        -43.1560   93.1840  121.7800 C.2   231  ASP231      0.2597
     60  O        -42.8070   92.1550  121.1790 O.2   231  ASP231     -0.2718
     61  CB       -45.6370   93.6730  121.9230 C.3   231  ASP231      0.1424
     62  CG       -46.2090   92.6330  120.9330 C.2   231  ASP231      0.3668
     63  OD1      -46.0170   91.4050  121.1120 O.co2 231  ASP231     -0.2456
     64  OD2      -46.8870   93.0950  119.9930 O.co2 231  ASP231     -0.2456
     65  N        -42.4940   94.3320  121.7110 N.am  232  LEU232     -0.1979
     66  CA       -41.3380   94.5590  120.8600 C.3   232  LEU232      0.1596
     67  C        -40.0580   94.4260  121.6690 C.2   232  LEU232      0.2287
     68  O        -39.0600   95.0330  121.3080 O.2   232  LEU232     -0.2864
     69  CB       -41.4320   95.9400  120.1710 C.3   232  LEU232      0.0297
     70  CG       -42.5530   96.0770  119.1300 C.3   232  LEU232      0.0022
     71  CD1      -42.5600   97.4680  118.5320 C.3   232  LEU232      0.0001
     72  CD2      -42.4120   95.0350  118.0230 C.3   232  LEU232      0.0001
     73  N        -38.1270   91.6040  122.3090 N.3   234  ASN234     -0.1226
     74  CA       -37.1990   90.4710  122.1130 C.3   234  ASN234      0.1770
     75  C        -35.7490   90.9310  121.8630 C.2   234  ASN234      0.2439
     76  O        -34.8130   90.3200  122.4350 O.2   234  ASN234     -0.2733
     77  CB       -37.5860   89.5340  120.9580 C.3   234  ASN234      0.1168
     78  CG       -38.9580   88.8480  121.1120 C.2   234  ASN234      0.2627
     79  OD1      -39.4710   88.3360  120.1050 O.2   234  ASN234     -0.2716
     80  ND2      -39.5070   88.7880  122.3230 N.am  234  ASN234     -0.0877
     81  N        -35.5600   91.9760  121.0160 N.am  235  PRO235     -0.2729
     82  CA       -34.1760   92.3810  120.7310 C.3   235  PRO235      0.1401
     83  C        -33.4740   93.0670  121.9030 C.2   235  PRO235      0.2269
     84  O        -32.2810   93.3300  121.8040 O.2   235  PRO235     -0.2865
     85  CB       -34.3250   93.3470  119.5640 C.3   235  PRO235      0.0296
     86  CG       -35.6320   93.0140  118.9530 C.3   235  PRO235      0.0237
     87  CD       -36.4920   92.6810  120.1230 C.3   235  PRO235      0.0939
     88  N        -32.6680   86.3550  122.8040 N.3   242  TYR242     -0.1241
     89  CA       -33.0670   87.0000  121.5730 C.3   242  TYR242      0.1605
     90  C        -32.9370   86.0510  120.3650 C.2   242  TYR242      0.2264
     91  O        -33.8540   85.9830  119.5450 O.2   242  TYR242     -0.2867
     92  CB       -32.2600   88.2860  121.3840 C.3   242  TYR242      0.0534
     93  CG       -32.4890   89.0810  120.1240 C.ar  242  TYR242     -0.0201
     94  CD1      -33.6960   89.0250  119.4130 C.ar  242  TYR242     -0.0009
     95  CD2      -31.5150   89.9460  119.6590 C.ar  242  TYR242     -0.0009
     96  CE1      -33.8750   89.7790  118.2450 C.ar  242  TYR242      0.0417
     97  CE2      -31.7030   90.7240  118.5410 C.ar  242  TYR242      0.0417
     98  CZ       -32.8700   90.6280  117.8230 C.ar  242  TYR242      0.1957
     99  OH       -33.0240   91.3970  116.7190 O.3   242  TYR242     -0.2866
    100  N        -35.8980   83.7390  120.1190 N.3   245  TRP245     -0.1227
    101  CA       -37.0460   84.4770  119.5700 C.3   245  TRP245      0.1737
    102  C        -36.9350   84.7000  118.0550 C.2   245  TRP245      0.2596
    103  O        -37.9170   84.5650  117.3300 O.2   245  TRP245     -0.2718
    104  CB       -37.2600   85.8410  120.2410 C.3   245  TRP245      0.0564
    105  CG       -37.6530   85.7340  121.6940 C.ar  245  TRP245      0.0003
    106  CD1      -36.9780   86.2760  122.7580 C.ar  245  TRP245      0.0946
    107  CD2      -38.7730   85.0260  122.2480 C.ar  245  TRP245      0.0152
    108  NE1      -37.6220   85.9700  123.9330 N.ar  245  TRP245     -0.2442
    109  CE2      -38.7250   85.2050  123.6520 C.ar  245  TRP245      0.0810
    110  CE3      -39.8430   84.3090  121.6970 C.ar  245  TRP245      0.0012
    111  CZ2      -39.6870   84.6660  124.5100 C.ar  245  TRP245      0.0191
    112  CZ3      -40.7920   83.7530  122.5600 C.ar  245  TRP245      0.0001
    113  CH2      -40.7080   83.9440  123.9490 C.ar  245  TRP245      0.0015
    114  N        -35.7490   85.0310  117.5670 N.am  246  THR246     -0.1953
    115  CA       -35.5500   85.2660  116.1420 C.3   246  THR246      0.1897
    116  C        -35.7820   83.9710  115.3630 C.2   246  THR246      0.2313
    117  O        -36.4480   83.9920  114.3240 O.2   246  THR246     -0.2863
    118  CB       -34.1290   85.7860  115.8860 C.3   246  THR246      0.1794
    119  OG1      -34.0250   87.0550  116.5190 O.3   246  THR246     -0.2208
    120  CG2      -33.8600   85.9390  114.3900 C.3   246  THR246      0.0378
    121  N        -39.6990   83.5760  115.1950 N.3   249  ILE249     -0.1231
    122  CA       -40.4130   84.4990  114.2920 C.3   249  ILE249      0.1692
    123  C        -40.0540   84.1800  112.8210 C.2   249  ILE249      0.2591
    124  O        -40.9460   84.2250  111.9730 O.2   249  ILE249     -0.2718
    125  CB       -40.2430   85.9800  114.6600 C.3   249  ILE249      0.0266
    126  CG1      -41.3290   86.8550  113.9810 C.3   249  ILE249      0.0019
    127  CG2      -38.8980   86.4730  114.2720 C.3   249  ILE249      0.0020
    128  CD1      -42.7740   86.6170  114.4530 C.3   249  ILE249      0.0001
    129  N        -38.8070   83.8300  112.5140 N.am  250  MET250     -0.1979
    130  CA       -38.4710   83.5230  111.1280 C.3   250  MET250      0.1605
    131  C        -39.1550   82.2280  110.6830 C.2   250  MET250      0.2287
    132  O        -39.5850   82.1270  109.5310 O.2   250  MET250     -0.2864
    133  CB       -36.9590   83.4950  110.8890 C.3   250  MET250      0.0413
    134  CG       -36.2550   84.8570  111.0970 C.3   250  MET250      0.0598
    135  SD       -36.9690   86.3920  110.4080 S.3   250  MET250     -0.1393
    136  CE       -36.8040   86.0590  108.6620 C.3   250  MET250      0.0692
    137  N        -42.6410   83.4350  109.8930 N.3   253  PHE253     -0.1241
    138  CA       -42.6110   84.2540  108.6520 C.3   253  PHE253      0.1605
    139  C        -42.4870   83.3690  107.3960 C.2   253  PHE253      0.2264
    140  O        -43.2180   83.5440  106.3960 O.2   253  PHE253     -0.2867
    141  CB       -41.4320   85.2640  108.6670 C.3   253  PHE253      0.0534
    142  CG       -41.6360   86.5360  109.4950 C.ar  253  PHE253     -0.0203
    143  CD1      -42.7780   86.7980  110.2570 C.ar  253  PHE253     -0.0042
    144  CD2      -40.6240   87.4980  109.5140 C.ar  253  PHE253     -0.0042
    145  CE1      -42.9100   87.9800  110.9760 C.ar  253  PHE253     -0.0003
    146  CE2      -40.7610   88.6890  110.2490 C.ar  253  PHE253     -0.0003
    147  CZ       -41.8940   88.9240  110.9720 C.ar  253  PHE253     -0.0000
    148  N        -39.4740   89.7350  104.0920 N.3   270  MET270     -0.1245
    149  CA       -38.7960   88.8420  105.0530 C.3   270  MET270      0.1570
    150  C        -39.3790   87.4120  105.1330 C.2   270  MET270      0.2261
    151  O        -38.9560   86.6290  105.9800 O.2   270  MET270     -0.2867
    152  CB       -38.7230   89.4760  106.4660 C.3   270  MET270      0.0387
    153  CG       -38.2040   90.9250  106.4990 C.3   270  MET270      0.0595
    154  SD       -38.4790   91.7610  108.0690 S.3   270  MET270     -0.1393
    155  CE       -40.2710   91.9730  107.9990 C.3   270  MET270      0.0692
    156  N        -33.0180   91.2820  108.3220 N.3   281  SER281     -0.1202
    157  CA       -34.3870   91.5160  108.7890 C.3   281  SER281      0.2020
    158  C        -34.4020   92.0510  110.2160 C.2   281  SER281      0.2618
    159  O        -35.1410   92.9980  110.5150 O.2   281  SER281     -0.2717
    160  CB       -35.2020   90.2230  108.7140 C.3   281  SER281      0.2103
    161  OG       -35.2570   89.7420  107.3860 O.3   281  SER281     -0.2182
    162  N        -33.5880   91.4470  111.0880 N.am  282  GLN282     -0.1979
    163  CA       -33.4890   91.9040  112.4820 C.3   282  GLN282      0.1601
    164  C        -32.8970   93.3030  112.5840 C.2   282  GLN282      0.2287
    165  O        -33.4100   94.1390  113.3220 O.2   282  GLN282     -0.2864
    166  CB       -32.7180   90.9200  113.3740 C.3   282  GLN282      0.0394
    167  CG       -33.5070   89.6360  113.7260 C.3   282  GLN282      0.0908
    168  CD       -34.8880   89.9050  114.2800 C.2   282  GLN282      0.2608
    169  OE1      -35.0570   90.6170  115.2640 O.2   282  GLN282     -0.2717
    170  NE2      -35.8960   89.3440  113.6280 N.am  282  GLN282     -0.0878
    171  N        -35.5080   95.7940  111.4450 N.3   285  PHE285     -0.1241
    172  CA       -36.5580   95.8110  112.4760 C.3   285  PHE285      0.1605
    173  C        -36.1270   96.7260  113.6210 C.2   285  PHE285      0.2264
    174  O        -36.8800   97.6040  114.0580 O.2   285  PHE285     -0.2867
    175  CB       -36.7880   94.3530  112.9490 C.3   285  PHE285      0.0534
    176  CG       -37.7370   94.1690  114.1210 C.ar  285  PHE285     -0.0203
    177  CD1      -38.9860   94.7660  114.1230 C.ar  285  PHE285     -0.0042
    178  CD2      -37.3890   93.3310  115.1720 C.ar  285  PHE285     -0.0042
    179  CE1      -39.8780   94.5390  115.1960 C.ar  285  PHE285     -0.0003
    180  CE2      -38.2680   93.0950  116.2510 C.ar  285  PHE285     -0.0003
    181  CZ       -39.5130   93.7240  116.2540 C.ar  285  PHE285     -0.0000
    182  N        -37.9710  100.3550  113.8240 N.3   289  ILE289     -0.1245
    183  CA       -39.0870  100.1870  114.7520 C.3   289  ILE289      0.1561
    184  C        -38.6470  100.1250  116.2150 C.2   289  ILE289      0.2260
    185  O        -39.0700  100.9570  117.0380 O.2   289  ILE289     -0.2867
    186  CB       -39.8990   98.9210  114.3710 C.3   289  ILE289      0.0252
    187  CG1      -40.4850   99.0480  112.9590 C.3   289  ILE289      0.0019
    188  CG2      -41.0180   98.6330  115.4000 C.3   289  ILE289      0.0019
    189  CD1      -41.4170  100.2240  112.7690 C.3   289  ILE289      0.0001
@<TRIPOS>BOND
     1   148   149    1
     2   149   150    1
     3   149   152    1
     4   150   151    2
     5   140   139    2
     6   152   153    1
     7   153   154    1
     8   161   160    1
     9   139   138    1
    10   155   154    1
    11   156   157    1
    12   138   141    1
    13   138   137    1
    14   136   135    1
    15   141   142    1
    16   160   157    1
    17   157   158    1
    18   142   144   ar
    19   142   143   ar
    20   144   146   ar
    21   132   131    2
    22   158   159    2
    23   158   162   am
    24   146   147   ar
    25   143   145   ar
    26   135   134    1
    27   131   130    1
    28   133   134    1
    29   133   130    1
    30   147   145   ar
    31   162   163    1
    32   130   129    1
    33   171   172    1
    34   124   123    2
    35   172   175    1
    36   172   173    1
    37   163   164    1
    38   163   166    1
    39   129   123   am
    40   164   165    2
    41   189   187    1
    42   123   122    1
    43   175   176    1
    44   187   186    1
    45    52    51    2
    46    51    50    1
    47   166   167    1
    48    53    50    1
    49    53    54    1
    50   173   174    2
    51   170   168   am
    52   167   168    1
    53   182   183    1
    54   126   128    1
    55   126   125    1
    56   176   177   ar
    57   176   178   ar
    58   177   179   ar
    59    50    49    1
    60   127   125    1
    61   168   169    2
    62    54    55    1
    63   122   125    1
    64   122   121    1
    65   117   116    2
    66   186   183    1
    67   186   188    1
    68   120   118    1
    69    56    55    1
    70   183   184    1
    71    40    39   ar
    72   178   180   ar
    73   179   181   ar
    74   116   115    1
    75    41    39   ar
    76    21    19   ar
    77    21    22   ar
    78    19    18   ar
    79   118   115    1
    80   118   119    1
    81    39    38    1
    82   115   114    1
    83   184   185    2
    84   180   181   ar
    85    33    34    1
    86    99    98    1
    87     5     6    1
    88     5     2    1
    89    22    20   ar
    90     1     2    1
    91    18    17    1
    92    18    20   ar
    93   103   102    2
    94    38    37    1
    95   114   102   am
    96     6     7   ar
    97     6     8   ar
    98    45    44    2
    99    17    14    1
   100     2     3    1
   101    34    37    1
   102    34    35    1
   103    98    96   ar
   104    98    97   ar
   105    13     3   am
   106    13    14    1
   107     7     9   ar
   108     8    10   ar
   109    72    70    1
   110   102   101    1
   111    44    43    1
   112    96    94   ar
   113    35    36    2
   114     3     4    2
   115    71    70    1
   116    97    95   ar
   117    14    15    1
   118     9    11   ar
   119    10    11   ar
   120    86    85    1
   121    86    87    1
   122    11    12    1
   123    70    69    1
   124    16    15    2
   125    94    93   ar
   126    91    90    2
   127    85    82    1
   128   101   100    1
   129   101   104    1
   130    95    93   ar
   131    43    42    1
   132    43    46    1
   133    64    62   ar
   134    79    78    2
   135    87    81    1
   136    93    92    1
   137    47    46    1
   138    69    66    1
   139   104   105    1
   140    90    89    1
   141    46    48    1
   142    82    81    1
   143    82    83    1
   144    66    67    1
   145    66    65    1
   146    62    63   ar
   147    62    61    1
   148    77    78    1
   149    77    74    1
   150    81    75   am
   151    78    80   am
   152    60    59    2
   153    68    67    2
   154    32    30   ar
   155    32    31   ar
   156    92    89    1
   157    30    28   ar
   158    89    88    1
   159    31    29   ar
   160   105   107   ar
   161   105   106   ar
   162   110   107   ar
   163   110   112   ar
   164    65    59   am
   165    59    58    1
   166    84    83    2
   167    75    74    1
   168    75    76    2
   169    28    29   ar
   170    28    27    1
   171    61    58    1
   172    74    73    1
   173    27    24    1
   174   107   109   ar
   175   112   113   ar
   176    58    57    1
   177   106   108   ar
   178   109   108   ar
   179   109   111   ar
   180    24    23    1
   181    24    25    1
   182   113   111   ar
   183    25    26    2
