@<TRIPOS>MOLECULE
tmp/4kp7B00.pdb
 139 128 0 0 0
SMALL
GASTEIGER

@<TRIPOS>ATOM
      1  N          2.6340   22.1720   40.4680 N.3   129  LYS129     -0.1245
      2  CA         3.0410   21.0940   41.3830 C.3   129  LYS129      0.1561
      3  C          2.5920   21.3090   42.8380 C.2   129  LYS129      0.2260
      4  O          2.3840   20.3390   43.5800 O.2   129  LYS129     -0.2867
      5  CB         4.5630   20.8460   41.3240 C.3   129  LYS129      0.0271
      6  CG         5.4510   21.9800   41.8250 C.3   129  LYS129      0.0035
      7  CD         6.9050   21.8240   41.3660 C.3   129  LYS129      0.0206
      8  CE         7.0730   22.2460   39.9100 C.3   129  LYS129      0.1093
      9  NZ         8.4060   21.8620   39.3890 N.3   129  LYS129     -0.1314
     10  N          4.4330   19.3530   34.2720 N.3   155  ASP155     -0.1225
     11  CA         5.8010   19.4750   34.7890 C.3   155  ASP155      0.1805
     12  C          6.6790   18.5350   33.9470 C.2   155  ASP155      0.2598
     13  O          6.3520   17.3490   33.7760 O.2   155  ASP155     -0.2718
     14  CB         5.8070   19.0760   36.2750 C.3   155  ASP155      0.1424
     15  CG         7.0350   19.5800   37.0560 C.2   155  ASP155      0.3668
     16  OD1        8.0550   20.0460   36.4810 O.co2 155  ASP155     -0.2456
     17  OD2        6.9660   19.4880   38.3000 O.co2 155  ASP155     -0.2456
     18  N          7.7740   19.0640   33.4030 N.am  156  SER156     -0.1938
     19  CA         8.5670   18.3650   32.3800 C.3   156  SER156      0.2055
     20  C          8.9930   16.9510   32.7580 C.2   156  SER156      0.2642
     21  O          8.9480   16.0390   31.9230 O.2   156  SER156     -0.2714
     22  CB         9.7810   19.2040   31.9520 C.3   156  SER156      0.2130
     23  OG        10.7410   19.2770   32.9910 O.3   156  SER156     -0.2179
     24  N          9.3860   16.7560   34.0130 N.am  157  GLU157     -0.1976
     25  CA         9.8700   15.4680   34.4630 C.3   157  GLU157      0.1602
     26  C          8.7340   14.4450   34.5280 C.2   157  GLU157      0.2287
     27  O          8.9040   13.2600   34.2200 O.2   157  GLU157     -0.2864
     28  CB        10.5410   15.6120   35.8480 C.3   157  GLU157      0.0415
     29  CG        11.7950   16.4760   35.8570 C.3   157  GLU157      0.1163
     30  CD        11.5240   17.9710   36.0730 C.2   157  GLU157      0.3649
     31  OE1       10.3580   18.3920   36.3030 O.co2 157  GLU157     -0.2457
     32  OE2       12.4950   18.7410   36.0320 O.co2 157  GLU157     -0.2457
     33  N         17.4010   16.0470   37.4100 N.3   193  SER193     -0.1202
     34  CA        17.4570   17.4340   37.8730 C.3   193  SER193      0.2020
     35  C         18.5830   18.1850   37.2000 C.2   193  SER193      0.2619
     36  O         19.6490   17.6220   37.0320 O.2   193  SER193     -0.2717
     37  CB        17.6830   17.4640   39.3810 C.3   193  SER193      0.2103
     38  OG        17.7400   18.8040   39.8470 O.3   193  SER193     -0.2182
     39  N         18.3690   19.4540   36.8530 N.am  194  SER194     -0.1937
     40  CA        19.4430   20.2920   36.3100 C.3   194  SER194      0.2055
     41  C         20.5450   20.4930   37.3430 C.2   194  SER194      0.2644
     42  O         21.6950   20.7600   36.9980 O.2   194  SER194     -0.2714
     43  CB        18.9240   21.6640   35.8570 C.3   194  SER194      0.2130
     44  OG        18.6660   22.5180   36.9630 O.3   194  SER194     -0.2179
     45  N         20.1770   20.3790   38.6170 N.am  195  GLY195     -0.1939
     46  CA        21.0970   20.6150   39.7170 C.3   195  GLY195      0.2014
     47  C         21.1070   22.0560   40.1850 C.2   195  GLY195      0.2639
     48  O         21.5810   22.3470   41.2800 O.2   195  GLY195     -0.2714
     49  N         20.5820   22.9540   39.3520 N.am  196  GLY196     -0.1954
     50  CA        20.4960   24.3850   39.6690 C.3   196  GLY196      0.1869
     51  C         21.8500   25.0710   39.6740 C.2   196  GLY196      0.2309
     52  O         22.8840   24.4170   39.4790 O.2   196  GLY196     -0.2863
     53  N         11.7700   31.5230   33.7840 N.3   216  MET216     -0.1245
     54  CA        10.9070   30.9300   34.8020 C.3   216  MET216      0.1570
     55  C         10.5300   31.9510   35.8740 C.2   216  MET216      0.2261
     56  O         11.2210   32.9560   36.0510 O.2   216  MET216     -0.2867
     57  CB        11.6100   29.7440   35.4640 C.3   216  MET216      0.0387
     58  CG        11.8000   28.5180   34.5880 C.3   216  MET216      0.0595
     59  SD        12.5630   27.1750   35.5260 S.3   216  MET216     -0.1393
     60  CE        14.2430   27.7540   35.7430 C.3   216  MET216      0.0692
     61  N         10.0530   29.5030   41.4280 N.3   220  ILE220     -0.1245
     62  CA        10.5520   28.1830   41.0020 C.3   220  ILE220      0.1561
     63  C         12.0770   28.2140   40.7940 C.2   220  ILE220      0.2260
     64  O         12.7530   27.1880   40.9280 O.2   220  ILE220     -0.2867
     65  CB         9.7720   27.6100   39.7810 C.3   220  ILE220      0.0252
     66  CG1       10.1000   26.1230   39.5530 C.3   220  ILE220      0.0019
     67  CG2       10.0080   28.4320   38.5220 C.3   220  ILE220      0.0019
     68  CD1        9.1280   25.3910   38.6450 C.3   220  ILE220      0.0001
     69  N         14.7620   25.8640   42.5640 N.3   224  SER224     -0.1217
     70  CA        15.7140   25.1520   41.7220 C.3   224  SER224      0.1889
     71  C         17.1050   25.2260   42.3500 C.2   224  SER224      0.2288
     72  O         17.8710   24.2630   42.3290 O.2   224  SER224     -0.2866
     73  CB        15.7220   25.7670   40.3230 C.3   224  SER224      0.2089
     74  OG        16.2990   24.8870   39.3820 O.3   224  SER224     -0.2183
     75  N         17.2880   23.0300   45.4220 N.3   227  MET227     -0.1245
     76  CA        16.7930   21.6980   45.0810 C.3   227  MET227      0.1570
     77  C         15.5060   21.3030   45.8440 C.2   227  MET227      0.2261
     78  O         15.1190   20.1310   45.8720 O.2   227  MET227     -0.2867
     79  CB        17.8950   20.6400   45.1880 C.3   227  MET227      0.0387
     80  CG        19.0390   20.8240   44.1900 C.3   227  MET227      0.0595
     81  SD        20.0490   19.3400   43.9400 S.3   227  MET227     -0.1393
     82  CE        18.8850   18.3090   43.0260 C.3   227  MET227      0.0692
     83  N         12.6780   22.3130   44.6760 N.3   229  ASN229     -0.1225
     84  CA        11.8390   21.9650   43.5230 C.3   229  ASN229      0.1785
     85  C         11.8300   20.4670   43.3010 C.2   229  ASN229      0.2597
     86  O         10.7640   19.8520   43.1300 O.2   229  ASN229     -0.2718
     87  CB        12.3310   22.6750   42.2570 C.3   229  ASN229      0.1169
     88  CG        11.3660   22.5240   41.0950 C.2   229  ASN229      0.2627
     89  OD1       10.2040   22.9030   41.1940 O.2   229  ASN229     -0.2716
     90  ND2       11.8540   21.9800   39.9830 N.am  229  ASN229     -0.0877
     91  N         13.0220   19.8690   43.3180 N.am  230  LYS230     -0.1980
     92  CA        13.1380   18.4370   43.0960 C.3   230  LYS230      0.1596
     93  C         12.5210   17.6640   44.2580 C.2   230  LYS230      0.2287
     94  O         11.9240   16.6200   44.0470 O.2   230  LYS230     -0.2864
     95  CB        14.5850   18.0090   42.8250 C.3   230  LYS230      0.0298
     96  CG        14.7250   16.7350   41.9690 C.3   230  LYS230      0.0038
     97  CD        14.0430   16.7840   40.5840 C.3   230  LYS230      0.0206
     98  CE        14.2770   18.0960   39.8330 C.3   230  LYS230      0.1093
     99  NZ        13.8360   18.0390   38.4090 N.3   230  LYS230     -0.1314
    100  N          8.9740   17.6340   43.6510 N.3   233  GLU233     -0.1245
    101  CA         8.6690   16.8270   42.4840 C.3   233  GLU233      0.1567
    102  C          8.7230   15.3570   42.8340 C.2   233  GLU233      0.2260
    103  O          8.0940   14.5450   42.1560 O.2   233  GLU233     -0.2867
    104  CB         9.6190   17.1280   41.3170 C.3   233  GLU233      0.0388
    105  CG         9.4010   18.4860   40.6530 C.3   233  GLU233      0.1160
    106  CD        10.2890   18.7010   39.4490 C.2   233  GLU233      0.3649
    107  OE1       11.1500   17.8350   39.1690 O.co2 233  GLU233     -0.2457
    108  OE2       10.1220   19.7440   38.7810 O.co2 233  GLU233     -0.2457
    109  N         20.3090   18.4460   30.8470 N.3   256  CYS256     -0.1235
    110  CA        18.8420   18.5230   30.7560 C.3   256  CYS256      0.1677
    111  C         18.2930   18.0510   29.4210 C.2   256  CYS256      0.2270
    112  O         17.3760   18.6680   28.8670 O.2   256  CYS256     -0.2867
    113  CB        18.3480   19.9450   31.0220 C.3   256  CYS256      0.0956
    114  SG        18.9390   20.5630   32.6000 S.3   256  CYS256     -0.0801
    115  N         14.8890   13.9040   30.4460 N.3   259  HIS259     -0.1241
    116  CA        14.0410   14.6230   31.3860 C.3   259  HIS259      0.1621
    117  C         13.5580   13.8070   32.5380 C.2   259  HIS259      0.2264
    118  O         13.2010   14.3600   33.5760 O.2   259  HIS259     -0.2867
    119  CB        12.8740   15.2750   30.6530 C.3   259  HIS259      0.0745
    120  CG        13.2940   16.3290   29.6580 C.ar  259  HIS259      0.0817
    121  ND1       12.5220   17.3720   29.3380 N.ar  259  HIS259     -0.2268
    122  CD2       14.4550   16.4640   28.9180 C.ar  259  HIS259      0.1154
    123  CE1       13.1610   18.1380   28.4250 C.ar  259  HIS259      0.1986
    124  NE2       14.3430   17.5810   28.1770 N.ar  259  HIS259     -0.2212
    125  N         15.8440   21.2900   26.6180 N.3   276  PRO276     -0.2116
    126  CA        15.0890   21.8720   27.7270 C.3   276  PRO276      0.1372
    127  C         14.0510   22.8510   27.1900 C.2   276  PRO276      0.2244
    128  O         14.4030   23.9620   26.8220 O.2   276  PRO276     -0.2868
    129  CB        16.1500   22.6500   28.5190 C.3   276  PRO276      0.0268
    130  CG        17.4660   22.1460   28.0500 C.3   276  PRO276      0.0207
    131  CD        17.2730   21.6520   26.6550 C.3   276  PRO276      0.0892
    132  N          9.4410   23.7080   27.3690 N.3   278  MET278     -0.1245
    133  CA         8.1540   23.3510   27.9510 C.3   278  MET278      0.1570
    134  C          7.0460   23.0830   26.9140 C.2   278  MET278      0.2261
    135  O          5.9780   22.5900   27.2600 O.2   278  MET278     -0.2867
    136  CB         7.7060   24.3880   28.9930 C.3   278  MET278      0.0387
    137  CG         8.4180   24.2730   30.3380 C.3   278  MET278      0.0595
    138  SD         8.4380   22.6130   31.0790 S.3   278  MET278     -0.1393
    139  CE         6.7200   22.3790   31.5510 C.3   278  MET278      0.0692
@<TRIPOS>BOND
     1   125   131    1
     2   125   126    1
     3   131   130    1
     4   128   127    2
     5   134   135    2
     6   134   133    1
     7   127   126    1
     8   132   133    1
     9   126   129    1
    10   133   136    1
    11   130   129    1
    12   124   123   ar
    13   124   122   ar
    14   123   121   ar
    15   112   111    2
    16   122   120   ar
    17   136   137    1
    18   121   120   ar
    19   111   110    1
    20   120   119    1
    21   137   138    1
    22   115   116    1
    23   119   116    1
    24   110   109    1
    25   110   113    1
    26   113   114    1
    27   138   139    1
    28   116   117    1
    29    21    20    2
    30    22    19    1
    31    22    23    1
    32    19    20    1
    33    19    18    1
    34   117   118    2
    35    20    24   am
    36    18    12   am
    37    13    12    2
    38    53    54    1
    39    12    11    1
    40    24    25    1
    41    27    26    2
    42    10    11    1
    43    25    26    1
    44    25    28    1
    45    58    57    1
    46    58    59    1
    47    11    14    1
    48    54    57    1
    49    54    55    1
    50    59    60    1
    51    28    29    1
    52    29    30    1
    53    43    40    1
    54    43    44    1
    55    55    56    2
    56    32    30   ar
    57    30    31   ar
    58    14    15    1
    59    40    39    1
    60    40    41    1
    61    16    15   ar
    62    39    35   am
    63    42    41    2
    64    36    35    2
    65    15    17   ar
    66    35    34    1
    67    41    45   am
    68    33    34    1
    69    34    37    1
    70    99    98    1
    71    67    65    1
    72    45    46    1
    73    68    66    1
    74   108   106   ar
    75   107   106   ar
    76    49    50    1
    77    49    47   am
    78    37    38    1
    79    74    73    1
    80     9     8    1
    81   106   105    1
    82    52    51    2
    83    66    65    1
    84    50    51    1
    85    46    47    1
    86    65    62    1
    87    98    97    1
    88     8     7    1
    89    90    88   am
    90    47    48    2
    91    73    70    1
    92     1     2    1
    93    97    96    1
    94   105   104    1
    95    63    64    2
    96    63    62    1
    97    62    61    1
    98    88    89    2
    99    88    87    1
   100   104   101    1
   101     5     2    1
   102     5     6    1
   103     7     6    1
   104     2     3    1
   105    70    71    1
   106    70    69    1
   107    96    95    1
   108   103   102    2
   109    87    84    1
   110    72    71    2
   111   101   102    1
   112   101   100    1
   113    95    92    1
   114     3     4    2
   115    82    81    1
   116    92    91    1
   117    92    93    1
   118    86    85    2
   119    85    91   am
   120    85    84    1
   121    84    83    1
   122    81    80    1
   123    94    93    2
   124    80    79    1
   125    76    79    1
   126    76    75    1
   127    76    77    1
   128    77    78    2
