@<TRIPOS>MOLECULE
tmp/4kp8A00.pdb
 143 138 0 0 0
SMALL
GASTEIGER

@<TRIPOS>ATOM
      1  N         -7.8000   23.8280  -12.9900 N.3    86  THR86      -0.1203
      2  CA        -7.2020   24.7320  -12.0240 C.3    86  THR86       0.1994
      3  C         -5.6730   24.6630  -11.9280 C.2    86  THR86       0.2617
      4  O         -4.9660   25.7300  -11.7490 O.2    86  THR86      -0.2717
      5  CB        -7.8700   24.6120  -10.6150 C.3    86  THR86       0.1784
      6  OG1       -7.3170   25.6290   -9.7740 O.3    86  THR86      -0.2211
      7  CG2       -7.6180   23.2330   -9.9560 C.3    86  THR86       0.0376
      8  N         -5.1280   23.4440  -12.0310 N.am   87  GLN87      -0.1979
      9  CA        -3.6680   23.3020  -11.9620 C.3    87  GLN87       0.1601
     10  C         -3.2970   21.8810  -12.3610 C.2    87  GLN87       0.2287
     11  O         -4.1850   21.0060  -12.4270 O.2    87  GLN87      -0.2864
     12  CB        -3.1600   23.6150  -10.5130 C.3    87  GLN87       0.0394
     13  CG        -3.8630   22.8680   -9.3600 C.3    87  GLN87       0.0908
     14  CD        -3.0330   21.7500   -8.7340 C.2    87  GLN87       0.2608
     15  OE1       -2.3580   20.9610   -9.4100 O.2    87  GLN87      -0.2717
     16  NE2       -3.0990   21.6620   -7.4090 N.am   87  GLN87      -0.0878
     17  N          0.1400   18.9010  -11.5930 N.3    89  HIS89      -0.1241
     18  CA         1.3200   18.6690  -10.7670 C.3    89  HIS89       0.1621
     19  C          1.6430   17.1750  -10.8760 C.2    89  HIS89       0.2264
     20  O          0.8750   16.3850  -11.4970 O.2    89  HIS89      -0.2867
     21  CB         1.0420   19.0740   -9.2980 C.3    89  HIS89       0.0745
     22  CG        -0.0720   18.2470   -8.6670 C.ar   89  HIS89       0.0817
     23  ND1       -1.3750   18.6680   -8.6010 N.ar   89  HIS89      -0.2268
     24  CD2       -0.0610   16.9350   -8.1770 C.ar   89  HIS89       0.1154
     25  CE1       -2.1180   17.6950   -8.0610 C.ar   89  HIS89       0.1986
     26  NE2       -1.2960   16.6480   -7.7660 N.ar   89  HIS89      -0.2212
     27  N          3.8370   13.4410   -8.9940 N.3    91  HIS91      -0.1241
     28  CA         4.1820   12.5680   -7.8470 C.3    91  HIS91       0.1621
     29  C          5.2280   11.6070   -8.3540 C.2    91  HIS91       0.2264
     30  O          5.0950   11.0970   -9.4480 O.2    91  HIS91      -0.2867
     31  CB         2.9760   11.7440   -7.3740 C.3    91  HIS91       0.0745
     32  CG         1.8560   12.5890   -6.8780 C.ar   91  HIS91       0.0817
     33  ND1        1.7830   13.0690   -5.6000 N.ar   91  HIS91      -0.2268
     34  CD2        0.7550   13.0760   -7.5520 C.ar   91  HIS91       0.1154
     35  CE1        0.6290   13.7700   -5.4710 C.ar   91  HIS91       0.1986
     36  NE2        0.0230   13.7870   -6.6850 N.ar   91  HIS91      -0.2212
     37  N         -1.2170   14.6370  -12.4570 N.3   115  HIS115     -0.1241
     38  CA        -2.6350   14.9490  -12.1950 C.3   115  HIS115      0.1621
     39  C         -3.0510   16.3030  -12.7320 C.2   115  HIS115      0.2264
     40  O         -2.3560   17.3050  -12.5210 O.2   115  HIS115     -0.2867
     41  CB        -2.9560   14.9270  -10.7050 C.3   115  HIS115      0.0745
     42  CG        -2.7970   13.5650  -10.0780 C.ar  115  HIS115      0.0817
     43  ND1       -2.3960   13.4120   -8.7980 N.ar  115  HIS115     -0.2268
     44  CD2       -3.1120   12.2830  -10.5630 C.ar  115  HIS115      0.1154
     45  CE1       -2.3390   12.0750   -8.5210 C.ar  115  HIS115      0.1986
     46  NE2       -2.8250   11.4060   -9.6050 N.ar  115  HIS115     -0.2212
     47  N         -6.0730   18.8190  -12.4860 N.3   117  VAL117     -0.1245
     48  CA        -7.1290   19.0060  -11.4840 C.3   117  VAL117      0.1561
     49  C         -8.1410   20.0200  -12.0290 C.2   117  VAL117      0.2260
     50  O         -7.7350   21.0820  -12.5080 O.2   117  VAL117     -0.2867
     51  CB        -6.5440   19.5080  -10.1300 C.3   117  VAL117      0.0252
     52  CG1       -7.6600   19.7470   -9.0910 C.3   117  VAL117      0.0019
     53  CG2       -5.5170   18.5030   -9.5770 C.3   117  VAL117      0.0019
     54  N        -12.2210   26.7970   -7.3660 N.3   127  ALA127     -0.1231
     55  CA       -11.7550   25.4840   -6.8670 C.3   127  ALA127      0.1694
     56  C        -11.8170   25.3590   -5.3380 C.2   127  ALA127      0.2592
     57  O        -12.2920   24.3460   -4.8080 O.2   127  ALA127     -0.2718
     58  CB       -10.3490   25.1590   -7.3900 C.3   127  ALA127      0.0304
     59  N        -11.3870   26.3980   -4.6230 N.am  128  SER128     -0.1952
     60  CA       -11.3330   26.2850   -3.1600 C.3   128  SER128      0.1924
     61  C        -12.7060   26.1570   -2.5180 C.2   128  SER128      0.2314
     62  O        -12.8410   25.4540   -1.5280 O.2   128  SER128     -0.2863
     63  CB       -10.4530   27.3610   -2.4920 C.3   128  SER128      0.2116
     64  OG       -11.0230   28.6490   -2.5540 O.3   128  SER128     -0.2180
     65  N        -13.8560   22.4970   -3.4980 N.3   131  SER131     -0.1217
     66  CA       -13.0210   21.4580   -2.8840 C.3   131  SER131      0.1889
     67  C        -13.7110   20.5480   -1.8480 C.2   131  SER131      0.2288
     68  O        -13.5640   19.3170   -1.8640 O.2   131  SER131     -0.2866
     69  CB       -11.8080   22.1280   -2.2550 C.3   131  SER131      0.2089
     70  OG       -10.7300   21.2360   -2.3240 O.3   131  SER131     -0.2183
     71  N        -14.9130   18.0980   -7.5160 N.3   137  LEU137     -0.1245
     72  CA       -13.6370   17.9770   -8.2240 C.3   137  LEU137      0.1561
     73  C        -13.6160   16.8350   -9.1930 C.2   137  LEU137      0.2260
     74  O        -14.2020   15.7520   -8.9420 O.2   137  LEU137     -0.2867
     75  CB       -12.4530   17.9330   -7.2100 C.3   137  LEU137      0.0270
     76  CG       -12.2420   19.0190   -6.1470 C.3   137  LEU137      0.0019
     77  CD1      -11.0660   18.6740   -5.2630 C.3   137  LEU137      0.0001
     78  CD2      -11.9880   20.3810   -6.8080 C.3   137  LEU137      0.0001
     79  N        -10.4090   14.8130  -11.4600 N.3   139  VAL139     -0.1245
     80  CA        -8.9590   14.7700  -11.7400 C.3   139  VAL139      0.1561
     81  C         -8.6620   13.7000  -12.7860 C.2   139  VAL139      0.2260
     82  O         -9.1670   12.5540  -12.6750 O.2   139  VAL139     -0.2867
     83  CB        -8.1000   14.5270  -10.4430 C.3   139  VAL139      0.0252
     84  CG1       -6.6220   14.5330  -10.7900 C.3   139  VAL139      0.0019
     85  CG2       -8.4280   15.4930   -9.3270 C.3   139  VAL139      0.0019
     86  N         -9.0240   13.5920   -2.8540 N.3   195  LEU195     -0.1231
     87  CA        -7.6820   14.1420   -3.0040 C.3   195  LEU195      0.1693
     88  C         -6.6950   13.2070   -2.2800 C.2   195  LEU195      0.2593
     89  O         -7.0130   12.7300   -1.1800 O.2   195  LEU195     -0.2718
     90  CB        -7.5570   15.4670   -2.3360 C.3   195  LEU195      0.0284
     91  CG        -8.3760   16.6020   -2.9070 C.3   195  LEU195      0.0019
     92  CD1       -8.0930   17.7950   -2.0320 C.3   195  LEU195      0.0001
     93  CD2       -7.9560   16.8660   -4.3190 C.3   195  LEU195      0.0001
     94  N         -5.5250   12.9800   -2.8860 N.am  196  THR196     -0.1939
     95  CA        -4.4870   12.0390   -2.3210 C.3   196  THR196      0.2028
     96  C         -3.5240   12.7460   -1.3980 C.2   196  THR196      0.2643
     97  O         -2.5990   12.1160   -0.8910 O.2   196  THR196     -0.2714
     98  CB        -3.5990   11.4140   -3.4380 C.3   196  THR196      0.1808
     99  OG1       -2.8930   12.4290   -4.1570 O.3   196  THR196     -0.2208
    100  CG2       -4.4600   10.6060   -4.4170 C.3   196  THR196      0.0379
    101  N         -3.7900   14.0320   -1.1650 N.am  197  THR197     -0.1937
    102  CA        -2.9750   14.8880   -0.3280 C.3   197  THR197      0.2013
    103  C         -3.9010   15.4990    0.7600 C.2   197  THR197      0.2484
    104  O         -5.1020   15.6590    0.5290 O.2   197  THR197     -0.2729
    105  CB        -2.3840   15.9880   -1.2400 C.3   197  THR197      0.1807
    106  OG1       -1.3290   15.4610   -2.0900 O.3   197  THR197     -0.2208
    107  CG2       -1.9160   17.1310   -0.4670 C.3   197  THR197      0.0379
    108  N         -3.3790   15.8190    1.9580 N.am  198  PRO198     -0.2715
    109  CA        -4.2630   16.5400    2.9080 C.3   198  PRO198      0.1521
    110  C         -4.8240   17.8310    2.2090 C.2   198  PRO198      0.2440
    111  O         -4.0890   18.4710    1.4470 O.2   198  PRO198     -0.2731
    112  CB        -3.2970   16.8960    4.0830 C.3   198  PRO198      0.0310
    113  CG        -2.2920   15.7950    4.0250 C.3   198  PRO198      0.0237
    114  CD        -2.0870   15.4720    2.5530 C.3   198  PRO198      0.0939
    115  N         -6.1150   18.2190    2.4510 N.am  199  PRO199     -0.2727
    116  CA        -7.0520   17.6730    3.4620 C.3   199  PRO199      0.1402
    117  C         -7.7840   16.3920    3.0720 C.2   199  PRO199      0.2269
    118  O         -8.6980   16.0460    3.7540 O.2   199  PRO199     -0.2865
    119  CB        -8.1070   18.7730    3.6220 C.3   199  PRO199      0.0296
    120  CG        -7.4440   19.9880    3.0860 C.3   199  PRO199      0.0237
    121  CD        -6.6540   19.4620    1.8830 C.3   199  PRO199      0.0939
    122  N         -9.9870   15.5240    0.8230 N.3   201  ASN201     -0.1240
    123  CA       -11.4700   15.6580    0.6730 C.3   201  ASN201      0.1653
    124  C        -12.0540   14.5410   -0.2180 C.2   201  ASN201      0.2266
    125  O        -11.5040   14.2800   -1.3290 O.2   201  ASN201     -0.2867
    126  CB       -11.8660   16.9630    0.0460 C.3   201  ASN201      0.1155
    127  CG       -11.4100   18.1690    0.8150 C.2   201  ASN201      0.2627
    128  OD1      -10.9220   18.0900    1.9240 O.2   201  ASN201     -0.2716
    129  ND2      -11.5930   19.3090    0.2210 N.am  201  ASN201     -0.0877
    130  N        -12.5190   10.4830  -10.1510 N.3   206  TRP206     -0.1241
    131  CA       -11.2370   10.1050  -10.8170 C.3   206  TRP206      0.1605
    132  C        -11.3650    9.5840  -12.2110 C.2   206  TRP206      0.2264
    133  O        -12.2300    8.7590  -12.4500 O.2   206  TRP206     -0.2867
    134  CB       -10.4410    9.0660  -10.0040 C.3   206  TRP206      0.0550
    135  CG        -9.7330    9.6700   -8.8350 C.ar  206  TRP206      0.0003
    136  CD1      -10.1640    9.7280   -7.5070 C.ar  206  TRP206      0.0946
    137  CD2       -8.4590   10.4010   -8.8560 C.ar  206  TRP206      0.0152
    138  NE1       -9.2050   10.4000   -6.7310 N.ar  206  TRP206     -0.2442
    139  CE2       -8.1860   10.8110   -7.4680 C.ar  206  TRP206      0.0810
    140  CE3       -7.5220   10.7120   -9.8500 C.ar  206  TRP206      0.0012
    141  CZ2       -7.0590   11.5840   -7.1190 C.ar  206  TRP206      0.0191
    142  CZ3       -6.3520   11.4530   -9.4780 C.ar  206  TRP206      0.0001
    143  CH2       -6.1290   11.8670   -8.1510 C.ar  206  TRP206      0.0015
@<TRIPOS>BOND
     1     1     2    1
     2    81    82    2
     3    81    80    1
     4    39    40    2
     5    39    38    1
     6    50    49    2
     7    47    48    1
     8    37    38    1
     9   133   132    2
    10    11    10    2
    11    10     9    1
    12   132   131    1
    13    38    41    1
    14     8     9    1
    15     8     3   am
    16    49    48    1
    17     2     3    1
    18     2     5    1
    19     9    12    1
    20     3     4    2
    21    80    79    1
    22    80    83    1
    23    17    18    1
    24    20    19    2
    25    48    51    1
    26    19    18    1
    27   131   130    1
    28   131   134    1
    29    84    83    1
    30    18    21    1
    31    41    42    1
    32     5     7    1
    33     5     6    1
    34    44    42   ar
    35    44    46   ar
    36    12    13    1
    37    83    85    1
    38    51    53    1
    39    51    52    1
    40    42    43   ar
    41   134   135    1
    42   140   142   ar
    43   140   137   ar
    44    46    45   ar
    45   142   143   ar
    46    30    29    2
    47    15    14    2
    48    13    14    1
    49    21    22    1
    50    73    74    2
    51    73    72    1
    52    27    28    1
    53   137   135   ar
    54   137   139   ar
    55   135   136   ar
    56    43    45   ar
    57    14    16   am
    58    22    23   ar
    59    22    24   ar
    60    23    25   ar
    61    29    28    1
    62    72    71    1
    63    72    75    1
    64    24    26   ar
    65   143   141   ar
    66    25    26   ar
    67    28    31    1
    68    34    32   ar
    69    34    36   ar
    70   136   138   ar
    71   139   141   ar
    72   139   138   ar
    73    58    55    1
    74    31    32    1
    75    54    55    1
    76    75    76    1
    77    32    33   ar
    78    55    56    1
    79    78    76    1
    80    36    35   ar
    81    76    77    1
    82    33    35   ar
    83    56    57    2
    84    56    59   am
    85    59    60    1
    86   100    98    1
    87    93    91    1
    88    99    98    1
    89    65    66    1
    90    98    95    1
    91    60    61    1
    92    60    63    1
    93    87    86    1
    94    87    90    1
    95    87    88    1
    96    91    90    1
    97    91    92    1
    98    94    95    1
    99    94    88   am
   100    66    69    1
   101    66    67    1
   102    64    63    1
   103    61    62    2
   104    70    69    1
   105    95    96    1
   106    88    89    2
   107   106   105    1
   108    68    67    2
   109    96   101   am
   110    96    97    2
   111   125   124    2
   112   105   107    1
   113   105   102    1
   114   101   102    1
   115   102   103    1
   116   124   123    1
   117   126   123    1
   118   126   127    1
   119   129   127   am
   120   104   103    2
   121   123   122    1
   122   103   108   am
   123   127   128    2
   124   111   110    2
   125   121   115    1
   126   121   120    1
   127   108   114    1
   128   108   109    1
   129   110   115   am
   130   110   109    1
   131   115   116    1
   132   114   113    1
   133   109   112    1
   134   117   116    1
   135   117   118    2
   136   120   119    1
   137   116   119    1
   138   113   112    1
