@<TRIPOS>MOLECULE
tmp/4kpmA00.pdb
 122 120 0 0 0
SMALL
GASTEIGER

@<TRIPOS>ATOM
      1  N         11.5760    8.5430   -0.5480 N.3    10  GLU10      -0.1245
      2  CA        12.6610    7.8420   -1.2800 C.3    10  GLU10       0.1567
      3  C         13.8500    8.7370   -1.5400 C.2    10  GLU10       0.2260
      4  O         14.9740    8.2570   -1.6470 O.2    10  GLU10      -0.2867
      5  CB        12.1940    7.2840   -2.6140 C.3    10  GLU10       0.0388
      6  CG        11.1780    6.1520   -2.4870 C.3    10  GLU10       0.1160
      7  CD        11.8000    4.8430   -2.1200 C.2    10  GLU10       0.3649
      8  OE1       13.0590    4.7400   -1.9880 O.co2  10  GLU10      -0.2457
      9  OE2       10.9970    3.9260   -1.9270 O.co2  10  GLU10      -0.2457
     10  N         20.1340    3.3320   -7.7080 N.3    23  TYR23      -0.1241
     11  CA        18.7910    3.8430   -7.8830 C.3    23  TYR23       0.1605
     12  C         18.7930    5.2810   -8.3250 C.2    23  TYR23       0.2264
     13  O         19.7430    6.0240   -8.0850 O.2    23  TYR23      -0.2867
     14  CB        17.9520    3.6390   -6.5770 C.3    23  TYR23       0.0534
     15  CG        17.9160    2.1770   -6.0990 C.ar   23  TYR23      -0.0201
     16  CD1       18.8490    1.7150   -5.1790 C.ar   23  TYR23      -0.0009
     17  CD2       17.0070    1.2690   -6.6220 C.ar   23  TYR23      -0.0009
     18  CE1       18.8660    0.4060   -4.7840 C.ar   23  TYR23       0.0417
     19  CE2       17.0150   -0.0530   -6.1990 C.ar   23  TYR23       0.0417
     20  CZ        17.9660   -0.4570   -5.3020 C.ar   23  TYR23       0.1957
     21  OH        18.0070   -1.7670   -4.9100 O.3    23  TYR23      -0.2866
     22  N         11.6060    8.5250   -7.1870 N.3    27  VAL27      -0.1231
     23  CA        11.0760    7.3590   -6.5330 C.3    27  VAL27       0.1692
     24  C         12.1010    6.1970   -6.5810 C.2    27  VAL27       0.2592
     25  O         11.7590    5.0150   -6.4390 O.2    27  VAL27      -0.2718
     26  CB         9.6700    6.9740   -7.0610 C.3    27  VAL27       0.0266
     27  CG1        8.6630    8.1380   -6.8470 C.3    27  VAL27       0.0020
     28  CG2        9.7530    6.4820   -8.5070 C.3    27  VAL27       0.0020
     29  N         13.3640    6.5110   -6.8400 N.am   28  GLN28      -0.1966
     30  CA        14.4330    5.5170   -6.7130 C.3    28  GLN28       0.1733
     31  C         14.2440    4.2600   -7.5170 C.2    28  GLN28       0.2616
     32  O         14.3180    3.0970   -7.0270 O.2    28  GLN28      -0.2715
     33  CB        14.7070    5.2590   -5.2250 C.3    28  GLN28       0.0408
     34  CG        15.2710    6.4920   -4.5150 C.3    28  GLN28       0.0908
     35  CD        16.7930    6.7330   -4.8350 C.2    28  GLN28       0.2608
     36  OE1       17.1750    7.6090   -5.6560 O.2    28  GLN28      -0.2717
     37  NE2       17.6310    5.9750   -4.1460 N.am   28  GLN28      -0.0878
     38  N         14.0120    4.4510   -8.8150 N.am   29  PHE29      -0.1960
     39  CA        14.0220    3.3150   -9.7230 C.3    29  PHE29       0.1771
     40  C         15.4110    2.7180   -9.9020 C.2    29  PHE29       0.2619
     41  O         16.3560    3.4750  -10.1100 O.2    29  PHE29      -0.2715
     42  CB        13.6160    3.8600  -11.1000 C.3    29  PHE29       0.0574
     43  CG        12.1370    3.8870  -11.3680 C.ar   29  PHE29      -0.0200
     44  CD1       11.4740    5.1330  -11.4780 C.ar   29  PHE29      -0.0042
     45  CD2       11.4460    2.7100  -11.6400 C.ar   29  PHE29      -0.0042
     46  CE1       10.1350    5.2150  -11.8200 C.ar   29  PHE29      -0.0003
     47  CE2       10.0740    2.7670  -11.9460 C.ar   29  PHE29      -0.0003
     48  CZ         9.4370    4.0080  -12.0300 C.ar   29  PHE29      -0.0000
     49  N         15.5460    1.3910   -9.8490 N.am   30  ASP30      -0.1971
     50  CA        16.7330    0.7900  -10.4620 C.3    30  ASP30       0.1709
     51  C         16.6310    0.8700  -12.0000 C.2    30  ASP30       0.2293
     52  O         15.5570    1.1100  -12.5710 O.2    30  ASP30      -0.2864
     53  CB        17.1000   -0.5930   -9.9150 C.3    30  ASP30       0.1436
     54  CG        16.0530   -1.6420  -10.1480 C.2    30  ASP30       0.3671
     55  OD1       15.5010   -1.7440  -11.2110 O.co2  30  ASP30      -0.2456
     56  OD2       15.8150   -2.4520   -9.2360 O.co2  30  ASP30      -0.2456
     57  N         16.9590   -1.4540  -14.3590 N.3    32  GLY32      -0.1210
     58  CA        16.1620   -2.5320  -14.9540 C.3    32  GLY32       0.1956
     59  C         14.6690   -2.1730  -14.9190 C.2    32  GLY32       0.2612
     60  O         13.9360   -2.3360  -15.8730 O.2    32  GLY32      -0.2717
     61  N         14.2210   -1.6140  -13.8110 N.am   33  THR33      -0.1952
     62  CA        12.8050   -1.3740  -13.6180 C.3    33  THR33       0.1897
     63  C         12.4150   -0.1210  -14.4390 C.2    33  THR33       0.2313
     64  O         11.3250   -0.1320  -15.0640 O.2    33  THR33      -0.2863
     65  CB        12.4640   -1.1530  -12.1360 C.3    33  THR33       0.1794
     66  OG1       12.8280   -2.2820  -11.3440 O.3    33  THR33      -0.2208
     67  CG2       10.9710   -0.9000  -11.9370 C.3    33  THR33       0.0378
     68  N         12.1930   -1.5970  -18.0290 N.3    36  ALA36      -0.1245
     69  CA        11.1210   -2.5900  -18.2160 C.3    36  ALA36       0.1562
     70  C          9.7450   -1.9730  -18.2300 C.2    36  ALA36       0.2260
     71  O          8.8120   -2.5160  -18.8630 O.2    36  ALA36      -0.2867
     72  CB        11.1610   -3.7060  -17.1570 C.3    36  ALA36       0.0290
     73  N          1.8020   -3.1560  -12.9620 N.3    64  ARG64      -0.1231
     74  CA         2.4670   -4.4150  -13.2750 C.3    64  ARG64       0.1694
     75  C          2.9850   -5.1730  -12.0550 C.2    64  ARG64       0.2591
     76  O          2.8510   -6.4010  -12.0040 O.2    64  ARG64      -0.2718
     77  CB         3.5940   -4.1540  -14.3010 C.3    64  ARG64       0.0321
     78  CG         3.0560   -3.7780  -15.6760 C.3    64  ARG64       0.0489
     79  CD         4.1930   -3.5900  -16.6950 C.3    64  ARG64       0.2205
     80  NE         4.8950   -4.8510  -16.9160 N.pl3  64  ARG64      -0.0865
     81  CZ         6.0960   -5.1750  -16.4520 C.cat  64  ARG64       0.5346
     82  NH1        6.8180   -4.3210  -15.7070 N.pl3  64  ARG64       0.1354
     83  NH2        6.5770   -6.3830  -16.7190 N.pl3  64  ARG64       0.1354
     84  N          3.5560   -4.4470  -11.0870 N.am   65  GLN65      -0.1979
     85  CA         4.4070   -5.0050  -10.0240 C.3    65  GLN65       0.1601
     86  C          3.7940   -4.8540   -8.6340 C.2    65  GLN65       0.2287
     87  O          4.1940   -5.5710   -7.7260 O.2    65  GLN65      -0.2864
     88  CB         5.8230   -4.3220  -10.0220 C.3    65  GLN65       0.0394
     89  CG         6.6240   -4.4520  -11.3240 C.3    65  GLN65       0.0908
     90  CD         8.0780   -4.0100  -11.1800 C.2    65  GLN65       0.2608
     91  OE1        8.6080   -3.8740  -10.0510 O.2    65  GLN65      -0.2717
     92  NE2        8.7350   -3.7730  -12.3310 N.am   65  GLN65      -0.0878
     93  N          4.8230   -3.0990   -3.7030 N.3    68  GLY68      -0.1210
     94  CA         6.0330   -3.8140   -3.3130 C.3    68  GLY68       0.1956
     95  C          7.2860   -3.2690   -3.9890 C.2    68  GLY68       0.2612
     96  O          8.4120   -3.5690   -3.5620 O.2    68  GLY68      -0.2717
     97  N          7.1200   -2.4530   -5.0360 N.am   69  ALA69      -0.1965
     98  CA         8.2790   -1.7980   -5.6810 C.3    69  ALA69       0.1728
     99  C          8.9830   -0.7420   -4.8020 C.2    69  ALA69       0.2616
    100  O         10.1770   -0.4660   -4.9750 O.2    69  ALA69      -0.2715
    101  CB         7.8600   -1.2080   -7.0450 C.3    69  ALA69       0.0334
    102  N          8.2230   -0.1810   -3.8550 N.am   70  TRP70      -0.1960
    103  CA         8.7100    0.7800   -2.8410 C.3    70  TRP70       0.1756
    104  C          8.3470    0.2890   -1.4190 C.2    70  TRP70       0.2461
    105  O          7.3520    0.7210   -0.8240 O.2    70  TRP70      -0.2730
    106  CB         8.0650    2.1420   -3.0890 C.3    70  TRP70       0.0590
    107  CG         8.3670    2.6060   -4.4620 C.ar   70  TRP70       0.0006
    108  CD1        9.4710    3.3180   -4.8560 C.ar   70  TRP70       0.0946
    109  CD2        7.5570    2.4140   -5.6250 C.ar   70  TRP70       0.0152
    110  NE1        9.4010    3.5720   -6.2000 N.ar   70  TRP70      -0.2442
    111  CE2        8.2490    3.0010   -6.7040 C.ar   70  TRP70       0.0810
    112  CE3        6.3330    1.7520   -5.8790 C.ar   70  TRP70       0.0012
    113  CZ2        7.7410    2.9810   -8.0060 C.ar   70  TRP70       0.0191
    114  CZ3        5.8310    1.7320   -7.1600 C.ar   70  TRP70       0.0001
    115  CH2        6.5290    2.3440   -8.2080 C.ar   70  TRP70       0.0015
    116  N          9.1640   -0.6250   -0.8770 N.am   71  PRO71      -0.2727
    117  CA         8.8050   -1.4710    0.3050 C.3    71  PRO71       0.1402
    118  C          8.4050   -0.8000    1.6280 C.2    71  PRO71       0.2269
    119  O          7.6520   -1.3900    2.4200 O.2    71  PRO71      -0.2865
    120  CB        10.0450   -2.3760    0.4750 C.3    71  PRO71       0.0296
    121  CG        10.6900   -2.3800   -0.8960 C.3    71  PRO71       0.0237
    122  CD        10.5160   -0.9160   -1.3550 C.3    71  PRO71       0.0939
@<TRIPOS>BOND
     1    71    70    2
     2    70    69    1
     3    69    68    1
     4    69    72    1
     5    80    79    1
     6    80    81    2
     7    83    81    1
     8    79    78    1
     9    81    82    1
    10    60    59    2
    11    78    77    1
    12    64    63    2
    13    58    59    1
    14    58    57    1
    15    59    61   am
    16    63    62    1
    17    77    74    1
    18    61    62    1
    19    62    65    1
    20    74    73    1
    21    74    75    1
    22    52    51    2
    23    92    90   am
    24    65    67    1
    25    65    66    1
    26    75    76    2
    27    75    84   am
    28    48    47   ar
    29    48    46   ar
    30    51    50    1
    31    47    45   ar
    32    46    44   ar
    33    45    43   ar
    34    44    43   ar
    35    43    42    1
    36    89    90    1
    37    89    88    1
    38    55    54   ar
    39    90    91    2
    40    42    39    1
    41    84    85    1
    42    50    53    1
    43    50    49    1
    44    54    53    1
    45    54    56   ar
    46    41    40    2
    47    85    88    1
    48    85    86    1
    49    40    49   am
    50    40    39    1
    51    39    38    1
    52    38    31   am
    53    86    87    2
    54    28    26    1
    55    12    13    2
    56    12    11    1
    57   115   113   ar
    58   115   114   ar
    59   113   111   ar
    60    11    10    1
    61    11    14    1
    62    31    32    2
    63    31    30    1
    64    22    23    1
    65   114   112   ar
    66    26    27    1
    67    26    23    1
    68   101    98    1
    69    29    30    1
    70    29    24   am
    71    30    33    1
    72   111   110   ar
    73   111   109   ar
    74    17    19   ar
    75    17    15   ar
    76    24    23    1
    77    24    25    2
    78    14    15    1
    79   110   108   ar
    80    19    20   ar
    81    15    16   ar
    82   112   109   ar
    83    98    97    1
    84    98    99    1
    85    36    35    2
    86   109   107   ar
    87    20    21    1
    88    20    18   ar
    89    33    34    1
    90    16    18   ar
    91    97    95   am
    92   100    99    2
    93   108   107   ar
    94    35    34    1
    95    35    37   am
    96    99   102   am
    97   107   106    1
    98    95    96    2
    99    95    94    1
   100   102   103    1
   101    93    94    1
   102   106   103    1
   103   103   104    1
   104     5     6    1
   105     5     2    1
   106     6     7    1
   107     7     8   ar
   108     7     9   ar
   109     4     3    2
   110     3     2    1
   111   104   116   am
   112   104   105    2
   113   122   121    1
   114   122   116    1
   115     2     1    1
   116   121   120    1
   117   116   117    1
   118   117   120    1
   119   117   118    1
   120   118   119    2
