@<TRIPOS>MOLECULE
tmp/4kppB03.pdb
 89 83 0 0 0
SMALL
GASTEIGER

@<TRIPOS>ATOM
      1  N         33.0640   27.4620  149.6140 N.3    65  LEU65      -0.1245
      2  CA        33.3910   26.1490  150.1550 C.3    65  LEU65       0.1561
      3  C         32.1810   25.5010  150.8180 C.2    65  LEU65       0.2260
      4  O         31.9100   24.3190  150.6120 O.2    65  LEU65      -0.2867
      5  CB        34.5560   26.2460  151.1450 C.3    65  LEU65       0.0270
      6  CG        34.8950   24.9530  151.8960 C.3    65  LEU65       0.0019
      7  CD1       35.2050   23.8250  150.9200 C.3    65  LEU65       0.0001
      8  CD2       36.0450   25.1550  152.8790 C.3    65  LEU65       0.0001
      9  N         29.5780   21.6460  150.2140 N.3    69  LEU69      -0.1245
     10  CA        29.7320   20.6120  151.2390 C.3    69  LEU69       0.1561
     11  C         29.1840   19.2230  150.8600 C.2    69  LEU69       0.2260
     12  O         29.8260   18.2200  151.1650 O.2    69  LEU69      -0.2867
     13  CB        29.1550   21.0680  152.5850 C.3    69  LEU69       0.0270
     14  CG        29.9780   22.0890  153.3720 C.3    69  LEU69       0.0019
     15  CD1       29.4300   22.2430  154.7860 C.3    69  LEU69       0.0001
     16  CD2       31.4520   21.7030  153.4010 C.3    69  LEU69       0.0001
     17  N         31.8820   17.4400  149.0580 N.3    72  TYR72      -0.1241
     18  CA        32.9500   17.0010  149.9490 C.3    72  TYR72       0.1605
     19  C         32.5600   15.7500  150.7360 C.2    72  TYR72       0.2264
     20  O         33.3910   14.8750  150.9790 O.2    72  TYR72      -0.2867
     21  CB        33.3500   18.1280  150.9060 C.3    72  TYR72       0.0534
     22  CG        34.3490   19.0950  150.3110 C.ar   72  TYR72      -0.0201
     23  CD1       33.9540   20.0430  149.3760 C.ar   72  TYR72      -0.0009
     24  CD2       35.6890   19.0540  150.6790 C.ar   72  TYR72      -0.0009
     25  CE1       34.8620   20.9240  148.8250 C.ar   72  TYR72       0.0417
     26  CE2       36.6080   19.9340  150.1330 C.ar   72  TYR72       0.0417
     27  CZ        36.1890   20.8670  149.2060 C.ar   72  TYR72       0.1957
     28  OH        37.0930   21.7480  148.6530 O.3    72  TYR72      -0.2866
     29  N         36.7500    7.3940  151.8050 N.3    80  TRP80      -0.1241
     30  CA        36.7200    6.6050  153.0330 C.3    80  TRP80       0.1605
     31  C         36.5970    5.1150  152.7430 C.2    80  TRP80       0.2264
     32  O         37.3290    4.3010  153.3060 O.2    80  TRP80      -0.2867
     33  CB        35.5790    7.0400  153.9580 C.3    80  TRP80       0.0550
     34  CG        35.5400    6.2160  155.2110 C.ar   80  TRP80       0.0003
     35  CD1       34.8570    5.0470  155.4060 C.ar   80  TRP80       0.0946
     36  CD2       36.2480    6.4730  156.4290 C.ar   80  TRP80       0.0152
     37  NE1       35.0840    4.5710  156.6730 N.ar   80  TRP80      -0.2442
     38  CE2       35.9350    5.4270  157.3230 C.ar   80  TRP80       0.0810
     39  CE3       37.1090    7.4890  156.8540 C.ar   80  TRP80       0.0012
     40  CZ2       36.4530    5.3710  158.6170 C.ar   80  TRP80       0.0191
     41  CZ3       37.6210    7.4320  158.1380 C.ar   80  TRP80       0.0001
     42  CH2       37.2920    6.3800  159.0050 C.ar   80  TRP80       0.0015
     43  N         26.6670   13.4420  157.8670 N.3   212  LEU212     -0.1245
     44  CA        27.4250   12.2180  158.1070 C.3   212  LEU212      0.1561
     45  C         26.5320   10.9820  158.2210 C.2   212  LEU212      0.2260
     46  O         26.9550    9.8750  157.8910 O.2   212  LEU212     -0.2867
     47  CB        28.3020   12.3540  159.3550 C.3   212  LEU212      0.0270
     48  CG        29.3250   13.4930  159.3700 C.3   212  LEU212      0.0019
     49  CD1       30.3420   13.2830  160.4830 C.3   212  LEU212      0.0001
     50  CD2       30.0160   13.6420  158.0210 C.3   212  LEU212      0.0001
     51  N         41.6260   21.8700  147.7910 N.3   279  LEU279     -0.1245
     52  CA        41.2050   21.2280  149.0350 C.3   279  LEU279      0.1561
     53  C         40.5650   19.8540  148.8200 C.2   279  LEU279      0.2260
     54  O         40.8500   18.9140  149.5610 O.2   279  LEU279     -0.2867
     55  CB        40.2500   22.1380  149.8130 C.3   279  LEU279      0.0270
     56  CG        39.7600   21.6330  151.1750 C.3   279  LEU279      0.0019
     57  CD1       40.9260   21.4110  152.1300 C.3   279  LEU279      0.0001
     58  CD2       38.7420   22.5930  151.7840 C.3   279  LEU279      0.0001
     59  N         41.7980   16.3720  150.2400 N.3   283  THR283     -0.1218
     60  CA        40.8590   15.7510  151.1690 C.3   283  THR283      0.1862
     61  C         40.6670   14.2610  150.9020 C.2   283  THR283      0.2287
     62  O         40.6890   13.4550  151.8280 O.2   283  THR283     -0.2866
     63  CB        39.4900   16.4690  151.1520 C.3   283  THR283      0.1770
     64  OG1       39.6620   17.8280  151.5710 O.3   283  THR283     -0.2211
     65  CG2       38.5130   15.7870  152.0910 C.3   283  THR283      0.0375
     66  N         43.9810   12.4110  151.6950 N.3   286  ILE286     -0.1231
     67  CA        44.1860   12.3710  153.1400 C.3   286  ILE286      0.1692
     68  C         43.2470   11.3600  153.7990 C.2   286  ILE286      0.2591
     69  O         43.6690   10.5560  154.6280 O.2   286  ILE286     -0.2718
     70  CB        43.9950   13.7710  153.7700 C.3   286  ILE286      0.0266
     71  CG1       45.2060   14.6600  153.4650 C.3   286  ILE286      0.0019
     72  CG2       43.7800   13.6670  155.2700 C.3   286  ILE286      0.0020
     73  CD1       45.0520   16.0940  153.9430 C.3   286  ILE286      0.0001
     74  N         41.9750   11.4000  153.4140 N.am  287  ILE287     -0.1980
     75  CA        40.9850   10.4650  153.9360 C.3   287  ILE287      0.1595
     76  C         41.3320    9.0200  153.5700 C.2   287  ILE287      0.2287
     77  O         41.1180    8.1000  154.3610 O.2   287  ILE287     -0.2864
     78  CB        39.5630   10.8250  153.4540 C.3   287  ILE287      0.0276
     79  CG1       39.0840   12.0980  154.1560 C.3   287  ILE287      0.0022
     80  CG2       38.5920    9.6770  153.7060 C.3   287  ILE287      0.0022
     81  CD1       37.7340   12.5950  153.6810 C.3   287  ILE287      0.0001
     82  N         43.6280    8.1140  156.1430 N.3   290  ILE290     -0.1245
     83  CA        42.9530    8.1050  157.4330 C.3   290  ILE290      0.1561
     84  C         42.1170    6.8440  157.6540 C.2   290  ILE290      0.2260
     85  O         42.1830    6.2320  158.7180 O.2   290  ILE290     -0.2867
     86  CB        42.0640    9.3550  157.6040 C.3   290  ILE290      0.0252
     87  CG1       42.9340   10.6040  157.7730 C.3   290  ILE290      0.0019
     88  CG2       41.1360    9.1930  158.7960 C.3   290  ILE290      0.0019
     89  CD1       42.1410   11.8800  157.9970 C.3   290  ILE290      0.0001
@<TRIPOS>BOND
     1    51    52    1
     2    28    27    1
     3    53    52    1
     4    53    54    2
     5    25    27   ar
     6    25    23   ar
     7    52    55    1
     8    17    18    1
     9    27    26   ar
    10    23    22   ar
    11     1     2    1
    12    55    56    1
    13    18    19    1
    14    18    21    1
    15    26    24   ar
    16     2     3    1
    17     2     5    1
    18     9    10    1
    19    59    60    1
    20    22    24   ar
    21    22    21    1
    22     4     3    2
    23    19    20    2
    24    11    12    2
    25    11    10    1
    26    61    60    1
    27    61    62    2
    28     7     6    1
    29     5     6    1
    30    63    60    1
    31    63    64    1
    32    63    65    1
    33    56    58    1
    34    56    57    1
    35    10    13    1
    36    66    67    1
    37    29    30    1
    38     6     8    1
    39    13    14    1
    40    31    30    1
    41    31    32    2
    42    30    33    1
    43    67    70    1
    44    67    68    1
    45    14    16    1
    46    14    15    1
    47    74    68   am
    48    74    75    1
    49    78    80    1
    50    78    75    1
    51    78    79    1
    52    71    70    1
    53    71    73    1
    54    76    75    1
    55    76    77    2
    56    81    79    1
    57    70    72    1
    58    68    69    2
    59    33    34    1
    60    34    35   ar
    61    34    36   ar
    62    35    37   ar
    63    82    83    1
    64    36    39   ar
    65    36    38   ar
    66    37    38   ar
    67    39    41   ar
    68    38    40   ar
    69    83    86    1
    70    83    84    1
    71    86    87    1
    72    86    88    1
    73    84    85    2
    74    87    89    1
    75    43    44    1
    76    46    45    2
    77    50    48    1
    78    44    45    1
    79    44    47    1
    80    41    42   ar
    81    40    42   ar
    82    47    48    1
    83    48    49    1
