@<TRIPOS>MOLECULE
tmp/4kppB00.pdb
 103 99 0 0 0
SMALL
GASTEIGER

@<TRIPOS>ATOM
      1  N         29.5780   21.6460  150.2140 N.3    69  LEU69      -0.1245
      2  CA        29.7320   20.6120  151.2390 C.3    69  LEU69       0.1561
      3  C         29.1840   19.2230  150.8600 C.2    69  LEU69       0.2260
      4  O         29.8260   18.2200  151.1650 O.2    69  LEU69      -0.2867
      5  CB        29.1550   21.0680  152.5850 C.3    69  LEU69       0.0270
      6  CG        29.9780   22.0890  153.3720 C.3    69  LEU69       0.0019
      7  CD1       29.4300   22.2430  154.7860 C.3    69  LEU69       0.0001
      8  CD2       31.4520   21.7030  153.4010 C.3    69  LEU69       0.0001
      9  N         31.8820   17.4400  149.0580 N.3    72  TYR72      -0.1227
     10  CA        32.9500   17.0010  149.9490 C.3    72  TYR72       0.1736
     11  C         32.5600   15.7500  150.7360 C.2    72  TYR72       0.2595
     12  O         33.3910   14.8750  150.9790 O.2    72  TYR72      -0.2718
     13  CB        33.3500   18.1280  150.9060 C.3    72  TYR72       0.0548
     14  CG        34.3490   19.0950  150.3110 C.ar   72  TYR72      -0.0200
     15  CD1       33.9540   20.0430  149.3760 C.ar   72  TYR72      -0.0009
     16  CD2       35.6890   19.0540  150.6790 C.ar   72  TYR72      -0.0009
     17  CE1       34.8620   20.9240  148.8250 C.ar   72  TYR72       0.0417
     18  CE2       36.6080   19.9340  150.1330 C.ar   72  TYR72       0.0417
     19  CZ        36.1890   20.8670  149.2060 C.ar   72  TYR72       0.1957
     20  OH        37.0930   21.7480  148.6530 O.3    72  TYR72      -0.2866
     21  N         31.2930   15.6720  151.1300 N.am   73  ALA73      -0.1980
     22  CA        30.7990   14.5380  151.9050 C.3    73  ALA73       0.1597
     23  C         30.7370   13.2640  151.0650 C.2    73  ALA73       0.2287
     24  O         31.1680   12.1970  151.5040 O.2    73  ALA73      -0.2864
     25  CB        29.4350   14.8530  152.4790 C.3    73  ALA73       0.0319
     26  N         34.2700   12.3710  149.9430 N.3    76  GLY76      -0.1210
     27  CA        34.9360   11.9400  151.1600 C.3    76  GLY76       0.1956
     28  C         34.5280   10.5320  151.5500 C.2    76  GLY76       0.2611
     29  O         35.3550    9.7330  151.9950 O.2    76  GLY76      -0.2717
     30  N         33.2460   10.2250  151.3770 N.am   77  TYR77      -0.1976
     31  CA        32.7510    8.8790  151.6430 C.3    77  TYR77       0.1639
     32  C         33.4040    7.8560  150.7130 C.2    77  TYR77       0.2290
     33  O         33.8050    6.7760  151.1460 O.2    77  TYR77      -0.2864
     34  CB        31.2240    8.8170  151.5210 C.3    77  TYR77       0.0560
     35  CG        30.6960    7.4050  151.4920 C.ar   77  TYR77      -0.0198
     36  CD1       30.5990    6.6580  152.6580 C.ar   77  TYR77      -0.0009
     37  CD2       30.3160    6.8060  150.2950 C.ar   77  TYR77      -0.0009
     38  CE1       30.1340    5.3530  152.6370 C.ar   77  TYR77       0.0417
     39  CE2       29.8460    5.5010  150.2640 C.ar   77  TYR77       0.0417
     40  CZ        29.7570    4.7840  151.4410 C.ar   77  TYR77       0.1957
     41  OH        29.2940    3.4890  151.4310 O.3    77  TYR77      -0.2866
     42  N         36.7500    7.3940  151.8050 N.3    80  TRP80      -0.1227
     43  CA        36.7200    6.6050  153.0330 C.3    80  TRP80       0.1737
     44  C         36.5970    5.1150  152.7430 C.2    80  TRP80       0.2595
     45  O         37.3290    4.3010  153.3060 O.2    80  TRP80      -0.2718
     46  CB        35.5790    7.0400  153.9580 C.3    80  TRP80       0.0564
     47  CG        35.5400    6.2160  155.2110 C.ar   80  TRP80       0.0003
     48  CD1       34.8570    5.0470  155.4060 C.ar   80  TRP80       0.0946
     49  CD2       36.2480    6.4730  156.4290 C.ar   80  TRP80       0.0152
     50  NE1       35.0840    4.5710  156.6730 N.ar   80  TRP80      -0.2442
     51  CE2       35.9350    5.4270  157.3230 C.ar   80  TRP80       0.0810
     52  CE3       37.1090    7.4890  156.8540 C.ar   80  TRP80       0.0012
     53  CZ2       36.4530    5.3710  158.6170 C.ar   80  TRP80       0.0191
     54  CZ3       37.6210    7.4320  158.1380 C.ar   80  TRP80       0.0001
     55  CH2       37.2920    6.3800  159.0050 C.ar   80  TRP80       0.0015
     56  N         35.6570    4.7660  151.8710 N.am   81  LYS81      -0.1980
     57  CA        35.4690    3.3810  151.4590 C.3    81  LYS81       0.1596
     58  C         36.6810    2.8430  150.7060 C.2    81  LYS81       0.2287
     59  O         36.9890    1.6520  150.7810 O.2    81  LYS81      -0.2864
     60  CB        34.2180    3.2500  150.5940 C.3    81  LYS81       0.0298
     61  CG        32.9360    3.6350  151.3130 C.3    81  LYS81       0.0038
     62  CD        32.6190    2.6640  152.4350 C.3    81  LYS81       0.0206
     63  CE        32.4200    1.2570  151.8990 C.3    81  LYS81       0.1093
     64  NZ        31.9570    0.3270  152.9590 N.3    81  LYS81      -0.1314
     65  N         26.6670   13.4420  157.8670 N.3   212  LEU212     -0.1245
     66  CA        27.4250   12.2180  158.1070 C.3   212  LEU212      0.1561
     67  C         26.5320   10.9820  158.2210 C.2   212  LEU212      0.2260
     68  O         26.9550    9.8750  157.8910 O.2   212  LEU212     -0.2867
     69  CB        28.3020   12.3540  159.3550 C.3   212  LEU212      0.0270
     70  CG        29.3250   13.4930  159.3700 C.3   212  LEU212      0.0019
     71  CD1       30.3420   13.2830  160.4830 C.3   212  LEU212      0.0001
     72  CD2       30.0160   13.6420  158.0210 C.3   212  LEU212      0.0001
     73  N         25.1220   10.3850  154.1540 N.3   215  VAL215     -0.1231
     74  CA        25.9790   10.3390  152.9700 C.3   215  VAL215      0.1692
     75  C         26.1700    8.9310  152.3920 C.2   215  VAL215      0.2591
     76  O         26.1320    8.7470  151.1720 O.2   215  VAL215     -0.2718
     77  CB        27.3480   11.0260  153.2240 C.3   215  VAL215      0.0266
     78  CG1       28.0990   10.3500  154.3630 C.3   215  VAL215      0.0020
     79  CG2       28.1810   11.0410  151.9560 C.3   215  VAL215      0.0020
     80  N         26.3620    7.9430  153.2600 N.am  216  GLU216     -0.1979
     81  CA        26.5350    6.5700  152.8060 C.3   216  GLU216      0.1602
     82  C         25.2870    6.0730  152.0920 C.2   216  GLU216      0.2287
     83  O         25.3740    5.3860  151.0760 O.2   216  GLU216     -0.2864
     84  CB        26.8660    5.6440  153.9770 C.3   216  GLU216      0.0415
     85  CG        26.8080    4.1610  153.6210 C.3   216  GLU216      0.1163
     86  CD        27.0280    3.2510  154.8180 C.2   216  GLU216      0.3649
     87  OE1       27.1430    3.7600  155.9530 O.co2 216  GLU216     -0.2457
     88  OE2       27.0840    2.0200  154.6220 O.co2 216  GLU216     -0.2457
     89  N         41.7980   16.3720  150.2400 N.3   283  THR283     -0.1218
     90  CA        40.8590   15.7510  151.1690 C.3   283  THR283      0.1862
     91  C         40.6670   14.2610  150.9020 C.2   283  THR283      0.2287
     92  O         40.6890   13.4550  151.8280 O.2   283  THR283     -0.2866
     93  CB        39.4900   16.4690  151.1520 C.3   283  THR283      0.1770
     94  OG1       39.6620   17.8280  151.5710 O.3   283  THR283     -0.2211
     95  CG2       38.5130   15.7870  152.0910 C.3   283  THR283      0.0375
     96  N         41.9750   11.4000  153.4140 N.3   287  ILE287     -0.1245
     97  CA        40.9850   10.4650  153.9360 C.3   287  ILE287      0.1561
     98  C         41.3320    9.0200  153.5700 C.2   287  ILE287      0.2260
     99  O         41.1180    8.1000  154.3610 O.2   287  ILE287     -0.2867
    100  CB        39.5630   10.8250  153.4540 C.3   287  ILE287      0.0252
    101  CG1       39.0840   12.0980  154.1560 C.3   287  ILE287      0.0019
    102  CG2       38.5920    9.6770  153.7060 C.3   287  ILE287      0.0019
    103  CD1       37.7340   12.5950  153.6810 C.3   287  ILE287      0.0001
@<TRIPOS>BOND
     1    20    19    1
     2    17    19   ar
     3    17    15   ar
     4     9    10    1
     5    19    18   ar
     6    15    14   ar
     7    26    27    1
     8    10    11    1
     9    10    13    1
    10    18    16   ar
    11     1     2    1
    12    89    90    1
    13    39    37   ar
    14    39    40   ar
    15    37    35   ar
    16    14    16   ar
    17    14    13    1
    18    60    61    1
    19    60    57    1
    20    58    59    2
    21    58    57    1
    22    32    33    2
    23    32    31    1
    24    11    12    2
    25    11    21   am
    26     3     4    2
    27     3     2    1
    28    91    90    1
    29    91    92    2
    30    23    24    2
    31    23    22    1
    32    83    82    2
    33    21    22    1
    34    93    90    1
    35    93    94    1
    36    93    95    1
    37    27    28    1
    38    76    75    2
    39     2     5    1
    40    61    62    1
    41    30    28   am
    42    30    31    1
    43    41    40    1
    44    40    38   ar
    45    57    56    1
    46    35    34    1
    47    35    36   ar
    48    34    31    1
    49    28    29    2
    50    42    43    1
    51    56    44   am
    52    63    62    1
    53    63    64    1
    54    22    25    1
    55    79    77    1
    56    82    81    1
    57    75    74    1
    58    75    80   am
    59     5     6    1
    60    38    36   ar
    61    44    43    1
    62    44    45    2
    63    81    80    1
    64    81    84    1
    65    74    77    1
    66    74    73    1
    67    43    46    1
    68    77    78    1
    69     6     8    1
    70     6     7    1
    71    96    97    1
    72   100   102    1
    73   100    97    1
    74   100   101    1
    75    98    97    1
    76    98    99    2
    77    85    84    1
    78    85    86    1
    79   103   101    1
    80    46    47    1
    81    88    86   ar
    82    86    87   ar
    83    47    48   ar
    84    47    49   ar
    85    48    50   ar
    86    49    52   ar
    87    49    51   ar
    88    50    51   ar
    89    52    54   ar
    90    51    53   ar
    91    65    66    1
    92    68    67    2
    93    72    70    1
    94    66    67    1
    95    66    69    1
    96    54    55   ar
    97    53    55   ar
    98    69    70    1
    99    70    71    1
