@<TRIPOS>MOLECULE
tmp/4kppA00.pdb
 84 78 0 0 0
SMALL
GASTEIGER

@<TRIPOS>ATOM
      1  N         72.1360   12.2980  173.5870 N.3   146  LEU146     -0.1245
      2  CA        72.4810   13.2080  172.4970 C.3   146  LEU146      0.1561
      3  C         71.7600   14.5490  172.6050 C.2   146  LEU146      0.2260
      4  O         72.3460   15.6020  172.3410 O.2   146  LEU146     -0.2867
      5  CB        72.1820   12.5730  171.1370 C.3   146  LEU146      0.0270
      6  CG        73.0590   11.3990  170.7020 C.3   146  LEU146      0.0019
      7  CD1       72.8760   11.1350  169.2150 C.3   146  LEU146      0.0001
      8  CD2       74.5250   11.6460  171.0400 C.3   146  LEU146      0.0001
      9  N         73.4010   16.5090  175.5900 N.3   149  LEU149     -0.1231
     10  CA        74.6960   17.0530  175.1990 C.3   149  LEU149      0.1693
     11  C         74.5220   18.2600  174.2900 C.2   149  LEU149      0.2592
     12  O         75.2660   19.2360  174.3890 O.2   149  LEU149     -0.2718
     13  CB        75.5460   15.9930  174.4970 C.3   149  LEU149      0.0284
     14  CG        76.0310   14.8290  175.3630 C.3   149  LEU149      0.0019
     15  CD1       76.9660   13.9310  174.5710 C.3   149  LEU149      0.0001
     16  CD2       76.7060   15.3460  176.6250 C.3   149  LEU149      0.0001
     17  N         73.5300   18.1960  173.4090 N.am  150  TYR150     -0.1976
     18  CA        73.2610   19.3160  172.5210 C.3   150  TYR150      0.1639
     19  C         72.6350   20.4860  173.2730 C.2   150  TYR150      0.2290
     20  O         72.9140   21.6430  172.9710 O.2   150  TYR150     -0.2864
     21  CB        72.3660   18.9000  171.3540 C.3   150  TYR150      0.0560
     22  CG        72.3560   19.9210  170.2430 C.ar  150  TYR150     -0.0198
     23  CD1       73.3110   19.8830  169.2350 C.ar  150  TYR150     -0.0009
     24  CD2       71.4060   20.9350  170.2110 C.ar  150  TYR150     -0.0009
     25  CE1       73.3150   20.8240  168.2180 C.ar  150  TYR150      0.0417
     26  CE2       71.4020   21.8780  169.2000 C.ar  150  TYR150      0.0417
     27  CZ        72.3570   21.8180  168.2070 C.ar  150  TYR150      0.1957
     28  OH        72.3530   22.7530  167.1980 O.3   150  TYR150     -0.2866
     29  N         74.6510   23.2710  174.8780 N.3   153  THR153     -0.1218
     30  CA        75.2280   24.2980  174.0170 C.3   153  THR153      0.1862
     31  C         74.3110   25.5120  173.9160 C.2   153  THR153      0.2287
     32  O         74.6620   26.5170  173.3040 O.2   153  THR153     -0.2866
     33  CB        75.5170   23.7650  172.6010 C.3   153  THR153      0.1770
     34  OG1       74.2840   23.4610  171.9360 O.3   153  THR153     -0.2211
     35  CG2       76.3830   22.5110  172.6670 C.3   153  THR153      0.0375
     36  N         75.4200   29.9910  174.0060 N.3   157  LYS157     -0.1245
     37  CA        75.0440   30.9230  172.9510 C.3   157  LYS157      0.1561
     38  C         74.0740   31.9770  173.4630 C.2   157  LYS157      0.2260
     39  O         74.1010   33.1220  173.0170 O.2   157  LYS157     -0.2867
     40  CB        74.3870   30.1660  171.7980 C.3   157  LYS157      0.0271
     41  CG        75.2940   29.1940  171.0720 C.3   157  LYS157      0.0035
     42  CD        74.4760   28.0950  170.4140 C.3   157  LYS157      0.0206
     43  CE        73.2980   28.6700  169.6530 C.3   157  LYS157      0.1093
     44  NZ        72.4580   27.5970  169.0660 N.3   157  LYS157     -0.1314
     45  N         68.4890   28.6680  168.0950 N.3   161  SER161     -0.1217
     46  CA        68.3830   29.0550  166.6890 C.3   161  SER161      0.1889
     47  C         67.4470   28.1450  165.8880 C.2   161  SER161      0.2288
     48  O         67.1030   27.0510  166.3400 O.2   161  SER161     -0.2866
     49  CB        69.7750   29.0550  166.0500 C.3   161  SER161      0.2089
     50  OG        70.2720   27.7330  165.9440 O.3   161  SER161     -0.2183
     51  N         68.3320   26.4930  163.4700 N.3   163  PHE163     -0.1227
     52  CA        69.1350   25.3000  163.2370 C.3   163  PHE163      0.1736
     53  C         69.0700   24.3520  164.4300 C.2   163  PHE163      0.2595
     54  O         69.0220   23.1340  164.2560 O.2   163  PHE163     -0.2718
     55  CB        70.5930   25.6650  162.9360 C.3   163  PHE163      0.0547
     56  CG        71.4730   24.4710  162.6880 C.ar  163  PHE163     -0.0202
     57  CD1       71.4950   23.8560  161.4460 C.ar  163  PHE163     -0.0042
     58  CD2       72.2670   23.9550  163.7010 C.ar  163  PHE163     -0.0042
     59  CE1       72.2950   22.7530  161.2160 C.ar  163  PHE163     -0.0003
     60  CE2       73.0700   22.8520  163.4780 C.ar  163  PHE163     -0.0003
     61  CZ        73.0860   22.2490  162.2340 C.ar  163  PHE163     -0.0000
     62  N         69.0820   24.9150  165.6350 N.am  164  ASP164     -0.1974
     63  CA        68.9140   24.1280  166.8530 C.3   164  ASP164      0.1709
     64  C         67.6120   23.3470  166.7910 C.2   164  ASP164      0.2293
     65  O         67.5800   22.1520  167.0810 O.2   164  ASP164     -0.2864
     66  CB        68.8960   25.0270  168.0900 C.3   164  ASP164      0.1436
     67  CG        70.2560   25.5990  168.4160 C.2   164  ASP164      0.3671
     68  OD1       71.2740   24.9750  168.0480 O.co2 164  ASP164     -0.2456
     69  OD2       70.3060   26.6730  169.0510 O.co2 164  ASP164     -0.2456
     70  N         67.8490   20.4780  164.5280 N.3   167  VAL167     -0.1245
     71  CA        68.5600   19.3700  165.1560 C.3   167  VAL167      0.1561
     72  C         67.6440   18.5730  166.0820 C.2   167  VAL167      0.2260
     73  O         67.5350   17.3520  165.9570 O.2   167  VAL167     -0.2867
     74  CB        69.7890   19.8610  165.9500 C.3   167  VAL167      0.0252
     75  CG1       70.4570   18.7000  166.6700 C.3   167  VAL167      0.0019
     76  CG2       70.7730   20.5510  165.0230 C.3   167  VAL167      0.0019
     77  N         66.5220   14.7410  165.6380 N.3   171  LEU171     -0.1245
     78  CA        66.7630   13.7040  166.6340 C.3   171  LEU171      0.1561
     79  C         65.4940   12.9130  166.9130 C.2   171  LEU171      0.2260
     80  O         65.5170   11.6820  166.9480 O.2   171  LEU171     -0.2867
     81  CB        67.3060   14.3080  167.9310 C.3   171  LEU171      0.0270
     82  CG        68.7780   14.7310  167.9290 C.3   171  LEU171      0.0019
     83  CD1       69.1280   15.4660  169.2130 C.3   171  LEU171      0.0001
     84  CD2       69.6850   13.5240  167.7360 C.3   171  LEU171      0.0001
@<TRIPOS>BOND
     1    59    57   ar
     2    59    61   ar
     3    57    56   ar
     4    61    60   ar
     5    56    55    1
     6    56    58   ar
     7    55    52    1
     8    52    51    1
     9    52    53    1
    10    60    58   ar
    11    54    53    2
    12    53    62   am
    13    70    71    1
    14    76    74    1
    15    71    74    1
    16    71    72    1
    17    62    63    1
    18    77    78    1
    19    47    48    2
    20    47    46    1
    21    50    49    1
    22    74    75    1
    23    73    72    2
    24    49    46    1
    25    78    79    1
    26    78    81    1
    27    46    45    1
    28    64    63    1
    29    64    65    2
    30    63    66    1
    31    79    80    2
    32    28    27    1
    33    84    82    1
    34    82    81    1
    35    82    83    1
    36    68    67   ar
    37    66    67    1
    38    27    25   ar
    39    27    26   ar
    40    25    23   ar
    41    67    69   ar
    42    44    43    1
    43    26    24   ar
    44     7     6    1
    45    23    22   ar
    46    43    42    1
    47    24    22   ar
    48    22    21    1
    49    42    41    1
    50     6     8    1
    51     6     5    1
    52    41    40    1
    53     5     2    1
    54    21    18    1
    55    40    37    1
    56    34    33    1
    57     4     3    2
    58     2     3    1
    59     2     1    1
    60    18    19    1
    61    18    17    1
    62    33    35    1
    63    33    30    1
    64    37    38    1
    65    37    36    1
    66    20    19    2
    67    39    38    2
    68    32    31    2
    69    17    11   am
    70    31    30    1
    71    30    29    1
    72    11    12    2
    73    11    10    1
    74    13    10    1
    75    13    14    1
    76    15    14    1
    77    10     9    1
    78    14    16    1
