@<TRIPOS>MOLECULE
tmp/4kppB01.pdb
 185 171 0 0 0
SMALL
GASTEIGER

@<TRIPOS>ATOM
      1  N         33.8760   35.2480  150.9550 N.3    60  LEU60      -0.1245
      2  CA        33.2740   34.6250  149.7810 C.3    60  LEU60       0.1561
      3  C         33.8920   33.2600  149.4880 C.2    60  LEU60       0.2260
      4  O         33.2250   32.3720  148.9590 O.2    60  LEU60      -0.2867
      5  CB        33.3890   35.5480  148.5610 C.3    60  LEU60       0.0270
      6  CG        32.6770   35.1160  147.2740 C.3    60  LEU60       0.0019
      7  CD1       32.0010   36.3090  146.6160 C.3    60  LEU60       0.0001
      8  CD2       33.6470   34.4530  146.3050 C.3    60  LEU60       0.0001
      9  N         32.1970   31.0490  151.6350 N.3    63  VAL63      -0.1231
     10  CA        30.8640   30.9200  151.0560 C.3    63  VAL63       0.1692
     11  C         30.8900   29.8870  149.9390 C.2    63  VAL63       0.2591
     12  O         29.9790   29.0670  149.8090 O.2    63  VAL63      -0.2718
     13  CB        30.3550   32.2640  150.4820 C.3    63  VAL63       0.0266
     14  CG1       29.0360   32.0730  149.7460 C.3    63  VAL63       0.0020
     15  CG2       30.2060   33.2950  151.5830 C.3    63  VAL63       0.0020
     16  N         31.9500   29.9290  149.1400 N.am   64  ALA64      -0.1980
     17  CA        32.0910   29.0160  148.0150 C.3    64  ALA64       0.1597
     18  C         32.3750   27.5930  148.4830 C.2    64  ALA64       0.2287
     19  O         31.9770   26.6340  147.8320 O.2    64  ALA64      -0.2864
     20  CB        33.1780   29.4970  147.0710 C.3    64  ALA64       0.0319
     21  N         29.1250   26.0740  150.1900 N.3    67  ALA67      -0.1231
     22  CA        28.1040   25.8270  149.1770 C.3    67  ALA67       0.1694
     23  C         28.2340   24.4400  148.5480 C.2    67  ALA67       0.2591
     24  O         27.2670   23.9010  148.0130 O.2    67  ALA67      -0.2718
     25  CB        28.1480   26.9060  148.0990 C.3    67  ALA67       0.0304
     26  N         29.4290   23.8620  148.6130 N.am   68  VAL68      -0.1980
     27  CA        29.6730   22.5740  147.9720 C.3    68  VAL68       0.1595
     28  C         30.0030   21.4630  148.9660 C.2    68  VAL68       0.2287
     29  O         30.6280   20.4610  148.6050 O.2    68  VAL68      -0.2864
     30  CB        30.7740   22.6680  146.8950 C.3    68  VAL68       0.0276
     31  CG1       30.3360   23.6060  145.7890 C.3    68  VAL68       0.0022
     32  CG2       32.0980   23.1230  147.5080 C.3    68  VAL68       0.0022
     33  N         32.8760   16.4100  139.2520 N.3   100  ALA100     -0.1245
     34  CA        32.4060   17.6270  139.9010 C.3   100  ALA100      0.1562
     35  C         33.1660   18.8490  139.3820 C.2   100  ALA100      0.2260
     36  O         32.5600   19.8740  139.0680 O.2   100  ALA100     -0.2867
     37  CB        32.5330   17.5090  141.4120 C.3   100  ALA100      0.0290
     38  N         32.0600   19.3920  135.5270 N.3   103  LEU103     -0.1231
     39  CA        30.6780   19.8560  135.4640 C.3   103  LEU103      0.1693
     40  C         30.5710   21.3110  135.9000 C.2   103  LEU103      0.2591
     41  O         29.7930   22.0860  135.3420 O.2   103  LEU103     -0.2718
     42  CB        29.7850   19.0010  136.3640 C.3   103  LEU103      0.0284
     43  CG        29.0440   17.8280  135.7250 C.3   103  LEU103      0.0019
     44  CD1       28.4790   16.9150  136.8020 C.3   103  LEU103      0.0001
     45  CD2       27.9330   18.3330  134.8200 C.3   103  LEU103      0.0001
     46  N         31.3570   21.6690  136.9090 N.am  104  LEU104     -0.1980
     47  CA        31.3230   23.0100  137.4810 C.3   104  LEU104      0.1596
     48  C         31.7090   24.0610  136.4380 C.2   104  LEU104      0.2287
     49  O         31.0980   25.1220  136.3570 O.2   104  LEU104     -0.2864
     50  CB        32.2440   23.0720  138.7090 C.3   104  LEU104      0.0297
     51  CG        32.3950   24.3430  139.5530 C.3   104  LEU104      0.0022
     52  CD1       33.4790   25.2420  138.9920 C.3   104  LEU104      0.0001
     53  CD2       31.0840   25.1100  139.6780 C.3   104  LEU104      0.0001
     54  N         29.2920   23.1390  132.8120 N.3   107  ILE107     -0.1231
     55  CA        27.8760   23.4670  132.9330 C.3   107  ILE107      0.1692
     56  C         27.6640   24.6840  133.8230 C.2   107  ILE107      0.2592
     57  O         26.9800   25.6280  133.4410 O.2   107  ILE107     -0.2718
     58  CB        27.0630   22.2820  133.4960 C.3   107  ILE107      0.0266
     59  CG1       27.0920   21.1030  132.5210 C.3   107  ILE107      0.0019
     60  CG2       25.6290   22.7010  133.7890 C.3   107  ILE107      0.0020
     61  CD1       26.6070   21.4460  131.1270 C.3   107  ILE107      0.0001
     62  N         28.2640   24.6600  135.0080 N.am  108  GLY108     -0.1957
     63  CA        28.1150   25.7380  135.9690 C.3   108  GLY108      0.1869
     64  C         28.5610   27.0960  135.4580 C.2   108  GLY108      0.2309
     65  O         27.7660   28.0330  135.4300 O.2   108  GLY108     -0.2863
     66  N         23.3280   39.9540  151.1910 N.3   180  GLU180     -0.1245
     67  CA        23.7740   39.8810  152.5770 C.3   180  GLU180      0.1567
     68  C         23.5030   41.1900  153.3120 C.2   180  GLU180      0.2260
     69  O         23.9000   42.2600  152.8520 O.2   180  GLU180     -0.2867
     70  CB        25.2650   39.5410  152.6430 C.3   180  GLU180      0.0388
     71  CG        25.6280   38.1770  152.1900 C.3   180  GLU180      0.1160
     72  CD        27.1140   37.9540  151.9890 C.2   180  GLU180      0.3649
     73  OE1       27.9200   38.9120  152.0890 O.co2 180  GLU180     -0.2457
     74  OE2       27.5250   36.8720  151.6350 O.co2 180  GLU180     -0.2457
     75  N         27.5450   14.2550  141.3730 N.3   242  PRO242     -0.2102
     76  CA        27.8600   15.6830  141.4950 C.3   242  PRO242      0.1504
     77  C         26.6940   16.5740  141.0680 C.2   242  PRO242      0.2575
     78  O         26.4630   17.6160  141.6830 O.2   242  PRO242     -0.2718
     79  CB        29.0500   15.8600  140.5450 C.3   242  PRO242      0.0282
     80  CG        29.6710   14.5030  140.4660 C.3   242  PRO242      0.0208
     81  CD        28.5160   13.5550  140.5090 C.3   242  PRO242      0.0893
     82  N         25.9690   16.1610  140.0330 N.am  243  LEU243     -0.1980
     83  CA        24.8160   16.9130  139.5620 C.3   243  LEU243      0.1596
     84  C         23.7520   16.9940  140.6500 C.2   243  LEU243      0.2287
     85  O         23.3210   18.0810  141.0310 O.2   243  LEU243     -0.2864
     86  CB        24.2290   16.2690  138.3040 C.3   243  LEU243      0.0297
     87  CG        23.1380   17.0640  137.5800 C.3   243  LEU243      0.0022
     88  CD1       23.6950   18.3760  137.0400 C.3   243  LEU243      0.0001
     89  CD2       22.5140   16.2420  136.4610 C.3   243  LEU243      0.0001
     90  N         24.9310   19.1020  143.7060 N.3   246  GLU246     -0.1231
     91  CA        25.3470   20.4920  143.5120 C.3   246  GLU246      0.1699
     92  C         24.3440   21.3480  142.7330 C.2   246  GLU246      0.2592
     93  O         24.4410   22.5770  142.7350 O.2   246  GLU246     -0.2718
     94  CB        26.7260   20.5640  142.8530 C.3   246  GLU246      0.0402
     95  CG        27.8500   19.9650  143.6820 C.3   246  GLU246      0.1161
     96  CD        29.2090   20.5380  143.3220 C.2   246  GLU246      0.3649
     97  OE1       30.2160   19.8190  143.4740 O.co2 246  GLU246     -0.2457
     98  OE2       29.2740   21.7120  142.8980 O.co2 246  GLU246     -0.2457
     99  N         23.3900   20.7020  142.0650 N.am  247  SER247     -0.1952
    100  CA        22.3530   21.4230  141.3200 C.3   247  SER247      0.1924
    101  C         21.4920   22.3880  142.1470 C.2   247  SER247      0.2314
    102  O         21.2200   23.4950  141.6870 O.2   247  SER247     -0.2863
    103  CB        21.4570   20.4640  140.5310 C.3   247  SER247      0.2116
    104  OG        22.1800   19.8460  139.4850 O.3   247  SER247     -0.2180
    105  N         22.3120   24.1440  144.6500 N.3   249  GLU249     -0.1231
    106  CA        23.1440   25.3220  144.8760 C.3   249  GLU249      0.1699
    107  C         23.3910   26.1150  143.5960 C.2   249  GLU249      0.2592
    108  O         23.5450   27.3360  143.6310 O.2   249  GLU249     -0.2718
    109  CB        24.4740   24.9250  145.5220 C.3   249  GLU249      0.0402
    110  CG        24.4820   25.0740  147.0350 C.3   249  GLU249      0.1161
    111  CD        24.3470   26.5210  147.4700 C.2   249  GLU249      0.3649
    112  OE1       23.8310   26.7680  148.5790 O.co2 249  GLU249     -0.2457
    113  OE2       24.7610   27.4140  146.7000 O.co2 249  GLU249     -0.2457
    114  N         23.4310   25.4170  142.4680 N.am  250  LEU250     -0.1980
    115  CA        23.5800   26.0760  141.1790 C.3   250  LEU250      0.1596
    116  C         22.3620   26.9520  140.9110 C.2   250  LEU250      0.2287
    117  O         22.4820   28.0640  140.4070 O.2   250  LEU250     -0.2864
    118  CB        23.7410   25.0410  140.0670 C.3   250  LEU250      0.0297
    119  CG        23.8910   25.5940  138.6490 C.3   250  LEU250      0.0022
    120  CD1       25.1160   26.4820  138.5660 C.3   250  LEU250      0.0001
    121  CD2       23.9690   24.4640  137.6320 C.3   250  LEU250      0.0001
    122  N         20.5460   28.3000  143.1760 N.3   252  VAL252     -0.1231
    123  CA        20.7190   29.4470  144.0590 C.3   252  VAL252      0.1692
    124  C         21.5900   30.5060  143.3830 C.2   252  VAL252      0.2591
    125  O         21.3280   31.7050  143.4900 O.2   252  VAL252     -0.2718
    126  CB        21.3560   29.0350  145.4000 C.3   252  VAL252      0.0266
    127  CG1       21.5460   30.2470  146.3030 C.3   252  VAL252      0.0020
    128  CG2       20.5010   27.9820  146.0920 C.3   252  VAL252      0.0020
    129  N         22.6190   30.0510  142.6740 N.am  253  ALA253     -0.1980
    130  CA        23.5210   30.9530  141.9660 C.3   253  ALA253      0.1597
    131  C         22.8070   31.7420  140.8680 C.2   253  ALA253      0.2287
    132  O         22.9950   32.9530  140.7520 O.2   253  ALA253     -0.2864
    133  CB        24.7030   30.1870  141.3910 C.3   253  ALA253      0.0319
    134  N         20.5900   34.5720  142.2590 N.3   256  PHE256     -0.1241
    135  CA        21.2780   35.8200  142.5740 C.3   256  PHE256      0.1605
    136  C         21.6220   36.5970  141.3060 C.2   256  PHE256      0.2264
    137  O         21.6520   37.8270  141.3100 O.2   256  PHE256     -0.2867
    138  CB        22.5440   35.5460  143.3870 C.3   256  PHE256      0.0534
    139  CG        22.2850   35.1480  144.8300 C.ar  256  PHE256     -0.0203
    140  CD1       20.9900   34.9580  145.3090 C.ar  256  PHE256     -0.0042
    141  CD2       23.3450   34.8910  145.6880 C.ar  256  PHE256     -0.0042
    142  CE1       20.7500   34.5060  146.6200 C.ar  256  PHE256     -0.0003
    143  CE2       23.1210   34.4320  147.0200 C.ar  256  PHE256     -0.0003
    144  CZ        21.8180   34.2390  147.4820 C.ar  256  PHE256     -0.0000
    145  N         22.8350   40.3470  140.8400 N.3   261  ARG261     -0.1245
    146  CA        24.0340   40.1720  141.6560 C.3   261  ARG261      0.1563
    147  C         25.0350   39.2830  140.9230 C.2   261  ARG261      0.2260
    148  O         25.4970   38.2730  141.4550 O.2   261  ARG261     -0.2867
    149  CB        23.6820   39.5750  143.0210 C.3   261  ARG261      0.0307
    150  CG        22.7430   40.3700  143.8390 C.3   261  ARG261      0.0489
    151  CD        22.4510   39.6180  145.0980 C.3   261  ARG261      0.2205
    152  NE        23.6500   39.4320  145.9160 N.pl3 261  ARG261     -0.0865
    153  CZ        23.6100   39.2080  147.2240 C.cat 261  ARG261      0.5346
    154  NH1       22.4360   39.1500  147.8450 N.pl3 261  ARG261      0.1354
    155  NH2       24.7250   39.0270  147.9100 N.pl3 261  ARG261      0.1354
    156  N         28.8740   38.6070  142.2960 N.3   264  ALA264     -0.1231
    157  CA        28.8910   37.7860  143.5010 C.3   264  ALA264      0.1694
    158  C         28.7210   36.3030  143.1850 C.2   264  ALA264      0.2592
    159  O         29.3260   35.4510  143.8350 O.2   264  ALA264     -0.2718
    160  CB        27.8180   38.2520  144.4730 C.3   264  ALA264      0.0304
    161  N         27.8960   35.9990  142.1870 N.am  265  SER265     -0.1952
    162  CA        27.6750   34.6140  141.7780 C.3   265  SER265      0.1924
    163  C         28.8460   34.0750  140.9620 C.2   265  SER265      0.2314
    164  O         29.2300   32.9150  141.1080 O.2   265  SER265     -0.2863
    165  CB        26.3650   34.4710  140.9970 C.3   265  SER265      0.2116
    166  OG        25.2510   34.4340  141.8730 O.3   265  SER265     -0.2180
    167  N         31.8360   33.4270  143.3040 N.3   268  ALA268     -0.1231
    168  CA        31.5880   32.2150  144.0700 C.3   268  ALA268      0.1694
    169  C         31.8330   30.9550  143.2430 C.2   268  ALA268      0.2591
    170  O         32.3440   29.9630  143.7570 O.2   268  ALA268     -0.2718
    171  CB        30.1650   32.2200  144.6250 C.3   268  ALA268      0.0304
    172  N         31.4660   30.9980  141.9650 N.am  269  LEU269     -0.1980
    173  CA        31.6350   29.8440  141.0810 C.3   269  LEU269      0.1596
    174  C         33.1010   29.5950  140.7750 C.2   269  LEU269      0.2287
    175  O         33.5320   28.4540  140.6120 O.2   269  LEU269     -0.2864
    176  CB        30.8780   30.0450  139.7690 C.3   269  LEU269      0.0297
    177  CG        29.3630   29.8630  139.8040 C.3   269  LEU269      0.0022
    178  CD1       28.8060   29.9670  138.3990 C.3   269  LEU269      0.0001
    179  CD2       28.9940   28.5300  140.4320 C.3   269  LEU269      0.0001
    180  N         34.7080   28.4630  144.0560 N.3   272  SER272     -0.1217
    181  CA        34.2990   27.0790  144.2510 C.3   272  SER272      0.1889
    182  C         35.2170   26.1500  143.4570 C.2   272  SER272      0.2288
    183  O         35.5860   25.0680  143.9220 O.2   272  SER272     -0.2866
    184  CB        32.8400   26.8980  143.8230 C.3   272  SER272      0.2089
    185  OG        32.4350   25.5470  143.9150 O.3   272  SER272     -0.2183
@<TRIPOS>BOND
     1    61    59    1
     2    59    58    1
     3    54    55    1
     4    55    58    1
     5    55    56    1
     6    57    56    2
     7    58    60    1
     8    56    62   am
     9    45    43    1
    10    62    63    1
    11    41    40    2
    12    65    64    2
    13    64    63    1
    14    39    38    1
    15    39    40    1
    16    39    42    1
    17    43    42    1
    18    43    44    1
    19    40    46   am
    20    49    48    2
    21    48    47    1
    22    89    87    1
    23    46    47    1
    24    88    87    1
    25    47    50    1
    26    87    86    1
    27   121   119    1
    28    86    83    1
    29   178   177    1
    30   120   119    1
    31   119   118    1
    32    50    51    1
    33    52    51    1
    34    36    35    2
    35    33    34    1
    36    35    34    1
    37   104   103    1
    38    51    53    1
    39    83    82    1
    40    83    84    1
    41   176   177    1
    42   176   173    1
    43   177   179    1
    44    34    37    1
    45    82    77   am
    46   118   115    1
    47   117   116    2
    48    80    81    1
    49    80    79    1
    50    81    75    1
    51   103   100    1
    52    79    76    1
    53   175   174    2
    54    84    85    2
    55   132   131    2
    56   174   173    1
    57   145   146    1
    58   131   130    1
    59   116   115    1
    60   147   148    2
    61   147   146    1
    62   163   164    2
    63   163   162    1
    64   165   162    1
    65   165   166    1
    66    77    76    1
    67    77    78    2
    68   173   172    1
    69   115   114    1
    70   136   137    2
    71   136   135    1
    72   100    99    1
    73   100   101    1
    74    75    76    1
    75   133   130    1
    76   146   149    1
    77   102   101    2
    78   162   161    1
    79   172   169   am
    80   130   129    1
    81    99    92   am
    82   161   158   am
    83   134   135    1
    84   156   157    1
    85   114   107   am
    86   135   138    1
    87   129   124   am
    88    92    93    2
    89    92    91    1
    90    94    91    1
    91    94    95    1
    92    98    96   ar
    93   149   150    1
    94   122   123    1
    95   158   157    1
    96   158   159    2
    97   169   170    2
    98   169   168    1
    99   167   168    1
   100    96    97   ar
   101    96    95    1
   102   124   125    2
   103   124   123    1
   104   138   139    1
   105   182   183    2
   106   182   181    1
   107   157   160    1
   108    91    90    1
   109   107   108    2
   110   107   106    1
   111   184   185    1
   112   184   181    1
   113   150   151    1
   114   180   181    1
   115   123   126    1
   116   168   171    1
   117   105   106    1
   118   139   140   ar
   119   139   141   ar
   120   106   109    1
   121   151   152    1
   122   140   142   ar
   123   126   128    1
   124   126   127    1
   125   109   110    1
   126   141   143   ar
   127    31    30    1
   128   152   153    2
   129     8     6    1
   130     7     6    1
   131   142   144   ar
   132   113   111   ar
   133    30    32    1
   134    30    27    1
   135   143   144   ar
   136   110   111    1
   137    20    17    1
   138   153   154    1
   139   153   155    1
   140     6     5    1
   141   111   112   ar
   142    19    18    2
   143    27    26    1
   144    27    28    1
   145    24    23    2
   146    17    18    1
   147    17    16    1
   148    25    22    1
   149    23    26   am
   150    23    22    1
   151     5     2    1
   152    29    28    2
   153     4     3    2
   154    16    11   am
   155    22    21    1
   156     3     2    1
   157    14    13    1
   158     2     1    1
   159    12    11    2
   160    11    10    1
   161    13    10    1
   162    13    15    1
   163    10     9    1
   164    66    67    1
   165    74    72   ar
   166    72    73   ar
   167    72    71    1
   168    71    70    1
   169    67    70    1
   170    67    68    1
   171    69    68    2
