@<TRIPOS>MOLECULE
tmp/4kprB02.pdb
 75 72 0 0 0
SMALL
GASTEIGER

@<TRIPOS>ATOM
      1  N       -130.3680   47.0020   31.9830 N.3    40  LEU40      -0.1231
      2  CA      -130.0500   46.5990   33.3500 C.3    40  LEU40       0.1693
      3  C       -129.3330   47.6800   34.1540 C.2    40  LEU40       0.2593
      4  O       -128.9550   47.4550   35.2810 O.2    40  LEU40      -0.2718
      5  CB      -129.2030   45.3350   33.3230 C.3    40  LEU40       0.0284
      6  CG      -130.0750   44.1590   32.8330 C.3    40  LEU40       0.0019
      7  CD1     -129.2360   42.9430   32.6740 C.3    40  LEU40       0.0001
      8  CD2     -131.2820   43.8210   33.7520 C.3    40  LEU40       0.0001
      9  N       -129.1980   48.8730   33.6040 N.am   41  GLY41      -0.1942
     10  CA      -128.6990   50.0100   34.3790 C.3    41  GLY41       0.2014
     11  C       -127.2080   50.3780   34.1780 C.2    41  GLY41       0.2639
     12  O       -126.7200   51.2360   34.8710 O.2    41  GLY41      -0.2714
     13  N       -126.4970   49.7880   33.2350 N.am   42  THR42      -0.1950
     14  CA      -125.0850   50.1110   33.0850 C.3    42  THR42       0.1897
     15  C       -124.8610   51.4170   32.3600 C.2    42  THR42       0.2313
     16  O       -125.4900   51.6670   31.3760 O.2    42  THR42      -0.2863
     17  CB      -124.3510   49.0010   32.3400 C.3    42  THR42       0.1794
     18  OG1     -124.6710   47.7550   32.9290 O.3    42  THR42      -0.2208
     19  CG2     -122.9110   49.1670   32.4350 C.3    42  THR42       0.0378
     20  N       -127.3570   39.9790   28.7510 N.3   169  ILE169     -0.1245
     21  CA      -126.5020   41.1350   28.6410 C.3   169  ILE169      0.1561
     22  C       -126.0240   41.3440   27.2060 C.2   169  ILE169      0.2260
     23  O       -126.1200   40.4550   26.3680 O.2   169  ILE169     -0.2867
     24  CB      -125.2510   41.0050   29.5300 C.3   169  ILE169      0.0252
     25  CG1     -124.3970   39.8280   29.1220 C.3   169  ILE169      0.0019
     26  CG2     -125.6470   40.8520   31.0020 C.3   169  ILE169      0.0019
     27  CD1     -123.0870   39.7140   29.8980 C.3   169  ILE169      0.0001
     28  N       -122.7420   45.7560   28.8530 N.3   173  ASP173     -0.1239
     29  CA      -122.6710   45.3360   30.2330 C.3   173  ASP173      0.1674
     30  C       -121.4350   44.4310   30.4920 C.2   173  ASP173      0.2266
     31  O       -120.9600   44.3240   31.6160 O.2   173  ASP173     -0.2867
     32  CB      -123.9220   44.5350   30.6510 C.3   173  ASP173      0.1410
     33  CG      -125.2280   45.2110   30.2780 C.2   173  ASP173      0.3668
     34  OD1     -125.5730   46.1980   30.9800 O.co2 173  ASP173     -0.2456
     35  OD2     -125.9120   44.7350   29.3160 O.co2 173  ASP173     -0.2456
     36  N       -117.9280   45.6370   32.3510 N.3   176  SER176     -0.1202
     37  CA      -117.8990   46.0490   33.7580 C.3   176  SER176      0.2020
     38  C       -118.7010   45.0990   34.6180 C.2   176  SER176      0.2619
     39  O       -119.0510   45.4190   35.7420 O.2   176  SER176     -0.2717
     40  CB      -118.4890   47.4600   33.9370 C.3   176  SER176      0.2103
     41  OG      -119.8130   47.5060   33.4150 O.3   176  SER176     -0.2182
     42  N       -118.9800   43.9300   34.0910 N.am  177  LEU177     -0.1966
     43  CA      -119.7690   42.9760   34.8330 C.3   177  LEU177      0.1713
     44  C       -119.1330   42.6970   36.2050 C.2   177  LEU177      0.2458
     45  O       -117.9870   42.2730   36.2850 O.2   177  LEU177     -0.2730
     46  CB      -119.8720   41.6710   34.0080 C.3   177  LEU177      0.0310
     47  CG      -121.0730   40.8380   34.3280 C.3   177  LEU177      0.0022
     48  CD1     -122.3650   41.5900   33.9360 C.3   177  LEU177      0.0001
     49  CD2     -120.9710   39.5160   33.6110 C.3   177  LEU177      0.0001
     50  N       -119.9170   42.8090   37.2730 N.am  178  PRO178     -0.2716
     51  CA      -119.4280   42.6600   38.6400 C.3   178  PRO178      0.1536
     52  C       -119.3490   41.2370   39.1320 C.2   178  PRO178      0.2598
     53  O       -119.0390   41.0370   40.2910 O.2   178  PRO178     -0.2715
     54  CB      -120.4380   43.4370   39.5060 C.3   178  PRO178      0.0310
     55  CG      -121.7260   43.4140   38.7220 C.3   178  PRO178      0.0237
     56  CD      -121.2800   43.3850   37.2320 C.3   178  PRO178      0.0939
     57  N       -119.4920   40.2500   38.2570 N.am  179  TYR179     -0.1974
     58  CA      -119.2910   38.8480   38.6230 C.3   179  TYR179      0.1639
     59  C       -118.7920   38.1240   37.3690 C.2   179  TYR179      0.2290
     60  O       -118.9830   38.5860   36.2710 O.2   179  TYR179     -0.2864
     61  CB      -120.6040   38.2340   39.1180 C.3   179  TYR179      0.0560
     62  CG      -121.7710   38.4280   38.1400 C.ar  179  TYR179     -0.0198
     63  CD1     -121.9260   37.5860   37.0770 C.ar  179  TYR179     -0.0009
     64  CD2     -122.6760   39.4770   38.2590 C.ar  179  TYR179     -0.0009
     65  CE1     -122.9580   37.7280   36.1850 C.ar  179  TYR179      0.0417
     66  CE2     -123.7200   39.6560   37.3380 C.ar  179  TYR179      0.0417
     67  CZ      -123.8760   38.7580   36.3180 C.ar  179  TYR179      0.1957
     68  OH      -124.8200   38.8690   35.3070 O.3   179  TYR179     -0.2866
     69  N       -125.7340   35.8990   40.9080 N.3   254  THR254     -0.1218
     70  CA      -124.6430   36.6310   40.2490 C.3   254  THR254      0.1862
     71  C       -123.4430   35.7030   40.0120 C.2   254  THR254      0.2287
     72  O       -122.3990   35.8380   40.6370 O.2   254  THR254     -0.2866
     73  CB      -124.1850   37.8160   41.1060 C.3   254  THR254      0.1770
     74  OG1     -123.7620   37.3180   42.3840 O.3   254  THR254     -0.2211
     75  CG2     -125.3290   38.8340   41.2600 C.3   254  THR254      0.0375
@<TRIPOS>BOND
     1    23    22    2
     2    22    21    1
     3    21    20    1
     4    21    24    1
     5    28    29    1
     6    25    24    1
     7    25    27    1
     8    35    33   ar
     9    24    26    1
    10    29    30    1
    11    29    32    1
    12    33    32    1
    13    33    34   ar
    14    30    31    2
    15    16    15    2
    16     1     2    1
    17    17    19    1
    18    17    18    1
    19    17    14    1
    20    36    37    1
    21    15    14    1
    22     7     6    1
    23     6     5    1
    24     6     8    1
    25    14    13    1
    26    13    11   am
    27     5     2    1
    28     2     3    1
    29    41    40    1
    30     9     3   am
    31     9    10    1
    32    49    47    1
    33    37    40    1
    34    37    38    1
    35    48    47    1
    36    46    47    1
    37    46    43    1
    38    42    38   am
    39    42    43    1
    40     3     4    2
    41    11    10    1
    42    11    12    2
    43    38    39    2
    44    43    44    1
    45    68    67    1
    46    65    67   ar
    47    65    63   ar
    48    44    45    2
    49    44    50   am
    50    60    59    2
    51    67    66   ar
    52    63    62   ar
    53    56    50    1
    54    56    55    1
    55    50    51    1
    56    66    64   ar
    57    59    58    1
    58    62    64   ar
    59    62    61    1
    60    57    58    1
    61    57    52   am
    62    58    61    1
    63    51    52    1
    64    51    54    1
    65    55    54    1
    66    52    53    2
    67    71    70    1
    68    71    72    2
    69    70    69    1
    70    70    73    1
    71    73    75    1
    72    73    74    1
