@<TRIPOS>MOLECULE
tmp/4kprB01.pdb
 90 84 0 0 0
SMALL
GASTEIGER

@<TRIPOS>ATOM
      1  N       -125.5410   30.5430   16.2840 N.3   211  VAL211     -0.1245
      2  CA      -125.3350   31.2300   15.0040 C.3   211  VAL211      0.1561
      3  C       -126.5680   31.0730   14.1510 C.2   211  VAL211      0.2260
      4  O       -127.0470   29.9560   13.9170 O.2   211  VAL211     -0.2867
      5  CB      -124.1860   30.5460   14.2360 C.3   211  VAL211      0.0252
      6  CG1     -123.9670   31.1510   12.8900 C.3   211  VAL211      0.0019
      7  CG2     -122.9300   30.6880   15.0380 C.3   211  VAL211      0.0019
      8  N       -126.9800   32.0480   10.7530 N.3   213  SER213     -0.1202
      9  CA      -126.6540   31.5370    9.4230 C.3   213  SER213      0.2020
     10  C       -125.1440   31.2700    9.2980 C.2   213  SER213      0.2619
     11  O       -124.7140   30.1500    9.5320 O.2   213  SER213     -0.2717
     12  CB      -127.2010   32.4560    8.2960 C.3   213  SER213      0.2103
     13  OG      -126.6910   33.7580    8.3760 O.3   213  SER213     -0.2182
     14  N       -124.3570   32.3080    9.0440 N.am  214  ILE214     -0.1965
     15  CA      -122.9260   32.1700    8.8050 C.3   214  ILE214      0.1727
     16  C       -122.1040   33.0070    9.7650 C.2   214  ILE214      0.2616
     17  O       -122.6040   33.9140   10.4130 O.2   214  ILE214     -0.2715
     18  CB      -122.5380   32.5550    7.3500 C.3   214  ILE214      0.0290
     19  CG1     -122.8210   34.0320    7.1020 C.3   214  ILE214      0.0022
     20  CG2     -123.2940   31.6980    6.3190 C.3   214  ILE214      0.0023
     21  CD1     -122.3510   34.5510    5.7450 C.3   214  ILE214      0.0001
     22  N       -120.8020   32.7200    9.8250 N.am  215  LEU215     -0.1977
     23  CA      -119.8960   33.5470   10.6260 C.3   215  LEU215      0.1596
     24  C       -119.4180   34.7360    9.8280 C.2   215  LEU215      0.2287
     25  O       -119.1310   34.6290    8.6550 O.2   215  LEU215     -0.2864
     26  CB      -118.6540   32.7390   11.0550 C.3   215  LEU215      0.0297
     27  CG      -118.9150   31.4290   11.7370 C.3   215  LEU215      0.0022
     28  CD1     -117.5960   30.8340   12.2130 C.3   215  LEU215      0.0001
     29  CD2     -119.8300   31.6140   12.9220 C.3   215  LEU215      0.0001
     30  N       -114.4340   30.7930    8.1880 N.3   225  ASN225     -0.1240
     31  CA      -114.5180   29.3760    8.5450 C.3   225  ASN225      0.1653
     32  C       -113.2800   28.8470    9.2500 C.2   225  ASN225      0.2266
     33  O       -113.3930   28.0490   10.1780 O.2   225  ASN225     -0.2867
     34  CB      -114.8910   28.5200    7.3460 C.3   225  ASN225      0.1155
     35  CG      -116.3840   28.7590    6.9080 C.2   225  ASN225      0.2627
     36  OD1     -117.2690   29.3170    7.6800 O.2   225  ASN225     -0.2716
     37  ND2     -116.6460   28.4340    5.6570 N.am  225  ASN225     -0.0877
     38  N       -113.5800   30.0020   12.8970 N.3   228  GLY228     -0.1210
     39  CA      -114.5130   29.1480   13.5920 C.3   228  GLY228      0.1956
     40  C       -114.0060   27.7760   13.9070 C.2   228  GLY228      0.2611
     41  O       -114.1830   27.2970   15.0360 O.2   228  GLY228     -0.2717
     42  N       -113.3710   27.1360   12.9360 N.am  229  GLU229     -0.1979
     43  CA      -112.7690   25.8020   13.1700 C.3   229  GLU229      0.1602
     44  C       -111.7170   25.8810   14.2820 C.2   229  GLU229      0.2287
     45  O       -111.6780   25.0570   15.1640 O.2   229  GLU229     -0.2864
     46  CB      -112.1310   25.2200   11.9280 C.3   229  GLU229      0.0415
     47  CG      -113.1610   24.7640   10.8940 C.3   229  GLU229      0.1163
     48  CD      -112.5670   24.5090    9.4920 C.2   229  GLU229      0.3649
     49  OE1     -111.4610   23.9050    9.4050 O.co2 229  GLU229     -0.2457
     50  OE2     -113.1900   24.9330    8.4800 O.co2 229  GLU229     -0.2457
     51  N       -113.5130   26.1770   17.6490 N.3   232  GLU232     -0.1245
     52  CA      -114.1360   24.8780   17.9790 C.3   232  GLU232      0.1567
     53  C       -113.0960   23.8900   18.4560 C.2   232  GLU232      0.2260
     54  O       -113.2990   23.2000   19.4120 O.2   232  GLU232     -0.2867
     55  CB      -114.8720   24.3320   16.7570 C.3   232  GLU232      0.0388
     56  CG      -115.9260   23.2690   17.0390 C.3   232  GLU232      0.1160
     57  CD      -116.6560   22.7740   15.7690 C.2   232  GLU232      0.3649
     58  OE1     -115.9800   22.5670   14.7310 O.co2 232  GLU232     -0.2457
     59  OE2     -117.8990   22.6020   15.8040 O.co2 232  GLU232     -0.2457
     60  N       -120.4490   25.3360   18.9820 N.3   238  PHE238     -0.1241
     61  CA      -121.2810   26.0820   18.0430 C.3   238  PHE238      0.1605
     62  C       -122.6050   25.4140   17.8640 C.2   238  PHE238      0.2264
     63  O       -122.6700   24.2170   17.7310 O.2   238  PHE238     -0.2867
     64  CB      -120.6110   26.2140   16.6920 C.3   238  PHE238      0.0534
     65  CG      -119.5170   27.1960   16.6830 C.ar  238  PHE238     -0.0203
     66  CD1     -118.2500   26.8500   17.1260 C.ar  238  PHE238     -0.0042
     67  CD2     -119.7520   28.4870   16.2920 C.ar  238  PHE238     -0.0042
     68  CE1     -117.2250   27.8030   17.1380 C.ar  238  PHE238     -0.0003
     69  CE2     -118.7660   29.4390   16.3170 C.ar  238  PHE238     -0.0003
     70  CZ      -117.5040   29.1180   16.7430 C.ar  238  PHE238     -0.0000
     71  N       -125.6810   25.6470   15.2950 N.3   240  ARG240     -0.1231
     72  CA      -125.7500   26.1510   13.9220 C.3   240  ARG240      0.1694
     73  C       -127.1900   26.2740   13.4650 C.2   240  ARG240      0.2591
     74  O       -127.9790   25.3320   13.5790 O.2   240  ARG240     -0.2718
     75  CB      -125.0080   25.1720   13.0080 C.3   240  ARG240      0.0321
     76  CG      -123.4860   25.3130   13.0400 C.3   240  ARG240      0.0489
     77  CD      -122.7520   24.1070   12.4060 C.3   240  ARG240      0.2205
     78  NE      -122.2870   23.2820   13.5160 N.pl3 240  ARG240     -0.0865
     79  CZ      -121.0400   23.1520   13.9450 C.cat 240  ARG240      0.5346
     80  NH1     -120.0000   23.6620   13.3170 N.pl3 240  ARG240      0.1354
     81  NH2     -120.8610   22.4790   15.0430 N.pl3 240  ARG240      0.1354
     82  N       -127.5420   27.4470   12.9730 N.am  241  GLN241     -0.1979
     83  CA      -128.8550   27.6750   12.3650 C.3   241  GLN241      0.1601
     84  C       -129.9890   27.6040   13.4150 C.2   241  GLN241      0.2287
     85  O       -131.0430   27.0040   13.1970 O.2   241  GLN241     -0.2864
     86  CB      -129.1070   26.7710   11.1400 C.3   241  GLN241      0.0394
     87  CG      -128.2820   27.1280    9.9210 C.3   241  GLN241      0.0908
     88  CD      -126.9150   26.4640    9.9660 C.2   241  GLN241      0.2608
     89  OE1     -126.8350   25.2420    9.9820 O.2   241  GLN241     -0.2717
     90  NE2     -125.8040   27.2810    9.9920 N.am  241  GLN241     -0.0878
@<TRIPOS>BOND
     1    37    35   am
     2    21    19    1
     3    20    18    1
     4    35    34    1
     5    35    36    2
     6    19    18    1
     7    34    31    1
     8    18    15    1
     9    30    31    1
    10    12    13    1
    11    12     9    1
    12    50    48   ar
    13    31    32    1
    14    25    24    2
    15    15    14    1
    16    15    16    1
    17    14    10   am
    18    32    33    2
    19    10     9    1
    20    10    11    2
    21    49    48   ar
    22     9     8    1
    23    48    47    1
    24    16    22   am
    25    16    17    2
    26    22    23    1
    27    24    23    1
    28    87    88    1
    29    87    86    1
    30    88    89    2
    31    88    90   am
    32    23    26    1
    33    47    46    1
    34    26    27    1
    35    86    83    1
    36    27    28    1
    37    27    29    1
    38    46    43    1
    39    83    82    1
    40    83    84    1
    41    77    76    1
    42    77    78    1
    43     6     5    1
    44    38    39    1
    45    42    43    1
    46    42    40   am
    47    82    73   am
    48    75    76    1
    49    75    72    1
    50    43    44    1
    51    85    84    2
    52    80    79    1
    53    73    74    2
    54    73    72    1
    55    78    79    2
    56    39    40    1
    57    40    41    2
    58     4     3    2
    59    72    71    1
    60    79    81    1
    61     3     2    1
    62     5     2    1
    63     5     7    1
    64    44    45    2
    65    58    57   ar
    66     2     1    1
    67    57    59   ar
    68    57    56    1
    69    67    69   ar
    70    67    65   ar
    71    69    70   ar
    72    65    64    1
    73    65    66   ar
    74    64    61    1
    75    70    68   ar
    76    55    56    1
    77    55    52    1
    78    66    68   ar
    79    51    52    1
    80    63    62    2
    81    62    61    1
    82    52    53    1
    83    61    60    1
    84    53    54    2
