@<TRIPOS>MOLECULE
tmp/4kpsA00.pdb
 133 128 0 0 0
SMALL
GASTEIGER

@<TRIPOS>ATOM
      1  N         -0.4500   10.7260   -9.8430 N.3    93  TYR93      -0.1241
      2  CA        -1.7410   10.6870  -10.5120 C.3    93  TYR93       0.1605
      3  C         -2.4060    9.3420  -10.2520 C.2    93  TYR93       0.2264
      4  O         -1.7640    8.3010  -10.3690 O.2    93  TYR93      -0.2867
      5  CB        -1.5740   10.9020  -12.0150 C.3    93  TYR93       0.0534
      6  CG        -2.8490   11.3070  -12.7140 C.ar   93  TYR93      -0.0201
      7  CD1       -3.1190   12.6400  -12.9810 C.ar   93  TYR93      -0.0009
      8  CD2       -3.7870   10.3590  -13.0970 C.ar   93  TYR93      -0.0009
      9  CE1       -4.2800   13.0180  -13.6160 C.ar   93  TYR93       0.0417
     10  CE2       -4.9550   10.7290  -13.7320 C.ar   93  TYR93       0.0417
     11  CZ        -5.1950   12.0600  -13.9870 C.ar   93  TYR93       0.1957
     12  OH        -6.3540   12.4380  -14.6200 O.3    93  TYR93      -0.2866
     13  N          1.0390   17.0920  -21.8800 N.3   130  GLY130     -0.1210
     14  CA         0.0810   17.3900  -20.8340 C.3   130  GLY130      0.1956
     15  C          0.6590   17.2710  -19.4410 C.2   130  GLY130      0.2613
     16  O          1.3920   16.3300  -19.1340 O.2   130  GLY130     -0.2717
     17  N          0.3320   18.2380  -18.5930 N.am  131  THR131     -0.1938
     18  CA         0.7640   18.2120  -17.2050 C.3   131  THR131      0.2028
     19  C         -0.4610   18.0950  -16.3090 C.2   131  THR131      0.2643
     20  O         -1.5800   17.9560  -16.8020 O.2   131  THR131     -0.2714
     21  CB         1.5630   19.4730  -16.8410 C.3   131  THR131      0.1808
     22  OG1        0.7340   20.6300  -17.0060 O.3   131  THR131     -0.2208
     23  CG2        2.7890   19.5990  -17.7360 C.3   131  THR131      0.0379
     24  N         -0.2540   18.1430  -14.9980 N.am  132  THR132     -0.1936
     25  CA        -1.3650   18.0410  -14.0580 C.3   132  THR132      0.2028
     26  C         -0.9900   18.5530  -12.6730 C.2   132  THR132      0.2642
     27  O          0.1800   18.5450  -12.2910 O.2   132  THR132     -0.2714
     28  CB        -1.8920   16.5930  -13.9450 C.3   132  THR132      0.1808
     29  OG1       -2.9430   16.5380  -12.9720 O.3   132  THR132     -0.2208
     30  CG2       -0.7770   15.6450  -13.5310 C.3   132  THR132      0.0379
     31  N         -1.9950   19.0000  -11.9270 N.am  133  SER133     -0.1949
     32  CA        -1.7810   19.5380  -10.5900 C.3   133  SER133      0.1924
     33  C         -1.5550   18.4190   -9.5830 C.2   133  SER133      0.2314
     34  O         -1.2110   18.6710   -8.4290 O.2   133  SER133     -0.2863
     35  CB        -2.9770   20.3850  -10.1590 C.3   133  SER133      0.2116
     36  OG        -4.1470   19.5900  -10.0500 O.3   133  SER133     -0.2180
     37  N          2.8470   22.7370  -12.3910 N.3   142  ASN142     -0.1240
     38  CA         2.2570   21.4950  -12.8750 C.3   142  ASN142      0.1653
     39  C          3.2290   20.7370  -13.7680 C.2   142  ASN142      0.2266
     40  O          3.8650   21.3200  -14.6470 O.2   142  ASN142     -0.2867
     41  CB         0.9540   21.7670  -13.6280 C.3   142  ASN142      0.1155
     42  CG        -0.1850   22.1360  -12.7030 C.2   142  ASN142      0.2627
     43  OD1       -0.0020   22.2590  -11.4920 O.2   142  ASN142     -0.2716
     44  ND2       -1.3730   22.3100  -13.2690 N.am  142  ASN142     -0.0877
     45  N          2.7650   12.7040  -21.3850 N.3   150  TRP150     -0.1241
     46  CA         1.3200   12.6580  -21.5700 C.3   150  TRP150      0.1605
     47  C          0.9220   13.4180  -22.8290 C.2   150  TRP150      0.2264
     48  O          0.6980   14.6270  -22.7870 O.2   150  TRP150     -0.2867
     49  CB         0.6140   13.2630  -20.3570 C.3   150  TRP150      0.0550
     50  CG        -0.8610   13.0110  -20.3190 C.ar  150  TRP150      0.0003
     51  CD1       -1.6260   12.4540  -21.3020 C.ar  150  TRP150      0.0946
     52  CD2       -1.7520   13.3090  -19.2390 C.ar  150  TRP150      0.0152
     53  NE1       -2.9380   12.3850  -20.8990 N.ar  150  TRP150     -0.2442
     54  CE2       -3.0410   12.9050  -19.6360 C.ar  150  TRP150      0.0810
     55  CE3       -1.5830   13.8790  -17.9730 C.ar  150  TRP150      0.0012
     56  CZ2       -4.1550   13.0520  -18.8140 C.ar  150  TRP150      0.0191
     57  CZ3       -2.6890   14.0250  -17.1590 C.ar  150  TRP150      0.0001
     58  CH2       -3.9590   13.6130  -17.5820 C.ar  150  TRP150      0.0015
     59  N         -1.2930   14.8690  -25.7890 N.3   152  ILE152     -0.1245
     60  CA        -2.6700   15.3110  -25.9900 C.3   152  ILE152      0.1561
     61  C         -2.8490   15.9970  -27.3410 C.2   152  ILE152      0.2260
     62  O         -1.8870   16.1700  -28.0910 O.2   152  ILE152     -0.2867
     63  CB        -3.1400   16.2520  -24.8660 C.3   152  ILE152      0.0252
     64  CG1       -2.1130   17.3600  -24.6290 C.3   152  ILE152      0.0019
     65  CG2       -3.3820   15.4680  -23.5860 C.3   152  ILE152      0.0019
     66  CD1       -2.5420   18.3680  -23.5930 C.3   152  ILE152      0.0001
     67  N         -3.9880    6.1400  -20.2870 N.3   180  HIS180     -0.1241
     68  CA        -4.8760    6.9650  -19.4790 C.3   180  HIS180      0.1621
     69  C         -6.3410    6.6800  -19.7930 C.2   180  HIS180      0.2264
     70  O         -6.7650    6.7460  -20.9480 O.2   180  HIS180     -0.2867
     71  CB        -4.5760    8.4520  -19.6660 C.3   180  HIS180      0.0745
     72  CG        -5.5840    9.3500  -19.0210 C.ar  180  HIS180      0.0817
     73  ND1       -6.3890   10.2070  -19.7410 N.ar  180  HIS180     -0.2268
     74  CD2       -5.9340    9.5090  -17.7220 C.ar  180  HIS180      0.1154
     75  CE1       -7.1820   10.8640  -18.9130 C.ar  180  HIS180      0.1986
     76  NE2       -6.9270   10.4570  -17.6820 N.ar  180  HIS180     -0.2212
     77  N         -9.8620    8.1160  -19.1780 N.3   182  PRO182     -0.2102
     78  CA       -10.5880    9.3240  -18.7690 C.3   182  PRO182      0.1504
     79  C        -11.8730    9.0100  -18.0030 C.2   182  PRO182      0.2575
     80  O        -12.3140    7.8620  -17.9710 O.2   182  PRO182     -0.2718
     81  CB       -10.9120   10.0040  -20.1050 C.3   182  PRO182      0.0282
     82  CG        -9.9170    9.4470  -21.0730 C.3   182  PRO182      0.0208
     83  CD        -9.7210    8.0310  -20.6420 C.3   182  PRO182      0.0893
     84  N        -12.4640   10.0350  -17.3960 N.am  183  VAL183     -0.1980
     85  CA       -13.6700    9.8680  -16.5890 C.3   183  VAL183      0.1595
     86  C        -14.9090    9.5800  -17.4290 C.2   183  VAL183      0.2287
     87  O        -15.8820    9.0120  -16.9320 O.2   183  VAL183     -0.2864
     88  CB       -13.9430   11.1070  -15.7110 C.3   183  VAL183      0.0276
     89  CG1      -12.8910   11.2300  -14.6210 C.3   183  VAL183      0.0022
     90  CG2      -13.9920   12.3650  -16.5620 C.3   183  VAL183      0.0022
     91  N        -14.4900   13.4470  -21.8070 N.3   187  GLU187     -0.1245
     92  CA       -13.1380   13.8850  -21.4870 C.3   187  GLU187      0.1567
     93  C        -12.1160   13.3430  -22.4810 C.2   187  GLU187      0.2260
     94  O        -11.1550   14.0310  -22.8200 O.2   187  GLU187     -0.2867
     95  CB       -12.7620   13.4920  -20.0560 C.3   187  GLU187      0.0388
     96  CG       -12.6790   14.6670  -19.0870 C.3   187  GLU187      0.1160
     97  CD       -13.9670   15.4740  -19.0170 C.2   187  GLU187      0.3649
     98  OE1      -13.8840   16.7130  -18.8750 O.co2 187  GLU187     -0.2457
     99  OE2      -15.0600   14.8720  -19.1040 O.co2 187  GLU187     -0.2457
    100  N         -9.6620   15.6050  -24.6270 N.3   191  LEU191     -0.1245
    101  CA        -8.2190   15.3960  -24.5280 C.3   191  LEU191      0.1561
    102  C         -7.5820   14.8210  -25.7920 C.2   191  LEU191      0.2260
    103  O         -6.4690   15.2010  -26.1580 O.2   191  LEU191     -0.2867
    104  CB        -7.8920   14.4960  -23.3320 C.3   191  LEU191      0.0270
    105  CG        -8.0100   15.1220  -21.9420 C.3   191  LEU191      0.0019
    106  CD1       -7.8380   14.0650  -20.8710 C.3   191  LEU191      0.0001
    107  CD2       -6.9820   16.2250  -21.7720 C.3   191  LEU191      0.0001
    108  N         -7.7840   14.3390   -8.9900 N.3   223  GLN223     -0.1231
    109  CA        -8.2290   13.6930  -10.2090 C.3   223  GLN223      0.1698
    110  C         -9.1610   12.5310   -9.9360 C.2   223  GLN223      0.2592
    111  O         -9.2430   12.0220   -8.8160 O.2   223  GLN223     -0.2718
    112  CB        -7.0280   13.2430  -11.0330 C.3   223  GLN223      0.0381
    113  CG        -6.0910   14.3840  -11.3660 C.3   223  GLN223      0.0905
    114  CD        -6.8300   15.6190  -11.8350 C.2   223  GLN223      0.2608
    115  OE1       -7.5980   15.5740  -12.7950 O.2   223  GLN223     -0.2717
    116  NE2       -6.5990   16.7350  -11.1560 N.am  223  GLN223     -0.0878
    117  N         -9.8660   12.1170  -10.9790 N.am  224  ARG224     -0.1966
    118  CA       -10.8820   11.0990  -10.8290 C.3   224  ARG224      0.1729
    119  C        -10.8340   10.0740  -11.9560 C.2   224  ARG224      0.2616
    120  O        -11.6740    9.1780  -12.0260 O.2   224  ARG224     -0.2715
    121  CB       -12.2590   11.7560  -10.7440 C.3   224  ARG224      0.0348
    122  CG       -13.1220   11.1720   -9.6660 C.3   224  ARG224      0.0492
    123  CD       -13.6170   12.2120   -8.6820 C.3   224  ARG224      0.2205
    124  NE       -13.9310   11.5430   -7.4260 N.pl3 224  ARG224     -0.0865
    125  CZ       -14.9250   10.6730   -7.2910 C.cat 224  ARG224      0.5346
    126  NH1      -15.7020   10.3930   -8.3320 N.pl3 224  ARG224      0.1354
    127  NH2      -15.1460   10.0870   -6.1230 N.pl3 224  ARG224      0.1354
    128  N         -9.8460   10.2040  -12.8350 N.am  225  SER225     -0.1950
    129  CA        -9.6420    9.2220  -13.8930 C.3   225  SER225      0.1924
    130  C         -8.6290    8.1780  -13.4430 C.2   225  SER225      0.2314
    131  O         -8.2560    8.1370  -12.2740 O.2   225  SER225     -0.2863
    132  CB        -9.1740    9.8980  -15.1800 C.3   225  SER225      0.2116
    133  OG        -8.0160   10.6740  -14.9510 O.3   225  SER225     -0.2180
@<TRIPOS>BOND
     1    62    61    2
     2    61    60    1
     3   103   102    2
     4    60    59    1
     5    60    63    1
     6   102   101    1
     7    63    64    1
     8    63    65    1
     9    64    66    1
    10   100   101    1
    11   101   104    1
    12   104   105    1
    13    47    48    2
    14    47    46    1
    15    94    93    2
    16    93    92    1
    17   105   107    1
    18   105   106    1
    19    13    14    1
    20    91    92    1
    21    46    45    1
    22    46    49    1
    23    92    95    1
    24    51    53   ar
    25    51    50   ar
    26    82    83    1
    27    82    81    1
    28    70    69    2
    29    53    54   ar
    30    14    15    1
    31    83    77    1
    32    49    50    1
    33    50    52   ar
    34    67    68    1
    35    81    78    1
    36    95    96    1
    37    69    68    1
    38    73    72   ar
    39    73    75   ar
    40    71    68    1
    41    71    72    1
    42    54    52   ar
    43    54    56   ar
    44    15    16    2
    45    15    17   am
    46    52    55   ar
    47    77    78    1
    48    99    97   ar
    49    96    97    1
    50    72    74   ar
    51    97    98   ar
    52    75    76   ar
    53    56    58   ar
    54    78    79    1
    55    17    18    1
    56    79    80    2
    57    79    84   am
    58    55    57   ar
    59    23    21    1
    60    74    76   ar
    61    58    57   ar
    62    86    87    2
    63    86    85    1
    64    84    85    1
    65    18    21    1
    66    18    19    1
    67    22    21    1
    68    20    19    2
    69    85    88    1
    70    90    88    1
    71    19    24   am
    72    88    89    1
    73   132   133    1
    74   132   129    1
    75    24    25    1
    76    40    39    2
    77    12    11    1
    78    25    28    1
    79    25    26    1
    80    11    10   ar
    81    11     9   ar
    82    28    30    1
    83    28    29    1
    84   129   130    1
    85   129   128    1
    86    39    38    1
    87    10     8   ar
    88    41    38    1
    89    41    42    1
    90     9     7   ar
    91   130   131    2
    92    44    42   am
    93     8     6   ar
    94     7     6   ar
    95    38    37    1
    96   128   119   am
    97   115   114    2
    98     6     5    1
    99    42    43    2
   100    26    27    2
   101    26    31   am
   102   120   119    2
   103     5     2    1
   104   119   118    1
   105    31    32    1
   106   114   113    1
   107   114   116   am
   108   113   112    1
   109   112   109    1
   110   117   118    1
   111   117   110   am
   112   118   121    1
   113   121   122    1
   114    32    35    1
   115    32    33    1
   116     2     3    1
   117     2     1    1
   118     4     3    2
   119   109   110    1
   120   109   108    1
   121    35    36    1
   122   110   111    2
   123   122   123    1
   124    33    34    2
   125   123   124    1
   126   126   125    1
   127   124   125    2
   128   125   127    1
