@<TRIPOS>MOLECULE
tmp/4kpsE00.pdb
 137 132 0 0 0
SMALL
GASTEIGER

@<TRIPOS>ATOM
      1  N          4.4610  -17.8430  -38.9790 N.3    93  TYR93      -0.1241
      2  CA         3.6440  -16.6480  -39.1310 C.3    93  TYR93       0.1605
      3  C          3.7660  -15.7860  -37.8830 C.2    93  TYR93       0.2264
      4  O          3.6840  -16.2940  -36.7640 O.2    93  TYR93      -0.2867
      5  CB         2.1810  -17.0270  -39.3520 C.3    93  TYR93       0.0534
      6  CG         1.3530  -15.9150  -39.9420 C.ar   93  TYR93      -0.0201
      7  CD1        1.1030  -15.8650  -41.3060 C.ar   93  TYR93      -0.0009
      8  CD2        0.8300  -14.9090  -39.1420 C.ar   93  TYR93      -0.0009
      9  CE1        0.3500  -14.8520  -41.8560 C.ar   93  TYR93       0.0417
     10  CE2        0.0760  -13.8870  -39.6850 C.ar   93  TYR93       0.0417
     11  CZ        -0.1590  -13.8650  -41.0450 C.ar   93  TYR93       0.1957
     12  OH        -0.9080  -12.8560  -41.5990 O.3    93  TYR93      -0.2866
     13  N         -7.0500  -21.6320  -45.3690 N.3   130  GLY130     -0.1210
     14  CA        -6.1080  -20.6060  -45.7730 C.3   130  GLY130      0.1956
     15  C         -4.6610  -20.9920  -45.5390 C.2   130  GLY130      0.2613
     16  O         -4.3080  -21.5450  -44.4980 O.2   130  GLY130     -0.2717
     17  N         -3.8180  -20.6970  -46.5190 N.am  131  THR131     -0.1938
     18  CA        -2.3930  -20.9470  -46.3980 C.3   131  THR131      0.2028
     19  C         -1.6550  -19.6160  -46.4290 C.2   131  THR131      0.2643
     20  O         -2.2830  -18.5580  -46.4550 O.2   131  THR131     -0.2714
     21  CB        -1.8850  -21.8600  -47.5230 C.3   131  THR131      0.1808
     22  OG1       -2.0990  -21.2250  -48.7900 O.3   131  THR131     -0.2208
     23  CG2       -2.6240  -23.1900  -47.4970 C.3   131  THR131      0.0379
     24  N         -0.3280  -19.6640  -46.4160 N.am  132  THR132     -0.1936
     25  CA         0.4680  -18.4430  -46.4460 C.3   132  THR132      0.2028
     26  C          1.9070  -18.7140  -46.8660 C.2   132  THR132      0.2642
     27  O          2.4210  -19.8180  -46.6860 O.2   132  THR132     -0.2714
     28  CB         0.4550  -17.7170  -45.0830 C.3   132  THR132      0.1808
     29  OG1        1.2940  -16.5570  -45.1500 O.3   132  THR132     -0.2208
     30  CG2        0.9490  -18.6410  -43.9690 C.3   132  THR132      0.0379
     31  N          2.5470  -17.6970  -47.4320 N.am  133  SER133     -0.1949
     32  CA         3.9240  -17.8110  -47.8950 C.3   133  SER133      0.1924
     33  C          4.9040  -17.7630  -46.7270 C.2   133  SER133      0.2314
     34  O          6.1020  -18.0010  -46.8980 O.2   133  SER133     -0.2863
     35  CB         4.2450  -16.6960  -48.8900 C.3   133  SER133      0.2116
     36  OG         4.1880  -15.4260  -48.2620 O.3   133  SER133     -0.2180
     37  N          2.8270  -23.0150  -50.4600 N.3   142  ASN142     -0.1240
     38  CA         2.2250  -22.3290  -49.3250 C.3   142  ASN142      0.1653
     39  C          1.4200  -23.2910  -48.4630 C.2   142  ASN142      0.2266
     40  O          0.6520  -24.1050  -48.9750 O.2   142  ASN142     -0.2867
     41  CB         1.3350  -21.1790  -49.7940 C.3   142  ASN142      0.1155
     42  CG         2.1320  -19.9910  -50.2870 C.2   142  ASN142      0.2627
     43  OD1        3.3600  -20.0350  -50.3510 O.2   142  ASN142     -0.2716
     44  ND2        1.4350  -18.9170  -50.6380 N.am  142  ASN142     -0.0877
     45  N         -6.5410  -22.6830  -40.7740 N.3   150  TRP150     -0.1241
     46  CA        -6.8940  -21.2790  -40.9340 C.3   150  TRP150      0.1605
     47  C         -8.1560  -21.1380  -41.7700 C.2   150  TRP150      0.2264
     48  O         -8.0900  -21.0650  -42.9970 O.2   150  TRP150     -0.2867
     49  CB        -5.7480  -20.5200  -41.5980 C.3   150  TRP150      0.0550
     50  CG        -5.8930  -19.0300  -41.5490 C.ar  150  TRP150      0.0003
     51  CD1       -6.9830  -18.3220  -41.1320 C.ar  150  TRP150      0.0946
     52  CD2       -4.9090  -18.0620  -41.9350 C.ar  150  TRP150      0.0152
     53  NE1       -6.7370  -16.9720  -41.2320 N.ar  150  TRP150     -0.2442
     54  CE2       -5.4710  -16.7870  -41.7220 C.ar  150  TRP150      0.0810
     55  CE3       -3.6070  -18.1510  -42.4390 C.ar  150  TRP150      0.0012
     56  CZ2       -4.7770  -15.6120  -41.9930 C.ar  150  TRP150      0.0191
     57  CZ3       -2.9210  -16.9830  -42.7070 C.ar  150  TRP150      0.0001
     58  CH2       -3.5070  -15.7300  -42.4840 C.ar  150  TRP150      0.0015
     59  N        -11.2930  -19.5260  -43.5900 N.3   152  ILE152     -0.1245
     60  CA       -11.6350  -18.2560  -44.2200 C.3   152  ILE152      0.1561
     61  C        -12.9650  -18.3410  -44.9610 C.2   152  ILE152      0.2260
     62  O        -13.5840  -19.4040  -45.0220 O.2   152  ILE152     -0.2867
     63  CB       -10.5370  -17.7800  -45.1880 C.3   152  ILE152      0.0252
     64  CG1      -10.1360  -18.9110  -46.1380 C.3   152  ILE152      0.0019
     65  CG2       -9.3290  -17.2770  -44.4150 C.3   152  ILE152      0.0019
     66  CD1       -9.1170  -18.4990  -47.1710 C.3   152  ILE152      0.0001
     67  N         -6.5110  -15.0210  -35.1830 N.3   180  HIS180     -0.1241
     68  CA        -5.7800  -14.1630  -36.1030 C.3   180  HIS180      0.1621
     69  C         -6.2750  -12.7240  -36.0300 C.2   180  HIS180      0.2264
     70  O         -7.4660  -12.4570  -36.1770 O.2   180  HIS180     -0.2867
     71  CB        -5.8770  -14.6820  -37.5360 C.3   180  HIS180      0.0745
     72  CG        -5.3170  -13.7370  -38.5520 C.ar  180  HIS180      0.0817
     73  ND1       -6.0860  -13.1570  -39.5340 N.ar  180  HIS180     -0.2268
     74  CD2       -4.0630  -13.2480  -38.7160 C.ar  180  HIS180      0.1154
     75  CE1       -5.3300  -12.3630  -40.2720 C.ar  180  HIS180      0.1986
     76  NE2       -4.0990  -12.4010  -39.7940 N.ar  180  HIS180     -0.2212
     77  N         -6.0210   -9.3870  -37.9330 N.3   182  PRO182     -0.2102
     78  CA        -5.6570   -8.7770  -39.2180 C.3   182  PRO182      0.1504
     79  C         -5.0630   -7.3770  -39.0650 C.2   182  PRO182      0.2575
     80  O         -5.1330   -6.7880  -37.9840 O.2   182  PRO182     -0.2718
     81  CB        -6.9950   -8.7100  -39.9650 C.3   182  PRO182      0.0282
     82  CG        -7.8550   -9.7380  -39.3010 C.3   182  PRO182      0.0208
     83  CD        -7.4600   -9.6920  -37.8610 C.3   182  PRO182      0.0893
     84  N         -4.4910   -6.8570  -40.1490 N.am  183  VAL183     -0.1980
     85  CA        -3.8310   -5.5550  -40.1270 C.3   183  VAL183      0.1595
     86  C         -4.8200   -4.3970  -40.0330 C.2   183  VAL183      0.2287
     87  O         -4.4640   -3.3030  -39.5960 O.2   183  VAL183     -0.2864
     88  CB        -2.9360   -5.3470  -41.3660 C.3   183  VAL183      0.0276
     89  CG1       -1.7250   -6.2630  -41.3110 C.3   183  VAL183      0.0022
     90  CG2       -3.7310   -5.5770  -42.6440 C.3   183  VAL183      0.0022
     91  N         -8.9390   -5.8630  -43.9220 N.3   187  GLU187     -0.1245
     92  CA        -8.4530   -7.2200  -44.1510 C.3   187  GLU187      0.1567
     93  C         -9.3510   -8.2720  -43.5000 C.2   187  GLU187      0.2260
     94  O         -9.5460   -9.3550  -44.0530 O.2   187  GLU187     -0.2867
     95  CB        -7.0050   -7.3660  -43.6710 C.3   187  GLU187      0.0388
     96  CG        -5.9830   -7.4810  -44.8000 C.3   187  GLU187      0.1160
     97  CD        -6.0350   -6.3150  -45.7810 C.2   187  GLU187      0.3649
     98  OE1       -5.8270   -6.5460  -46.9920 O.co2 187  GLU187     -0.2457
     99  OE2       -6.2830   -5.1700  -45.3440 O.co2 187  GLU187     -0.2457
    100  N        -11.0970  -11.2560  -45.4480 N.3   191  LEU191     -0.1245
    101  CA       -10.8340  -12.6350  -45.0400 C.3   191  LEU191      0.1561
    102  C        -12.0340  -13.3400  -44.4090 C.2   191  LEU191      0.2260
    103  O        -12.2500  -14.5310  -44.6330 O.2   191  LEU191     -0.2867
    104  CB        -9.6460  -12.6850  -44.0770 C.3   191  LEU191      0.0270
    105  CG        -8.2540  -12.4830  -44.6720 C.3   191  LEU191      0.0019
    106  CD1       -7.2140  -12.3780  -43.5740 C.3   191  LEU191      0.0001
    107  CD2       -7.9270  -13.6210  -45.6150 C.3   191  LEU191      0.0001
    108  N          7.3650  -11.3770  -44.2560 N.3   222  GLY222     -0.1210
    109  CA         6.3810  -10.9040  -45.1940 C.3   222  GLY222      0.1956
    110  C          5.0610  -10.4290  -44.6310 C.2   222  GLY222      0.2612
    111  O          4.4730   -9.5460  -45.2020 O.2   222  GLY222     -0.2717
    112  N          4.5790  -11.0180  -43.5460 N.am  223  GLN223     -0.1965
    113  CA         3.2870  -10.6400  -42.9950 C.3   223  GLN223      0.1733
    114  C          3.3980   -9.5430  -41.9590 C.2   223  GLN223      0.2616
    115  O          4.4770   -9.2630  -41.4290 O.2   223  GLN223     -0.2715
    116  CB         2.5870  -11.8600  -42.4070 C.3   223  GLN223      0.0408
    117  CG         2.4420  -12.9740  -43.4110 C.3   223  GLN223      0.0908
    118  CD         1.9380  -12.4760  -44.7470 C.2   223  GLN223      0.2608
    119  OE1        0.8940  -11.8280  -44.8300 O.2   223  GLN223     -0.2717
    120  NE2        2.6800  -12.7740  -45.8060 N.am  223  GLN223     -0.0878
    121  N          2.2750   -8.9200  -41.6660 N.am  224  ARG224     -0.1963
    122  CA         2.2900   -7.8150  -40.7450 C.3   224  ARG224      0.1729
    123  C          1.0750   -7.7850  -39.8520 C.2   224  ARG224      0.2616
    124  O          0.8020   -6.8020  -39.2030 O.2   224  ARG224     -0.2715
    125  CB         2.4550   -6.5180  -41.5070 C.3   224  ARG224      0.0348
    126  CG         3.6540   -5.7480  -41.0710 C.3   224  ARG224      0.0492
    127  CD         4.3120   -5.0550  -42.2060 C.3   224  ARG224      0.2205
    128  NE         5.3170   -4.1460  -41.6880 N.pl3 224  ARG224     -0.0865
    129  CZ         5.0700   -3.2110  -40.7860 C.cat 224  ARG224      0.5346
    130  NH1        3.8610   -3.0600  -40.3100 N.pl3 224  ARG224      0.1354
    131  NH2        6.0350   -2.4400  -40.3490 N.pl3 224  ARG224      0.1354
    132  N          0.3470   -8.8880  -39.8380 N.am  225  SER225     -0.1950
    133  CA        -0.7140   -9.0970  -38.8650 C.3   225  SER225      0.1924
    134  C         -0.1800   -9.8970  -37.6750 C.2   225  SER225      0.2314
    135  O          1.0290  -10.0990  -37.5480 O.2   225  SER225     -0.2863
    136  CB        -1.9030   -9.8080  -39.5110 C.3   225  SER225      0.2116
    137  OG        -1.5030  -11.0250  -40.1120 O.3   225  SER225     -0.2180
@<TRIPOS>BOND
     1    44    42   am
     2    37    38    1
     3    43    42    2
     4    42    41    1
     5    41    38    1
     6    38    39    1
     7    40    39    2
     8    35    36    1
     9    35    32    1
    10    22    21    1
    11    32    31    1
    12    32    33    1
    13    21    23    1
    14    21    18    1
    15    31    26   am
    16    66    64    1
    17    98    97   ar
    18    34    33    2
    19    26    27    2
    20    26    25    1
    21    17    18    1
    22    17    15   am
    23    20    19    2
    24    25    24    1
    25    25    28    1
    26    19    24   am
    27    19    18    1
    28    64    63    1
    29   120   118   am
    30    97    99   ar
    31    97    96    1
    32    14    15    1
    33    14    13    1
    34   107   105    1
    35    15    16    2
    36   100   101    1
    37   111   110    2
    38   109   110    1
    39   109   108    1
    40    63    65    1
    41    63    60    1
    42    29    28    1
    43    28    30    1
    44   101   102    1
    45   101   104    1
    46    62    61    2
    47    61    60    1
    48   119   118    2
    49    96    95    1
    50   118   117    1
    51   105   104    1
    52   105   106    1
    53   103   102    2
    54   110   112   am
    55    60    59    1
    56    92    91    1
    57    92    95    1
    58    92    93    1
    59    94    93    2
    60   112   113    1
    61   117   116    1
    62    48    47    2
    63   113   116    1
    64   113   114    1
    65    57    58   ar
    66    57    55   ar
    67    90    88    1
    68    58    56   ar
    69    55    52   ar
    70   127   128    1
    71   127   126    1
    72    56    54   ar
    73   114   121   am
    74   114   115    2
    75    52    54   ar
    76    52    50   ar
    77     9     7   ar
    78     9    11   ar
    79    47    46    1
    80    54    53   ar
    81   128   129    2
    82   121   122    1
    83    12    11    1
    84    49    50    1
    85    49    46    1
    86    50    51   ar
    87   125   126    1
    88   125   122    1
    89    88    89    1
    90    88    85    1
    91     7     6   ar
    92    53    51   ar
    93    11    10   ar
    94    46    45    1
    95   129   131    1
    96   129   130    1
    97   122   123    1
    98    75    76   ar
    99    75    73   ar
   100    84    85    1
   101    84    79   am
   102    85    86    1
   103   137   136    1
   104    86    87    2
   105    81    82    1
   106    81    78    1
   107     6     5    1
   108     6     8   ar
   109   123   132   am
   110   123   124    2
   111   132   133    1
   112    76    74   ar
   113    10     8   ar
   114    73    72   ar
   115   136   133    1
   116     5     2    1
   117    82    83    1
   118    78    79    1
   119    78    77    1
   120     2     1    1
   121     2     3    1
   122    79    80    2
   123   133   134    1
   124    74    72   ar
   125    72    71    1
   126    77    83    1
   127     3     4    2
   128   134   135    2
   129    71    68    1
   130    70    69    2
   131    68    69    1
   132    68    67    1
