@<TRIPOS>MOLECULE
tmp/4kptA07.pdb
 74 69 0 0 0
SMALL
GASTEIGER

@<TRIPOS>ATOM
      1  N          6.7190   11.8110   44.5900 N.3    93  THR93      -0.1218
      2  CA         8.0400   12.3320   44.9360 C.3    93  THR93       0.1862
      3  C          8.8710   11.1710   45.4690 C.2    93  THR93       0.2287
      4  O          8.3240   10.1310   45.8280 O.2    93  THR93      -0.2866
      5  CB         7.9490   13.4130   46.0290 C.3    93  THR93       0.1770
      6  OG1        7.3700   12.8480   47.2130 O.3    93  THR93      -0.2211
      7  CG2        7.1170   14.5800   45.5430 C.3    93  THR93       0.0375
      8  N         10.2830   10.8700   48.2970 N.3    95  ASP95      -0.1225
      9  CA        10.1220   10.6310   49.7310 C.3    95  ASP95       0.1805
     10  C          8.7610   10.0400   50.0940 C.2    95  ASP95       0.2598
     11  O          8.5250    9.6680   51.2460 O.2    95  ASP95      -0.2718
     12  CB        10.3950   11.9070   50.5350 C.3    95  ASP95       0.1424
     13  CG         9.5000   13.0540   50.1490 C.2    95  ASP95       0.3668
     14  OD1        8.9910   13.0680   49.0100 O.co2  95  ASP95      -0.2456
     15  OD2        9.3270   13.9660   50.9850 O.co2  95  ASP95      -0.2456
     16  N          7.8800    9.9180   49.1100 N.am   96  SER96      -0.1952
     17  CA         6.5690    9.3260   49.3520 C.3    96  SER96       0.1924
     18  C          6.6770    7.8220   49.5980 C.2    96  SER96       0.2314
     19  O          7.5540    7.1670   49.0420 O.2    96  SER96      -0.2863
     20  CB         5.6720    9.5720   48.1550 C.3    96  SER96       0.2116
     21  OG         4.4590    8.8610   48.2700 O.3    96  SER96      -0.2180
     22  N         -7.2160   10.6480   48.8100 N.3   107  LYS107     -0.1231
     23  CA        -6.0900   11.4420   48.3380 C.3   107  LYS107      0.1693
     24  C         -6.3980   12.0660   46.9830 C.2   107  LYS107      0.2591
     25  O         -7.3010   11.6160   46.2840 O.2   107  LYS107     -0.2718
     26  CB        -4.8410   10.5680   48.2740 C.3   107  LYS107      0.0285
     27  CG        -4.4900    9.9800   49.6400 C.3   107  LYS107      0.0035
     28  CD        -3.0840    9.4470   49.6940 C.3   107  LYS107      0.0206
     29  CE        -2.8320    8.7290   51.0130 C.3   107  LYS107      0.1093
     30  NZ        -3.0480    9.6000   52.2110 N.3   107  LYS107     -0.1314
     31  N         -5.6560   13.1170   46.6300 N.am  108  ALA108     -0.1980
     32  CA        -5.8030   13.7620   45.3340 C.3   108  ALA108      0.1597
     33  C         -4.7680   13.2010   44.3680 C.2   108  ALA108      0.2287
     34  O         -3.5950   13.0830   44.7040 O.2   108  ALA108     -0.2864
     35  CB        -5.5980   15.2910   45.4650 C.3   108  ALA108      0.0319
     36  N          2.5710   18.0240   42.2690 N.3   145  LEU145     -0.1231
     37  CA         3.0840   16.8500   42.9800 C.3   145  LEU145      0.1693
     38  C          4.1780   17.2690   43.9640 C.2   145  LEU145      0.2592
     39  O          4.1490   16.8960   45.1380 O.2   145  LEU145     -0.2718
     40  CB         3.6110   15.8210   41.9910 C.3   145  LEU145      0.0284
     41  CG         4.0410   14.4540   42.5500 C.3   145  LEU145      0.0019
     42  CD1        2.8270   13.6800   43.0720 C.3   145  LEU145      0.0001
     43  CD2        4.7670   13.6220   41.5350 C.3   145  LEU145      0.0001
     44  N          5.1270   18.0860   43.5200 N.am  146  SER146     -0.1952
     45  CA         6.2160   18.4700   44.4180 C.3   146  SER146      0.1924
     46  C          5.7340   19.3580   45.5690 C.2   146  SER146      0.2314
     47  O          6.3220   19.3470   46.6390 O.2   146  SER146     -0.2863
     48  CB         7.3840   19.1260   43.6660 C.3   146  SER146      0.2116
     49  OG         6.9650   20.2010   42.8480 O.3   146  SER146     -0.2180
     50  N          2.8430   18.9590   47.0550 N.3   148  GLY148     -0.1210
     51  CA         1.9760   18.1540   47.8940 C.3   148  GLY148      0.1956
     52  C          0.4970   18.3780   47.6280 C.2   148  GLY148      0.2612
     53  O         -0.3440   17.8140   48.3180 O.2   148  GLY148     -0.2717
     54  N          0.1580   19.1830   46.6240 N.am  149  ASN149     -0.1960
     55  CA        -1.2530   19.4320   46.3200 C.3   149  ASN149      0.1819
     56  C         -1.9370   18.2270   45.6660 C.2   149  ASN149      0.2621
     57  O         -3.1670   18.1070   45.6830 O.2   149  ASN149     -0.2715
     58  CB        -1.4130   20.6990   45.4800 C.3   149  ASN149      0.1195
     59  CG        -1.1810   21.9470   46.2910 C.2   149  ASN149      0.2630
     60  OD1       -0.0410   22.3640   46.4910 O.2   149  ASN149     -0.2716
     61  ND2       -2.2620   22.5430   46.7780 N.am  149  ASN149     -0.0877
     62  N         -1.1320   17.3430   45.0920 N.am  150  ILE150     -0.1963
     63  CA        -1.5860   15.9960   44.7700 C.3   150  ILE150      0.1727
     64  C         -0.6090   15.0090   45.3820 C.2   150  ILE150      0.2616
     65  O          0.5810   15.3280   45.5520 O.2   150  ILE150     -0.2715
     66  CB        -1.6930   15.7570   43.2340 C.3   150  ILE150      0.0290
     67  CG1       -0.4010   16.1460   42.4820 C.3   150  ILE150      0.0022
     68  CG2       -2.8870   16.5140   42.6800 C.3   150  ILE150      0.0023
     69  CD1       -0.4420   15.9320   40.9810 C.3   150  ILE150      0.0001
     70  N         -1.1070   13.8120   45.6820 N.am  151  ALA151     -0.1977
     71  CA        -0.3000   12.7810   46.3120 C.3   151  ALA151      0.1597
     72  C          0.3620   11.8970   45.2640 C.2   151  ALA151      0.2287
     73  O          1.2990   11.1600   45.5610 O.2   151  ALA151     -0.2864
     74  CB        -1.1640   11.9320   47.2280 C.3   151  ALA151      0.0319
@<TRIPOS>BOND
     1    69    67    1
     2    43    41    1
     3    40    41    1
     4    40    37    1
     5    36    37    1
     6    67    66    1
     7    41    42    1
     8    68    66    1
     9    49    48    1
    10    37    38    1
    11    66    63    1
    12    44    38   am
    13    44    45    1
    14    48    45    1
    15    38    39    2
    16    33    34    2
    17    33    32    1
    18    45    46    1
    19     1     2    1
    20    63    62    1
    21    63    64    1
    22     2     3    1
    23     2     5    1
    24    62    56   am
    25    72    73    2
    26    72    71    1
    27    32    35    1
    28    32    31    1
    29    64    65    2
    30    64    70   am
    31     3     4    2
    32    58    59    1
    33    58    55    1
    34     7     5    1
    35    46    47    2
    36    56    57    2
    37    56    55    1
    38    70    71    1
    39     5     6    1
    40    25    24    2
    41    59    60    2
    42    59    61   am
    43    71    74    1
    44    55    54    1
    45    54    52   am
    46    31    24   am
    47    24    23    1
    48    50    51    1
    49    52    51    1
    50    52    53    2
    51    20    21    1
    52    20    17    1
    53    26    23    1
    54    26    27    1
    55     8     9    1
    56    23    22    1
    57    14    13   ar
    58    19    18    2
    59    16    17    1
    60    16    10   am
    61    17    18    1
    62    27    28    1
    63    28    29    1
    64     9    10    1
    65     9    12    1
    66    10    11    2
    67    13    12    1
    68    13    15   ar
    69    29    30    1
