@<TRIPOS>MOLECULE
tmp/4kptB04.pdb
 102 97 0 0 0
SMALL
GASTEIGER

@<TRIPOS>ATOM
      1  N          4.5000   27.7540   35.7230 N.3     9  SER9       -0.1202
      2  CA         5.0850   28.0800   34.4340 C.3     9  SER9        0.2020
      3  C          4.1100   28.9350   33.6370 C.2     9  SER9        0.2619
      4  O          3.1620   28.4460   33.0570 O.2     9  SER9       -0.2717
      5  CB         5.4750   26.8220   33.6420 C.3     9  SER9        0.2103
      6  OG         6.0770   27.1840   32.4150 O.3     9  SER9       -0.2182
      7  N          4.3870   30.2300   33.6020 N.am   10  TYR10      -0.1961
      8  CA         3.5510   31.1970   32.8960 C.3    10  TYR10       0.1771
      9  C          4.4410   32.3500   32.4270 C.2    10  TYR10       0.2619
     10  O          4.3830   33.4790   32.9470 O.2    10  TYR10      -0.2715
     11  CB         2.4450   31.6900   33.8200 C.3    10  TYR10       0.0574
     12  CG         1.4830   32.6960   33.2300 C.ar   10  TYR10      -0.0198
     13  CD1        1.0140   32.5820   31.9470 C.ar   10  TYR10      -0.0009
     14  CD2        1.0070   33.7440   34.0000 C.ar   10  TYR10      -0.0009
     15  CE1        0.1190   33.5150   31.4190 C.ar   10  TYR10       0.0417
     16  CE2        0.1220   34.6750   33.4900 C.ar   10  TYR10       0.0417
     17  CZ        -0.3250   34.5550   32.2060 C.ar   10  TYR10       0.1957
     18  OH        -1.2300   35.4760   31.7330 O.3    10  TYR10      -0.2866
     19  N          5.2990   32.0720   31.4550 N.am   11  ALA11      -0.1977
     20  CA         6.1720   33.1280   30.9470 C.3    11  ALA11       0.1597
     21  C          5.3330   34.1790   30.2180 C.2    11  ALA11       0.2287
     22  O          4.3830   33.8450   29.5350 O.2    11  ALA11      -0.2864
     23  CB         7.2610   32.5550   30.0280 C.3    11  ALA11       0.0319
     24  N         -5.1080   28.1240   22.2660 N.3   112  LYS112     -0.1245
     25  CA        -4.9100   27.0780   23.2560 C.3   112  LYS112      0.1561
     26  C         -6.2270   26.6580   23.8920 C.2   112  LYS112      0.2260
     27  O         -7.0670   27.5020   24.2190 O.2   112  LYS112     -0.2867
     28  CB        -3.9790   27.5680   24.3560 C.3   112  LYS112      0.0271
     29  CG        -2.5240   27.7510   23.9410 C.3   112  LYS112      0.0035
     30  CD        -1.7330   28.5370   24.9840 C.3   112  LYS112      0.0206
     31  CE        -1.8050   27.8320   26.3400 C.3   112  LYS112      0.1093
     32  NZ        -1.1060   28.4950   27.4510 N.3   112  LYS112     -0.1314
     33  N         -8.7330   28.4670   27.1390 N.3   115  THR115     -0.1218
     34  CA        -8.2690   29.8250   27.3930 C.3   115  THR115      0.1862
     35  C         -9.2510   30.9130   26.9450 C.2   115  THR115      0.2287
     36  O        -10.1700   30.6710   26.1600 O.2   115  THR115     -0.2866
     37  CB        -6.9490   30.0970   26.6350 C.3   115  THR115      0.1770
     38  OG1       -7.1840   30.0130   25.2200 O.3   115  THR115     -0.2211
     39  CG2       -5.8730   29.1090   27.0660 C.3   115  THR115      0.0375
     40  N          1.0540   25.9390   24.1810 N.3   138  GLY138     -0.1210
     41  CA         1.7080   26.9120   23.3290 C.3   138  GLY138      0.1956
     42  C          2.7020   26.3260   22.3350 C.2   138  GLY138      0.2611
     43  O          2.7520   26.7370   21.1750 O.2   138  GLY138     -0.2717
     44  N          3.4860   25.3510   22.7660 N.am  139  VAL139     -0.1979
     45  CA         4.4810   24.7950   21.8700 C.3   139  VAL139      0.1595
     46  C          3.7900   24.1780   20.6570 C.2   139  VAL139      0.2287
     47  O          4.2330   24.3440   19.5330 O.2   139  VAL139     -0.2864
     48  CB         5.3840   23.7610   22.5830 C.3   139  VAL139      0.0276
     49  CG1        6.3240   23.0880   21.5980 C.3   139  VAL139      0.0022
     50  CG2        6.2090   24.4530   23.6500 C.3   139  VAL139      0.0022
     51  N          2.2750   27.1430   18.3940 N.3   142  PHE142     -0.1241
     52  CA         3.2840   27.8910   17.6550 C.3   142  PHE142      0.1605
     53  C          4.0040   27.0390   16.5910 C.2   142  PHE142      0.2264
     54  O          4.3850   27.5410   15.5390 O.2   142  PHE142     -0.2867
     55  CB         4.2020   28.6450   18.6150 C.3   142  PHE142      0.0534
     56  CG         3.5320   29.8390   19.2360 C.ar  142  PHE142     -0.0203
     57  CD1        3.2650   30.9600   18.4700 C.ar  142  PHE142     -0.0042
     58  CD2        3.1290   29.8440   20.5610 C.ar  142  PHE142     -0.0042
     59  CE1        2.6320   32.0650   19.0120 C.ar  142  PHE142     -0.0003
     60  CE2        2.4880   30.9490   21.0990 C.ar  142  PHE142     -0.0003
     61  CZ         2.2440   32.0520   20.3230 C.ar  142  PHE142     -0.0000
     62  N         -3.1690   34.7400   21.1830 N.3   155  ASP155     -0.1225
     63  CA        -2.6260   34.5450   22.5180 C.3   155  ASP155      0.1805
     64  C         -2.5000   35.9240   23.1570 C.2   155  ASP155      0.2597
     65  O         -2.8520   36.9630   22.5580 O.2   155  ASP155     -0.2718
     66  CB        -1.2690   33.8010   22.4300 C.3   155  ASP155      0.1424
     67  CG        -0.8700   33.0770   23.7250 C.2   155  ASP155      0.3668
     68  OD1       -1.3900   33.3740   24.8190 O.co2 155  ASP155     -0.2456
     69  OD2        0.0080   32.1870   23.6210 O.co2 155  ASP155     -0.2456
     70  N         -2.0090   35.9500   24.3810 N.am  156  GLU156     -0.1979
     71  CA        -1.7900   37.2060   25.0650 C.3   156  GLU156      0.1602
     72  C         -0.6210   38.0060   24.5050 C.2   156  GLU156      0.2287
     73  O          0.4230   37.4520   24.1660 O.2   156  GLU156     -0.2864
     74  CB        -1.5290   36.9480   26.5450 C.3   156  GLU156      0.0415
     75  CG        -2.6780   36.3730   27.3370 C.3   156  GLU156      0.1163
     76  CD        -2.3190   36.3220   28.7960 C.2   156  GLU156      0.3649
     77  OE1       -2.1070   35.2030   29.2910 O.co2 156  GLU156     -0.2457
     78  OE2       -2.2060   37.3980   29.4340 O.co2 156  GLU156     -0.2457
     79  N          2.7050   37.4370   26.2370 N.3   159  VAL159     -0.1245
     80  CA         3.2730   36.1240   25.9030 C.3   159  VAL159      0.1561
     81  C          3.9630   36.1650   24.5320 C.2   159  VAL159      0.2260
     82  O          5.0890   35.6920   24.3560 O.2   159  VAL159     -0.2867
     83  CB         2.1640   35.0400   25.9640 C.3   159  VAL159      0.0252
     84  CG1        2.6700   33.7350   25.3900 C.3   159  VAL159      0.0019
     85  CG2        1.6790   34.8840   27.4060 C.3   159  VAL159      0.0019
     86  N          7.2000   38.3460   24.7150 N.3   162  TYR162     -0.1227
     87  CA         8.3650   37.6420   25.2610 C.3   162  TYR162      0.1736
     88  C          8.9150   36.6520   24.2220 C.2   162  TYR162      0.2595
     89  O         10.1300   36.5880   23.9820 O.2   162  TYR162     -0.2718
     90  CB         8.0400   36.9370   26.5860 C.3   162  TYR162      0.0548
     91  CG         9.2630   36.2860   27.2000 C.ar  162  TYR162     -0.0200
     92  CD1       10.3120   37.0550   27.6940 C.ar  162  TYR162     -0.0009
     93  CD2        9.3880   34.9060   27.2540 C.ar  162  TYR162     -0.0009
     94  CE1       11.4530   36.4590   28.2310 C.ar  162  TYR162      0.0417
     95  CE2       10.5120   34.3110   27.7950 C.ar  162  TYR162      0.0417
     96  CZ        11.5410   35.0910   28.2780 C.ar  162  TYR162      0.1957
     97  OH        12.6570   34.4840   28.8160 O.3   162  TYR162     -0.2866
     98  N          8.0210   35.9210   23.5600 N.am  163  ALA163     -0.1980
     99  CA         8.4260   35.0030   22.4950 C.3   163  ALA163      0.1597
    100  C          9.2040   35.7010   21.3570 C.2   163  ALA163      0.2287
    101  O         10.2010   35.1680   20.8490 O.2   163  ALA163     -0.2864
    102  CB         7.2000   34.2500   21.9600 C.3   163  ALA163      0.0319
@<TRIPOS>BOND
     1    54    53    2
     2    53    52    1
     3    52    51    1
     4    52    55    1
     5    57    59   ar
     6    57    56   ar
     7    55    56    1
     8    59    61   ar
     9    56    58   ar
    10    47    46    2
    11    61    60   ar
    12    58    60   ar
    13    46    45    1
    14   101   100    2
    15    43    42    2
    16    62    63    1
    17   100    99    1
    18    49    48    1
    19    45    48    1
    20    45    44    1
    21   102    99    1
    22    24    25    1
    23    42    44   am
    24    42    41    1
    25    66    63    1
    26    66    67    1
    27    99    98    1
    28    63    64    1
    29    65    64    2
    30    48    50    1
    31    64    70   am
    32    25    26    1
    33    25    28    1
    34    41    40    1
    35    98    88   am
    36    69    67   ar
    37    67    68   ar
    38    26    27    2
    39    29    28    1
    40    29    30    1
    41    89    88    2
    42    73    72    2
    43    88    87    1
    44    82    81    2
    45    70    71    1
    46    72    71    1
    47    81    80    1
    48    86    87    1
    49    30    31    1
    50    71    74    1
    51    38    37    1
    52    87    90    1
    53    84    83    1
    54    80    83    1
    55    80    79    1
    56    83    85    1
    57    36    35    2
    58    31    32    1
    59    74    75    1
    60    90    91    1
    61    37    39    1
    62    37    34    1
    63    35    34    1
    64    33    34    1
    65    91    93   ar
    66    91    92   ar
    67    93    95   ar
    68    75    76    1
    69    92    94   ar
    70    95    96   ar
    71    94    96   ar
    72    96    97    1
    73    76    77   ar
    74    76    78   ar
    75    22    21    2
    76    23    20    1
    77    21    20    1
    78    20    19    1
    79    15    13   ar
    80    15    17   ar
    81    19     9   am
    82    18    17    1
    83    13    12   ar
    84    17    16   ar
    85     6     5    1
    86     9     8    1
    87     9    10    2
    88     8     7    1
    89     8    11    1
    90     4     3    2
    91    12    11    1
    92    12    14   ar
    93    16    14   ar
    94     7     3   am
    95     3     2    1
    96     5     2    1
    97     2     1    1
