@<TRIPOS>MOLECULE
tmp/4kptB05.pdb
 91 87 0 0 0
SMALL
GASTEIGER

@<TRIPOS>ATOM
      1  N         -1.2770   27.7990   39.7410 N.3    48  PHE48      -0.1227
      2  CA        -2.3930   28.6900   40.0570 C.3    48  PHE48       0.1736
      3  C         -3.4800   28.0520   40.9260 C.2    48  PHE48       0.2595
      4  O         -3.8770   28.6290   41.9400 O.2    48  PHE48      -0.2718
      5  CB        -3.0300   29.2060   38.7730 C.3    48  PHE48       0.0547
      6  CG        -4.1290   30.1950   39.0060 C.ar   48  PHE48      -0.0202
      7  CD1       -3.8530   31.4470   39.5120 C.ar   48  PHE48      -0.0042
      8  CD2       -5.4360   29.8730   38.7480 C.ar   48  PHE48      -0.0042
      9  CE1       -4.8640   32.3530   39.7370 C.ar   48  PHE48      -0.0003
     10  CE2       -6.4410   30.7860   38.9770 C.ar   48  PHE48      -0.0003
     11  CZ        -6.1460   32.0320   39.4820 C.ar   48  PHE48      -0.0000
     12  N         -3.9580   26.8690   40.5340 N.am   49  ASP49      -0.1974
     13  CA        -5.0190   26.1890   41.2530 C.3    49  ASP49       0.1709
     14  C         -4.5470   25.8340   42.6540 C.2    49  ASP49       0.2293
     15  O         -5.2720   26.0380   43.6250 O.2    49  ASP49      -0.2864
     16  CB        -5.4280   24.9480   40.4800 C.3    49  ASP49       0.1436
     17  CG        -6.5020   25.2340   39.4450 C.2    49  ASP49       0.3671
     18  OD1       -6.7910   26.4220   39.1850 O.co2  49  ASP49      -0.2456
     19  OD2       -7.0610   24.2630   38.8850 O.co2  49  ASP49      -0.2456
     20  N         -4.3990   28.9390   44.8960 N.3    52  LEU52      -0.1245
     21  CA        -5.7310   29.3020   45.3830 C.3    52  LEU52       0.1561
     22  C         -6.0810   28.4220   46.5690 C.2    52  LEU52       0.2260
     23  O         -6.5350   28.9230   47.5890 O.2    52  LEU52      -0.2867
     24  CB        -6.7940   29.0930   44.2970 C.3    52  LEU52       0.0270
     25  CG        -7.3180   30.2510   43.4320 C.3    52  LEU52       0.0019
     26  CD1       -6.4270   31.4570   43.4700 C.3    52  LEU52       0.0001
     27  CD2       -7.5700   29.7520   42.0230 C.3    52  LEU52       0.0001
     28  N         -6.4620   29.7660   50.3920 N.3    56  LYS56      -0.1245
     29  CA        -7.7190   29.5480   51.1020 C.3    56  LYS56       0.1561
     30  C         -7.5090   28.7660   52.3930 C.2    56  LYS56       0.2260
     31  O         -8.2290   28.9750   53.3700 O.2    56  LYS56      -0.2867
     32  CB        -8.7110   28.8060   50.2130 C.3    56  LYS56       0.0271
     33  CG        -9.3610   29.6490   49.1460 C.3    56  LYS56       0.0035
     34  CD       -10.5230   28.8960   48.5510 C.3    56  LYS56       0.0206
     35  CE       -10.4530   28.8330   47.0600 C.3    56  LYS56       0.1093
     36  NZ       -11.4680   27.8640   46.5510 N.3    56  LYS56      -0.1314
     37  N         -3.4590   36.8430   37.9240 N.3    67  MET67      -0.1245
     38  CA        -4.8220   36.5400   38.3760 C.3    67  MET67       0.1570
     39  C         -5.7680   37.6720   38.0080 C.2    67  MET67       0.2261
     40  O         -5.6180   38.7870   38.4830 O.2    67  MET67      -0.2867
     41  CB        -4.8500   36.3070   39.8880 C.3    67  MET67       0.0387
     42  CG        -6.2250   35.9450   40.4830 C.3    67  MET67       0.0595
     43  SD        -6.0390   35.4560   42.1660 S.3    67  MET67      -0.1393
     44  CE        -7.7440   35.0310   42.5580 C.3    67  MET67       0.0692
     45  N        -16.9700   38.5000   40.3930 N.3    72  GLU72      -0.1231
     46  CA       -17.2460   37.2110   41.0100 C.3    72  GLU72       0.1699
     47  C        -16.1710   36.9000   42.0290 C.2    72  GLU72       0.2592
     48  O        -16.4670   36.4750   43.1380 O.2    72  GLU72      -0.2718
     49  CB       -17.3360   36.1090   39.9500 C.3    72  GLU72       0.0402
     50  CG       -17.9200   34.8050   40.4650 C.3    72  GLU72       0.1161
     51  CD       -16.9020   33.9130   41.1440 C.2    72  GLU72       0.3649
     52  OE1      -15.6950   34.0480   40.8580 O.co2  72  GLU72      -0.2457
     53  OE2      -17.3200   33.0630   41.9620 O.co2  72  GLU72      -0.2457
     54  N        -14.9160   37.1570   41.6750 N.am   73  ARG73      -0.1980
     55  CA       -13.8140   36.8110   42.5660 C.3    73  ARG73       0.1597
     56  C        -13.7680   37.6990   43.7920 C.2    73  ARG73       0.2287
     57  O        -13.2440   37.3010   44.8220 O.2    73  ARG73      -0.2864
     58  CB       -12.4800   36.8560   41.8260 C.3    73  ARG73       0.0334
     59  CG       -12.2080   35.5550   41.0860 C.3    73  ARG73       0.0492
     60  CD       -11.0340   35.6480   40.1630 C.3    73  ARG73       0.2205
     61  NE       -10.7420   34.3490   39.5660 N.pl3  73  ARG73      -0.0865
     62  CZ        -9.8300   34.1400   38.6320 C.cat  73  ARG73       0.5346
     63  NH1       -9.1310   35.1670   38.1690 N.pl3  73  ARG73       0.1354
     64  NH2       -9.6140   32.9230   38.1470 N.pl3  73  ARG73       0.1354
     65  N        -16.0520   38.3360   45.6700 N.3    75  GLU75      -0.1231
     66  CA       -16.8920   37.7620   46.7230 C.3    75  GLU75       0.1699
     67  C        -16.0440   36.9270   47.6860 C.2    75  GLU75       0.2593
     68  O        -16.4450   36.6790   48.8230 O.2    75  GLU75      -0.2718
     69  CB       -18.0110   36.9080   46.1200 C.3    75  GLU75       0.0402
     70  CG       -19.0420   37.7070   45.3130 C.3    75  GLU75       0.1161
     71  CD       -19.9680   38.5400   46.1890 C.2    75  GLU75       0.3649
     72  OE1      -20.5530   37.9860   47.1440 O.co2  75  GLU75      -0.2457
     73  OE2      -20.1060   39.7540   45.9290 O.co2  75  GLU75      -0.2457
     74  N        -14.8630   36.5180   47.2220 N.am   76  THR76      -0.1939
     75  CA       -13.9870   35.6130   47.9650 C.3    76  THR76       0.2028
     76  C        -12.6240   36.2250   48.3160 C.2    76  THR76       0.2642
     77  O        -12.0500   35.8930   49.3590 O.2    76  THR76      -0.2714
     78  CB       -13.7750   34.3240   47.1480 C.3    76  THR76       0.1808
     79  OG1      -15.0500   33.7180   46.9010 O.3    76  THR76      -0.2208
     80  CG2      -12.8680   33.3360   47.8750 C.3    76  THR76       0.0379
     81  N        -12.1310   37.1270   47.4620 N.am   77  PHE77      -0.1973
     82  CA       -10.7820   37.6760   47.5800 C.3    77  PHE77       0.1639
     83  C        -10.8060   39.1900   47.5970 C.2    77  PHE77       0.2290
     84  O        -11.7030   39.8050   47.0300 O.2    77  PHE77      -0.2864
     85  CB        -9.9160   37.2460   46.3880 C.3    77  PHE77       0.0560
     86  CG        -9.8720   35.7570   46.1560 C.ar   77  PHE77      -0.0200
     87  CD1       -9.1590   34.9260   47.0040 C.ar   77  PHE77      -0.0042
     88  CD2      -10.5150   35.1940   45.0660 C.ar   77  PHE77      -0.0042
     89  CE1       -9.1230   33.5450   46.7780 C.ar   77  PHE77      -0.0003
     90  CE2      -10.4740   33.8110   44.8330 C.ar   77  PHE77      -0.0003
     91  CZ        -9.7740   33.0000   45.6830 C.ar   77  PHE77      -0.0000
@<TRIPOS>BOND
     1    37    38    1
     2    39    38    1
     3    39    40    2
     4    64    62    1
     5    63    62    1
     6    38    41    1
     7    62    61    2
     8     8    10   ar
     9     8     6   ar
    10     5     6    1
    11     5     2    1
    12    19    17   ar
    13    10    11   ar
    14     6     7   ar
    15    18    17   ar
    16    17    16    1
    17    11     9   ar
    18     7     9   ar
    19    61    60    1
    20     1     2    1
    21    41    42    1
    22    49    50    1
    23    49    46    1
    24     2     3    1
    25    60    59    1
    26    45    46    1
    27    50    51    1
    28    16    13    1
    29    42    43    1
    30    12     3   am
    31    12    13    1
    32    52    51   ar
    33     3     4    2
    34    46    47    1
    35    59    58    1
    36    51    53   ar
    37    13    14    1
    38    54    47   am
    39    54    55    1
    40    58    55    1
    41    27    25    1
    42    47    48    2
    43    43    44    1
    44    55    56    1
    45    14    15    2
    46    25    26    1
    47    25    24    1
    48    56    57    2
    49    24    21    1
    50    90    88   ar
    51    90    91   ar
    52    20    21    1
    53    88    86   ar
    54    70    69    1
    55    70    71    1
    56    21    22    1
    57    65    66    1
    58    91    89   ar
    59    73    71   ar
    60    69    66    1
    61    86    85    1
    62    86    87   ar
    63    71    72   ar
    64    85    82    1
    65    36    35    1
    66    22    23    2
    67    66    67    1
    68    89    87   ar
    69    79    78    1
    70    84    83    2
    71    35    34    1
    72    78    80    1
    73    78    75    1
    74    74    67   am
    75    74    75    1
    76    81    82    1
    77    81    76   am
    78    82    83    1
    79    67    68    2
    80    75    76    1
    81    76    77    2
    82    34    33    1
    83    33    32    1
    84    32    29    1
    85    28    29    1
    86    29    30    1
    87    30    31    2
