@<TRIPOS>MOLECULE
tmp/4kptA01.pdb
 84 81 0 0 0
SMALL
GASTEIGER

@<TRIPOS>ATOM
      1  N          4.7970   14.3990   15.7420 N.3     7  ASP7       -0.1239
      2  CA         4.2930   15.4650   16.6080 C.3     7  ASP7        0.1674
      3  C          5.3780   16.5120   16.8280 C.2     7  ASP7        0.2266
      4  O          6.5420   16.2560   16.5680 O.2     7  ASP7       -0.2867
      5  CB         3.8320   14.9270   17.9630 C.3     7  ASP7        0.1410
      6  CG         3.0790   15.9810   18.7660 C.2     7  ASP7        0.3668
      7  OD1        2.0730   16.5110   18.2340 O.co2   7  ASP7       -0.2456
      8  OD2        3.5130   16.3020   19.8950 O.co2   7  ASP7       -0.2456
      9  N          5.9510   18.0980   19.8550 N.3     9  SER9       -0.1202
     10  CA         6.5450   18.0230   21.1830 C.3     9  SER9        0.2020
     11  C          5.8720   16.9380   21.9950 C.2     9  SER9        0.2618
     12  O          4.7980   17.1450   22.5430 O.2     9  SER9       -0.2717
     13  CB         6.4280   19.3640   21.9170 C.3     9  SER9        0.2103
     14  OG         7.2210   19.3530   23.0940 O.3     9  SER9       -0.2182
     15  N          6.5300   15.7930   22.0850 N.am   10  TYR10      -0.1975
     16  CA         6.0320   14.6670   22.8560 C.3    10  TYR10       0.1639
     17  C          7.2290   13.9140   23.4410 C.2    10  TYR10       0.2290
     18  O          7.5880   12.8370   22.9740 O.2    10  TYR10      -0.2864
     19  CB         5.1920   13.7530   21.9640 C.3    10  TYR10       0.0560
     20  CG         4.6260   12.5170   22.6300 C.ar   10  TYR10      -0.0198
     21  CD1        4.1400   12.5500   23.9230 C.ar   10  TYR10      -0.0009
     22  CD2        4.5990   11.3100   21.9500 C.ar   10  TYR10      -0.0009
     23  CE1        3.6290   11.3760   24.5300 C.ar   10  TYR10       0.0417
     24  CE2        4.0980   10.1730   22.5230 C.ar   10  TYR10       0.0417
     25  CZ         3.6130   10.2000   23.8000 C.ar   10  TYR10       0.1957
     26  OH         3.1020    9.0370   24.3200 O.3    10  TYR10      -0.2866
     27  N          0.6640   15.9820   15.6930 N.3    48  PHE48      -0.1241
     28  CA         0.0480   14.7040   15.3970 C.3    48  PHE48       0.1605
     29  C         -1.1240   14.8090   14.4150 C.2    48  PHE48       0.2264
     30  O         -1.1580   14.0980   13.4050 O.2    48  PHE48      -0.2867
     31  CB        -0.4020   14.0480   16.6990 C.3    48  PHE48       0.0534
     32  CG        -1.0130   12.6990   16.5050 C.ar   48  PHE48      -0.0203
     33  CD1       -0.2350   11.6140   16.1660 C.ar   48  PHE48      -0.0042
     34  CD2       -2.3720   12.5330   16.6240 C.ar   48  PHE48      -0.0042
     35  CE1       -0.7990   10.3840   15.9790 C.ar   48  PHE48      -0.0003
     36  CE2       -2.9370   11.2920   16.4400 C.ar   48  PHE48      -0.0003
     37  CZ        -2.1550   10.2320   16.1110 C.ar   48  PHE48      -0.0000
     38  N          4.7960    8.8290   15.7180 N.3    65  ALA65      -0.1231
     39  CA         4.4050    9.9150   16.6300 C.3    65  ALA65       0.1694
     40  C          3.6270    9.3470   17.8100 C.2    65  ALA65       0.2593
     41  O          2.5260    9.8090   18.1100 O.2    65  ALA65      -0.2718
     42  CB         3.5280   10.9280   15.8890 C.3    65  ALA65       0.0304
     43  N          4.1790    8.3400   18.4750 N.am   66  GLY66      -0.1942
     44  CA         3.4790    7.7310   19.5910 C.3    66  GLY66       0.2014
     45  C          2.0520    7.3280   19.2300 C.2    66  GLY66       0.2639
     46  O          1.1200    7.5720   19.9920 O.2    66  GLY66      -0.2714
     47  N          1.8920    6.7200   18.0550 N.am   67  MET67      -0.1963
     48  CA         0.5590    6.4730   17.5260 C.3    67  MET67       0.1736
     49  C          0.0250    5.1130   17.9460 C.2    67  MET67       0.2617
     50  O          0.5180    4.0950   17.5020 O.2    67  MET67      -0.2715
     51  CB         0.5680    6.5790   16.0010 C.3    67  MET67       0.0427
     52  CG        -0.8100    6.5290   15.3920 C.3    67  MET67       0.0599
     53  SD        -0.7230    6.8940   13.6380 S.3    67  MET67      -0.1393
     54  CE        -2.4430    6.6680   13.1870 C.3    67  MET67       0.0692
     55  N         -0.9970    5.1160   18.7880 N.am   68  THR68      -0.1951
     56  CA        -1.5430    3.8650   19.2800 C.3    68  THR68       0.1897
     57  C         -2.2030    3.0840   18.1530 C.2    68  THR68       0.2313
     58  O         -3.0130    3.6290   17.3930 O.2    68  THR68      -0.2863
     59  CB        -2.5870    4.0940   20.3740 C.3    68  THR68       0.1794
     60  OG1       -2.0280    4.8880   21.4270 O.3    68  THR68      -0.2208
     61  CG2       -3.0680    2.7610   20.9520 C.3    68  THR68       0.0378
     62  N         -8.3540    2.3220   13.8940 N.3    73  ARG73      -0.1245
     63  CA        -7.3780    2.9750   13.0240 C.3    73  ARG73       0.1563
     64  C         -6.9690    2.0670   11.8610 C.2    73  ARG73       0.2260
     65  O         -6.6160    2.5530   10.7950 O.2    73  ARG73      -0.2867
     66  CB        -6.1680    3.4530   13.8310 C.3    73  ARG73       0.0307
     67  CG        -6.4250    4.8070   14.4550 C.3    73  ARG73       0.0489
     68  CD        -5.4560    5.1080   15.5280 C.3    73  ARG73       0.2205
     69  NE        -5.5740    6.5180   15.9150 N.pl3  73  ARG73      -0.0865
     70  CZ        -4.8500    7.0820   16.8620 C.cat  73  ARG73       0.5346
     71  NH1       -3.9130    6.3600   17.4950 N.pl3  73  ARG73       0.1354
     72  NH2       -5.0360    8.3690   17.1460 N.pl3  73  ARG73       0.1354
     73  N          2.5210    1.4390   20.2880 N.3   183  TYR183     -0.1241
     74  CA         2.7500    2.4690   19.2880 C.3   183  TYR183      0.1605
     75  C          3.2900    1.8190   18.0240 C.2   183  TYR183      0.2264
     76  O          4.1520    0.9440   18.0790 O.2   183  TYR183     -0.2867
     77  CB         3.7300    3.5520   19.7970 C.3   183  TYR183      0.0534
     78  CG         3.2390    4.2960   21.0260 C.ar  183  TYR183     -0.0201
     79  CD1        1.8760    4.4580   21.2640 C.ar  183  TYR183     -0.0009
     80  CD2        4.1250    4.8260   21.9540 C.ar  183  TYR183     -0.0009
     81  CE1        1.4070    5.1200   22.3920 C.ar  183  TYR183      0.0417
     82  CE2        3.6610    5.4920   23.0920 C.ar  183  TYR183      0.0417
     83  CZ         2.2950    5.6340   23.2970 C.ar  183  TYR183      0.1957
     84  OH         1.7790    6.2760   24.4080 O.3   183  TYR183     -0.2866
@<TRIPOS>BOND
     1    65    64    2
     2    64    63    1
     3    63    66    1
     4    63    62    1
     5    54    53    1
     6    30    29    2
     7    53    52    1
     8    66    67    1
     9    29    28    1
    10    67    68    1
    11    52    51    1
    12    28    27    1
    13    28    31    1
    14    68    69    1
    15    38    39    1
    16     1     2    1
    17    42    39    1
    18    69    70    2
    19    35    37   ar
    20    35    33   ar
    21    51    48    1
    22    37    36   ar
    23    33    32   ar
    24    36    34   ar
    25    32    34   ar
    26    32    31    1
    27     4     3    2
    28     2     3    1
    29     2     5    1
    30    39    40    1
    31    70    72    1
    32    70    71    1
    33    58    57    2
    34    50    49    2
    35    48    49    1
    36    48    47    1
    37    40    41    2
    38    40    43   am
    39    49    55   am
    40     5     6    1
    41    75    76    2
    42    75    74    1
    43    47    45   am
    44    57    56    1
    45     7     6   ar
    46    43    44    1
    47     6     8   ar
    48    55    56    1
    49    45    44    1
    50    45    46    2
    51    56    59    1
    52    74    77    1
    53    74    73    1
    54    77    78    1
    55     9    10    1
    56    59    61    1
    57    59    60    1
    58    78    79   ar
    59    78    80   ar
    60    10    13    1
    61    10    11    1
    62    79    81   ar
    63    13    14    1
    64    22    24   ar
    65    22    20   ar
    66    80    82   ar
    67    19    20    1
    68    19    16    1
    69    11    15   am
    70    11    12    2
    71    15    16    1
    72    81    83   ar
    73    24    25   ar
    74    20    21   ar
    75    16    17    1
    76    18    17    2
    77    82    83   ar
    78    83    84    1
    79    25    26    1
    80    25    23   ar
    81    21    23   ar
