@<TRIPOS>MOLECULE
tmp/4kptA10.pdb
 69 64 0 0 0
SMALL
GASTEIGER

@<TRIPOS>ATOM
      1  N          2.5510    2.3230   29.1250 N.3    87  ALA87      -0.1245
      2  CA         1.7630    1.9250   30.2810 C.3    87  ALA87       0.1562
      3  C          1.5890    3.1550   31.1420 C.2    87  ALA87       0.2260
      4  O          2.3540    4.1200   31.0200 O.2    87  ALA87      -0.2867
      5  CB         2.4700    0.8300   31.0530 C.3    87  ALA87       0.0290
      6  N          1.1770    4.7400   35.0960 N.3    89  THR89      -0.1218
      7  CA         1.4170    4.4760   36.4930 C.3    89  THR89       0.1862
      8  C          1.3580    5.7820   37.2560 C.2    89  THR89       0.2287
      9  O          1.2670    6.8560   36.6530 O.2    89  THR89      -0.2866
     10  CB         2.7670    3.7610   36.7130 C.3    89  THR89       0.1770
     11  OG1        2.8290    3.2240   38.0390 O.3    89  THR89      -0.2211
     12  CG2        3.9410    4.7110   36.4910 C.3    89  THR89       0.0375
     13  N          4.5950    5.6970   31.8280 N.3   157  VAL157     -0.1245
     14  CA         5.9000    5.2170   32.2670 C.3   157  VAL157      0.1561
     15  C          7.0920    5.8610   31.5090 C.2   157  VAL157      0.2260
     16  O          8.0200    6.3330   32.1580 O.2   157  VAL157     -0.2867
     17  CB         5.9370    3.6680   32.2020 C.3   157  VAL157      0.0252
     18  CG1        7.3550    3.1330   32.3710 C.3   157  VAL157      0.0019
     19  CG2        5.0320    3.0920   33.2700 C.3   157  VAL157      0.0019
     20  N          9.7860    8.2560   33.2620 N.3   161  SER161     -0.1217
     21  CA        11.1550    7.7430   33.2250 C.3   161  SER161      0.1889
     22  C         12.1000    8.8180   32.7140 C.2   161  SER161      0.2288
     23  O         13.1980    8.9950   33.2410 O.2   161  SER161     -0.2866
     24  CB        11.2550    6.5400   32.2930 C.3   161  SER161      0.2089
     25  OG        10.5250    5.4270   32.7830 O.3   161  SER161     -0.2183
     26  N          8.6360    5.8090   40.7660 N.3   172  MET172     -0.1245
     27  CA         7.5560    4.9610   40.3150 C.3   172  MET172      0.1570
     28  C          7.5110    3.7220   41.2070 C.2   172  MET172      0.2261
     29  O          8.2150    2.7480   40.9500 O.2   172  MET172     -0.2867
     30  CB         7.7610    4.5350   38.8570 C.3   172  MET172      0.0387
     31  CG         7.5610    5.6520   37.8370 C.3   172  MET172      0.0595
     32  SD         7.6460    5.1340   36.1350 S.3   172  MET172     -0.1393
     33  CE         9.4060    4.9730   35.9510 C.3   172  MET172      0.0692
     34  N          4.4690    2.2550   42.0710 N.3   174  PHE174     -0.1228
     35  CA         3.2350    1.5080   41.7980 C.3   174  PHE174      0.1721
     36  C          3.4170    0.5410   40.6410 C.2   174  PHE174      0.2437
     37  O          4.2830    0.7330   39.7940 O.2   174  PHE174     -0.2733
     38  CB         2.0990    2.4360   41.3680 C.3   174  PHE174      0.0547
     39  CG         1.5290    3.2940   42.4610 C.ar  174  PHE174     -0.0202
     40  CD1        2.3020    4.2500   43.0970 C.ar  174  PHE174     -0.0042
     41  CD2        0.1880    3.1930   42.8000 C.ar  174  PHE174     -0.0042
     42  CE1        1.7640    5.0610   44.0720 C.ar  174  PHE174     -0.0003
     43  CE2       -0.3690    4.0080   43.7820 C.ar  174  PHE174     -0.0003
     44  CZ         0.4180    4.9520   44.4140 C.ar  174  PHE174     -0.0000
     45  N          2.5580   -0.4760   40.5750 N.am  175  PRO175     -0.2718
     46  CA         2.4740   -1.3120   39.3770 C.3   175  PRO175      0.1535
     47  C          1.9920   -0.5020   38.1970 C.2   175  PRO175      0.2599
     48  O          1.4030    0.5630   38.3640 O.2   175  PRO175     -0.2715
     49  CB         1.4050   -2.3460   39.7360 C.3   175  PRO175      0.0310
     50  CG         1.2520   -2.2750   41.1930 C.3   175  PRO175      0.0237
     51  CD         1.6330   -0.9090   41.6280 C.3   175  PRO175      0.0939
     52  N          2.2290   -1.0240   37.0030 N.am  176  SER176     -0.1950
     53  CA         1.7890   -0.3180   35.8150 C.3   176  SER176      0.1924
     54  C          0.5240   -0.9170   35.2080 C.2   176  SER176      0.2314
     55  O          0.1480   -2.0580   35.4830 O.2   176  SER176     -0.2863
     56  CB         2.9120   -0.2430   34.7790 C.3   176  SER176      0.2116
     57  OG         3.4550   -1.5230   34.5260 O.3   176  SER176     -0.2180
     58  N         13.8570    1.7660   31.3790 N.3   222  THR222     -0.1203
     59  CA        14.3790    0.4590   31.7580 C.3   222  THR222      0.1994
     60  C         13.2160   -0.4670   32.0810 C.2   222  THR222      0.2617
     61  O         12.0470   -0.1010   31.8980 O.2   222  THR222     -0.2717
     62  CB        15.2610    0.5520   33.0070 C.3   222  THR222      0.1784
     63  OG1       14.4450    0.8480   34.1470 O.3   222  THR222     -0.2211
     64  CG2       16.3060    1.6360   32.8390 C.3   222  THR222      0.0376
     65  N         13.5430   -1.6640   32.5530 N.am  223  ALA223     -0.1979
     66  CA        12.5490   -2.6460   32.9830 C.3   223  ALA223      0.1597
     67  C         11.6370   -3.0860   31.8420 C.2   223  ALA223      0.2287
     68  O         11.9880   -2.9720   30.6680 O.2   223  ALA223     -0.2864
     69  CB        11.7260   -2.1040   34.1510 C.3   223  ALA223      0.0319
@<TRIPOS>BOND
     1     1     2    1
     2     2     5    1
     3     2     3    1
     4    68    67    2
     5     4     3    2
     6    58    59    1
     7    15    16    2
     8    15    14    1
     9    59    60    1
    10    59    62    1
    11    13    14    1
    12    67    66    1
    13    61    60    2
    14    60    65   am
    15    17    14    1
    16    17    18    1
    17    17    19    1
    18    24    25    1
    19    24    21    1
    20    65    66    1
    21    22    21    1
    22    22    23    2
    23    64    62    1
    24    66    69    1
    25    62    63    1
    26    21    20    1
    27    57    56    1
    28    56    53    1
    29     6     7    1
    30    54    55    2
    31    54    53    1
    32    53    52    1
    33    33    32    1
    34    32    31    1
    35    12    10    1
    36     7    10    1
    37     7     8    1
    38     9     8    2
    39    10    11    1
    40    52    47   am
    41    31    30    1
    42    47    48    2
    43    47    46    1
    44    30    27    1
    45    46    49    1
    46    46    45    1
    47    49    50    1
    48    37    36    2
    49    27    26    1
    50    27    28    1
    51    45    36   am
    52    45    51    1
    53    36    35    1
    54    29    28    2
    55    50    51    1
    56    38    35    1
    57    38    39    1
    58    35    34    1
    59    39    41   ar
    60    39    40   ar
    61    41    43   ar
    62    40    42   ar
    63    43    44   ar
    64    42    44   ar
