@<TRIPOS>MOLECULE
tmp/4kpxA02.pdb
 172 160 0 0 0
SMALL
GASTEIGER

@<TRIPOS>ATOM
      1  N         -7.7060   31.5160   75.8860 N.3     8  LEU8       -0.1231
      2  CA        -9.1540   31.3100   75.9040 C.3     8  LEU8        0.1693
      3  C         -9.4950   30.3130   76.9930 C.2     8  LEU8        0.2592
      4  O         -8.9990   29.1860   76.9740 O.2     8  LEU8       -0.2718
      5  CB        -9.6600   30.8760   74.5240 C.3     8  LEU8        0.0284
      6  CG        -9.8780   32.0460   73.5280 C.3     8  LEU8        0.0019
      7  CD1       -8.5500   32.6070   73.0290 C.3     8  LEU8        0.0001
      8  CD2      -10.6900   31.5940   72.3410 C.3     8  LEU8        0.0001
      9  N        -10.3200   30.7280   77.9650 N.am    9  ALA9       -0.1966
     10  CA       -10.6140   29.8730   79.1280 C.3     9  ALA9        0.1728
     11  C        -12.0340   30.0820   79.6810 C.2     9  ALA9        0.2616
     12  O        -12.2780   29.8370   80.8700 O.2     9  ALA9       -0.2715
     13  CB        -9.5800   30.1740   80.2080 C.3     9  ALA9        0.0334
     14  N        -12.9740   30.5350   78.8230 N.am   10  ALA10      -0.1963
     15  CA       -14.3570   30.8590   79.2360 C.3    10  ALA10       0.1728
     16  C        -15.3270   29.6820   79.2260 C.2    10  ALA10       0.2616
     17  O        -16.4260   29.7930   79.7930 O.2    10  ALA10      -0.2715
     18  CB       -14.9120   32.0070   78.3880 C.3    10  ALA10       0.0334
     19  N        -14.9360   28.5980   78.5560 N.am   11  GLY11      -0.1955
     20  CA       -15.7500   27.3940   78.3870 C.3    11  GLY11       0.1869
     21  C        -16.3580   26.7720   79.6340 C.2    11  GLY11       0.2309
     22  O        -15.7170   26.7010   80.6850 O.2    11  GLY11      -0.2863
     23  N        -14.4690   24.3080   82.6230 N.3    22  LYS22      -0.1231
     24  CA       -13.6130   23.4200   81.8140 C.3    22  LYS22       0.1693
     25  C        -12.1050   23.4200   82.1210 C.2    22  LYS22       0.2591
     26  O        -11.5040   22.3580   82.2480 O.2    22  LYS22      -0.2718
     27  CB       -13.8160   23.7530   80.3290 C.3    22  LYS22       0.0285
     28  CG       -13.3010   22.7190   79.3500 C.3    22  LYS22       0.0035
     29  CD       -13.6400   23.1680   77.9530 C.3    22  LYS22       0.0206
     30  CE       -13.4830   22.0060   77.0170 C.3    22  LYS22       0.1093
     31  NZ       -13.5970   22.4240   75.6060 N.3    22  LYS22      -0.1314
     32  N        -11.4890   24.5890   82.1800 N.am   23  VAL23      -0.1980
     33  CA       -10.0300   24.6940   82.2660 C.3    23  VAL23       0.1595
     34  C         -9.4300   24.4660   83.6640 C.2    23  VAL23       0.2287
     35  O         -8.2140   24.3860   83.7750 O.2    23  VAL23      -0.2864
     36  CB        -9.5670   26.0340   81.6630 C.3    23  VAL23       0.0276
     37  CG1      -10.0730   26.1700   80.2220 C.3    23  VAL23       0.0022
     38  CG2      -10.0290   27.2040   82.5130 C.3    23  VAL23       0.0022
     39  N        -20.6150   34.2710   74.5940 N.3    76  GLN76      -0.1245
     40  CA       -19.7900   33.4010   73.7650 C.3    76  GLN76       0.1566
     41  C        -20.2610   33.5540   72.3130 C.2    76  GLN76       0.2260
     42  O        -21.2690   32.9660   71.9230 O.2    76  GLN76      -0.2867
     43  CB       -19.8710   31.9320   74.2510 C.3    76  GLN76       0.0367
     44  CG       -19.3720   31.7180   75.6880 C.3    76  GLN76       0.0905
     45  CD       -19.4720   30.2770   76.1550 C.2    76  GLN76       0.2608
     46  OE1      -18.4540   29.6240   76.4530 O.2    76  GLN76      -0.2717
     47  NE2      -20.7030   29.7580   76.2490 N.am   76  GLN76      -0.0878
     48  N        -14.4510   32.4750   68.8650 N.3    79  THR79      -0.1218
     49  CA       -13.0560   32.7050   69.2590 C.3    79  THR79       0.1862
     50  C        -12.5150   34.0800   68.8690 C.2    79  THR79       0.2287
     51  O        -11.7130   34.6200   69.6290 O.2    79  THR79      -0.2866
     52  CB       -12.1600   31.5870   68.7580 C.3    79  THR79       0.1770
     53  OG1      -12.3330   31.4710   67.3400 O.3    79  THR79      -0.2211
     54  CG2      -12.4600   30.2390   69.4580 C.3    79  THR79       0.0375
     55  N        -13.8180   36.4570   71.4610 N.3    82  ALA82      -0.1245
     56  CA       -13.0910   36.2170   72.7080 C.3    82  ALA82       0.1562
     57  C        -11.7560   36.9630   72.6850 C.2    82  ALA82       0.2260
     58  O        -11.4740   37.7300   73.6170 O.2    82  ALA82      -0.2867
     59  CB       -12.8700   34.7200   72.9220 C.3    82  ALA82       0.0290
     60  N         -5.0370   28.1970   74.1280 N.3   100  TYR100     -0.1241
     61  CA        -6.3290   27.6720   74.6060 C.3   100  TYR100      0.1605
     62  C         -6.1800   26.9620   75.9380 C.2   100  TYR100      0.2264
     63  O         -5.3410   26.0750   76.0620 O.2   100  TYR100     -0.2867
     64  CB        -6.9400   26.7490   73.5130 C.3   100  TYR100      0.0534
     65  CG        -7.1000   27.4920   72.1910 C.ar  100  TYR100     -0.0201
     66  CD1       -8.2040   28.3120   71.9550 C.ar  100  TYR100     -0.0009
     67  CD2       -6.0770   27.4950   71.2430 C.ar  100  TYR100     -0.0009
     68  CE1       -8.3140   29.0620   70.7780 C.ar  100  TYR100      0.0417
     69  CE2       -6.1810   28.2340   70.0630 C.ar  100  TYR100      0.0417
     70  CZ        -7.3100   28.9960   69.8250 C.ar  100  TYR100      0.1957
     71  OH        -7.3840   29.7230   68.6630 O.3   100  TYR100     -0.2866
     72  N         -7.8870   24.7910   77.4020 N.3   102  ASP102     -0.1225
     73  CA        -8.2460   23.3760   77.3430 C.3   102  ASP102      0.1805
     74  C         -7.2880   22.5510   76.4450 C.2   102  ASP102      0.2597
     75  O         -7.5450   21.3750   76.2070 O.2   102  ASP102     -0.2718
     76  CB        -9.7190   23.2140   76.9230 C.3   102  ASP102      0.1424
     77  CG        -9.9970   23.6830   75.4960 C.2   102  ASP102      0.3668
     78  OD1       -9.1590   24.4250   74.9390 O.co2 102  ASP102     -0.2456
     79  OD2      -11.0660   23.3360   74.9540 O.co2 102  ASP102     -0.2456
     80  N         -6.1930   23.1670   75.9510 N.am  103  ALA103     -0.1979
     81  CA        -5.1730   22.4680   75.1560 C.3   103  ALA103      0.1597
     82  C         -3.8890   22.7600   75.9490 C.2   103  ALA103      0.2287
     83  O         -3.1400   23.6690   75.6080 O.2   103  ALA103     -0.2864
     84  CB        -5.1140   23.0400   73.7420 C.3   103  ALA103      0.0319
     85  N         -0.5640   20.9700   62.1110 N.3   128  VAL128     -0.1245
     86  CA        -0.1860   19.6210   62.5110 C.3   128  VAL128      0.1561
     87  C         -0.6590   18.6320   61.4480 C.2   128  VAL128      0.2260
     88  O         -1.6850   18.8770   60.7910 O.2   128  VAL128     -0.2867
     89  CB        -0.6830   19.2910   63.9630 C.3   128  VAL128      0.0252
     90  CG1       -2.1880   19.0930   64.0340 C.3   128  VAL128      0.0019
     91  CG2        0.0600   18.1080   64.5530 C.3   128  VAL128      0.0019
     92  N         -2.1350   14.9990   60.3880 N.3   130  LEU130     -0.1245
     93  CA        -2.9590   13.9340   60.9570 C.3   130  LEU130      0.1561
     94  C         -3.1040   12.8210   59.9380 C.2   130  LEU130      0.2260
     95  O         -3.3100   13.1120   58.7630 O.2   130  LEU130     -0.2867
     96  CB        -4.3490   14.4620   61.3670 C.3   130  LEU130      0.0270
     97  CG        -4.4310   15.5830   62.4260 C.3   130  LEU130      0.0019
     98  CD1       -5.8640   15.8740   62.7670 C.3   130  LEU130      0.0001
     99  CD2       -3.7050   15.2180   63.7030 C.3   130  LEU130      0.0001
    100  N        -11.2150   18.3830   60.3750 N.3   136  TYR136     -0.1241
    101  CA       -10.3240   19.5270   60.6070 C.3   136  TYR136      0.1605
    102  C        -10.1150   20.3830   59.3580 C.2   136  TYR136      0.2264
    103  O        -10.2130   19.8740   58.2450 O.2   136  TYR136     -0.2867
    104  CB        -8.9750   19.0610   61.1700 C.3   136  TYR136      0.0534
    105  CG        -9.0470   18.4500   62.5530 C.ar  136  TYR136     -0.0201
    106  CD1       -9.1720   17.0730   62.7230 C.ar  136  TYR136     -0.0009
    107  CD2       -9.0030   19.2480   63.6940 C.ar  136  TYR136     -0.0009
    108  CE1       -9.2380   16.5040   63.9950 C.ar  136  TYR136      0.0417
    109  CE2       -9.0830   18.6900   64.9700 C.ar  136  TYR136      0.0417
    110  CZ        -9.1740   17.3150   65.1140 C.ar  136  TYR136      0.1957
    111  OH        -9.2590   16.7580   66.3650 O.3   136  TYR136     -0.2866
    112  N         -3.4610   20.1990   58.9950 N.3   165  VAL165     -0.1231
    113  CA        -4.6520   20.8530   59.5150 C.3   165  VAL165      0.1692
    114  C         -4.3230   22.0000   60.4440 C.2   165  VAL165      0.2592
    115  O         -3.2380   22.0600   61.0200 O.2   165  VAL165     -0.2718
    116  CB        -5.6620   19.8640   60.1650 C.3   165  VAL165      0.0266
    117  CG1       -6.0730   18.7600   59.1960 C.3   165  VAL165      0.0020
    118  CG2       -5.1330   19.2850   61.4780 C.3   165  VAL165      0.0020
    119  N         -5.3040   22.8950   60.6080 N.am  166  ASN166     -0.1960
    120  CA        -5.2510   24.0590   61.4820 C.3   166  ASN166      0.1819
    121  C         -5.4230   23.6450   62.9640 C.2   166  ASN166      0.2622
    122  O         -6.2820   22.8120   63.2810 O.2   166  ASN166     -0.2715
    123  CB        -6.3570   25.0360   61.0540 C.3   166  ASN166      0.1195
    124  CG        -6.5560   26.1900   61.9960 C.2   166  ASN166      0.2630
    125  OD1       -5.6130   26.8210   62.4770 O.2   166  ASN166     -0.2716
    126  ND2       -7.7950   26.4620   62.3010 N.am  166  ASN166     -0.0877
    127  N         -4.6170   24.2540   63.8630 N.am  167  THR167     -0.1937
    128  CA        -4.6680   23.9890   65.3130 C.3   167  THR167      0.2028
    129  C         -5.3830   25.1000   66.1170 C.2   167  THR167      0.2642
    130  O         -5.7490   24.8670   67.2790 O.2   167  THR167     -0.2714
    131  CB        -3.2570   23.8220   65.9170 C.3   167  THR167      0.1808
    132  OG1       -2.6060   25.0900   65.8920 O.3   167  THR167     -0.2208
    133  CG2       -2.4210   22.7300   65.2340 C.3   167  THR167      0.0379
    134  N         -5.4840   26.2950   65.5260 N.am  168  GLY168     -0.1954
    135  CA        -6.0510   27.4880   66.1610 C.3   168  GLY168      0.1869
    136  C         -4.9760   28.3910   66.7520 C.2   168  GLY168      0.2309
    137  O         -5.2220   29.5690   67.0050 O.2   168  GLY168     -0.2863
    138  N          1.2750   15.9750   68.0360 N.3   217  VAL217     -0.1245
    139  CA        -0.1720   16.2090   67.9220 C.3   217  VAL217      0.1561
    140  C         -0.7470   16.5320   69.3110 C.2   217  VAL217      0.2260
    141  O         -1.6160   17.3920   69.4420 O.2   217  VAL217     -0.2867
    142  CB        -0.8930   14.9630   67.3270 C.3   217  VAL217      0.0252
    143  CG1       -2.4130   15.1520   67.2860 C.3   217  VAL217      0.0019
    144  CG2       -0.3610   14.6350   65.9370 C.3   217  VAL217      0.0019
    145  N         -1.3820   20.0560   70.7110 N.3   220  VAL220     -0.1231
    146  CA        -2.4750   20.8670   70.1900 C.3   220  VAL220      0.1692
    147  C         -3.8360   20.2970   70.5590 C.2   220  VAL220      0.2592
    148  O         -4.8330   20.9890   70.3850 O.2   220  VAL220     -0.2718
    149  CB        -2.3160   21.1300   68.6610 C.3   220  VAL220      0.0266
    150  CG1       -0.9520   21.7510   68.3560 C.3   220  VAL220      0.0020
    151  CG2       -2.5310   19.8540   67.8360 C.3   220  VAL220      0.0020
    152  N         -3.8810   19.0420   71.0690 N.am  221  GLU221     -0.1966
    153  CA        -5.1160   18.3620   71.4730 C.3   221  GLU221      0.1733
    154  C         -5.7810   19.0760   72.6430 C.2   221  GLU221      0.2616
    155  O         -5.1110   19.4460   73.5980 O.2   221  GLU221     -0.2715
    156  CB        -4.8330   16.8910   71.8780 C.3   221  GLU221      0.0429
    157  CG        -4.5260   15.9840   70.7000 C.3   221  GLU221      0.1163
    158  CD        -5.6880   15.6320   69.7880 C.2   221  GLU221      0.3649
    159  OE1       -6.8500   15.9280   70.1420 O.co2 221  GLU221     -0.2457
    160  OE2       -5.4350   15.0250   68.7250 O.co2 221  GLU221     -0.2457
    161  N         -7.0870   19.2470   72.5610 N.am  222  GLY222     -0.1955
    162  CA        -7.8880   19.8540   73.6180 C.3   222  GLY222      0.1869
    163  C         -8.6900   18.8070   74.3690 C.2   222  GLY222      0.2309
    164  O         -9.0090   17.7640   73.8020 O.2   222  GLY222     -0.2863
    165  N        -12.1600   17.8670   76.0040 N.3   224  ASN224     -0.1240
    166  CA       -13.5850   18.2040   76.0420 C.3   224  ASN224      0.1653
    167  C        -14.3490   17.3840   77.0730 C.2   224  ASN224      0.2266
    168  O        -15.4660   17.7390   77.4440 O.2   224  ASN224     -0.2867
    169  CB       -14.1980   17.9770   74.6460 C.3   224  ASN224      0.1155
    170  CG       -13.7170   18.9690   73.6180 C.2   224  ASN224      0.2627
    171  OD1      -13.3700   20.1100   73.9240 O.2   224  ASN224     -0.2716
    172  ND2      -13.7350   18.5750   72.3690 N.am  224  ASN224     -0.0877
@<TRIPOS>BOND
     1   103   102    2
     2    95    94    2
     3   112   113    1
     4   117   116    1
     5   102   101    1
     6   113   116    1
     7   113   114    1
     8    94    93    1
     9   116   118    1
    10   100   101    1
    11    92    93    1
    12   114   119   am
    13   114   115    2
    14   101   104    1
    15   119   120    1
    16    88    87    2
    17    93    96    1
    18   123   120    1
    19   123   124    1
    20   104   105    1
    21    96    97    1
    22    87    86    1
    23   120   121    1
    24   124   126   am
    25   124   125    2
    26    85    86    1
    27    97    98    1
    28    97    99    1
    29    86    89    1
    30   105   106   ar
    31   105   107   ar
    32   106   108   ar
    33   121   122    2
    34   121   127   am
    35   107   109   ar
    36   127   128    1
    37    89    90    1
    38    89    91    1
    39   108   110   ar
    40   109   110   ar
    41   110   111    1
    42   133   131    1
    43   128   131    1
    44   128   129    1
    45   134   129   am
    46   134   135    1
    47   132   131    1
    48   144   142    1
    49   129   130    2
    50   135   136    1
    51   136   137    2
    52   143   142    1
    53   142   139    1
    54    53    52    1
    55   151   149    1
    56   139   138    1
    57   139   140    1
    58   150   149    1
    59   149   146    1
    60    71    70    1
    61   160   158   ar
    62    52    49    1
    63    52    54    1
    64    48    49    1
    65    50    49    1
    66    50    51    2
    67   140   141    2
    68   158   159   ar
    69   158   157    1
    70    70    69   ar
    71    70    68   ar
    72    69    67   ar
    73   146   147    1
    74   146   145    1
    75   148   147    2
    76   147   152   am
    77   157   156    1
    78    68    66   ar
    79   152   153    1
    80    67    65   ar
    81    55    56    1
    82   153   156    1
    83   153   154    1
    84    42    41    2
    85    66    65   ar
    86    65    64    1
    87    41    40    1
    88     8     6    1
    89   172   170   am
    90   161   154   am
    91   161   162    1
    92   154   155    2
    93    57    56    1
    94    57    58    2
    95    56    59    1
    96     7     6    1
    97    64    61    1
    98     6     5    1
    99   170   171    2
   100   170   169    1
   101   162   163    1
   102    84    81    1
   103    40    43    1
   104    40    39    1
   105   164   163    2
   106    60    61    1
   107    43    44    1
   108     5     2    1
   109    61    62    1
   110   169   166    1
   111    78    77   ar
   112    79    77   ar
   113    81    82    1
   114    81    80    1
   115    77    76    1
   116    31    30    1
   117    83    82    2
   118    44    45    1
   119     1     2    1
   120     2     3    1
   121    62    63    2
   122    80    74   am
   123   165   166    1
   124   166   167    1
   125    45    47   am
   126    45    46    2
   127    75    74    2
   128    74    73    1
   129    76    73    1
   130     4     3    2
   131     3     9   am
   132    30    29    1
   133   167   168    2
   134    73    72    1
   135    29    28    1
   136     9    10    1
   137    20    19    1
   138    20    21    1
   139    18    15    1
   140    19    16   am
   141    14    15    1
   142    14    11   am
   143    10    11    1
   144    10    13    1
   145    16    15    1
   146    16    17    2
   147    28    27    1
   148    21    22    2
   149    11    12    2
   150    37    36    1
   151    27    24    1
   152    36    33    1
   153    36    38    1
   154    24    25    1
   155    24    23    1
   156    25    32   am
   157    25    26    2
   158    32    33    1
   159    33    34    1
   160    34    35    2
