@<TRIPOS>MOLECULE
tmp/4kpzA00.pdb
 109 100 0 0 0
SMALL
GASTEIGER

@<TRIPOS>ATOM
      1  N         85.7100   40.6050   32.8940 N.3     8  LEU8       -0.1231
      2  CA        86.2720   39.2510   32.8860 C.3     8  LEU8        0.1693
      3  C         85.5480   38.4130   31.8420 C.2     8  LEU8        0.2592
      4  O         84.3320   38.2360   31.9220 O.2     8  LEU8       -0.2718
      5  CB        86.1610   38.5920   34.2650 C.3     8  LEU8        0.0284
      6  CG        87.1770   39.0620   35.3100 C.3     8  LEU8        0.0019
      7  CD1       86.9070   40.4940   35.7340 C.3     8  LEU8        0.0001
      8  CD2       87.1690   38.1410   36.5190 C.3     8  LEU8        0.0001
      9  N         86.3010   37.9040   30.8700 N.am    9  ALA9       -0.1966
     10  CA        85.7260   37.1810   29.7380 C.3     9  ALA9        0.1728
     11  C         86.6150   36.0480   29.2250 C.2     9  ALA9        0.2616
     12  O         86.5170   35.6680   28.0580 O.2     9  ALA9       -0.2715
     13  CB        85.4340   38.1640   28.6100 C.3     9  ALA9        0.0334
     14  N         87.4500   35.4860   30.0970 N.am   10  ALA10      -0.1963
     15  CA        88.4670   34.5050   29.6850 C.3    10  ALA10       0.1728
     16  C         87.9730   33.0510   29.6530 C.2    10  ALA10       0.2616
     17  O         88.7240   32.1500   29.2610 O.2    10  ALA10      -0.2715
     18  CB        89.6890   34.6140   30.5930 C.3    10  ALA10       0.0334
     19  N         86.7190   32.8280   30.0380 N.am   11  GLY11      -0.1955
     20  CA        86.2060   31.4800   30.2890 C.3    11  GLY11       0.1869
     21  C         85.9270   30.6050   29.0770 C.2    11  GLY11       0.2309
     22  O         85.4620   31.0740   28.0370 O.2    11  GLY11      -0.2863
     23  N         82.8600   31.1970   26.1580 N.3    22  LYS22      -0.1231
     24  CA        81.6420   31.3900   26.9460 C.3    22  LYS22       0.1693
     25  C         80.8690   32.6820   26.6600 C.2    22  LYS22       0.2591
     26  O         79.6430   32.6570   26.5260 O.2    22  LYS22      -0.2718
     27  CB        81.9860   31.3390   28.4340 C.3    22  LYS22       0.0285
     28  CG        80.7850   31.1890   29.3510 C.3    22  LYS22       0.0035
     29  CD        81.2080   31.2560   30.8080 C.3    22  LYS22       0.0206
     30  CE        80.0780   30.8160   31.7090 C.3    22  LYS22       0.1093
     31  NZ        80.3240   31.1180   33.1460 N.3    22  LYS22      -0.1314
     32  N         81.5760   33.8040   26.5730 N.am   23  VAL23      -0.1980
     33  CA        80.9140   35.1110   26.5210 C.3    23  VAL23       0.1595
     34  C         80.4230   35.5320   25.1280 C.2    23  VAL23       0.2287
     35  O         79.7650   36.5630   25.0020 O.2    23  VAL23      -0.2864
     36  CB        81.8180   36.2270   27.0990 C.3    23  VAL23       0.0276
     37  CG1       82.2160   35.8940   28.5380 C.3    23  VAL23       0.0022
     38  CG2       83.0490   36.4420   26.2220 C.3    23  VAL23       0.0022
     39  N         89.4960   41.2800   29.7200 N.3    51  ILE51      -0.1245
     40  CA        90.3290   40.1380   30.0700 C.3    51  ILE51       0.1561
     41  C         89.8250   38.9280   29.2840 C.2    51  ILE51       0.2260
     42  O         88.7080   38.4630   29.5050 O.2    51  ILE51      -0.2867
     43  CB        90.2850   39.8150   31.5870 C.3    51  ILE51       0.0252
     44  CG1       90.4750   41.0790   32.4420 C.3    51  ILE51       0.0019
     45  CG2       91.3410   38.7740   31.9270 C.3    51  ILE51       0.0019
     46  CD1       91.7380   41.8610   32.1360 C.3    51  ILE51       0.0001
     47  N         94.8920   36.7580   29.3760 N.3    73  GLN73      -0.1245
     48  CA        95.1790   36.0210   30.5980 C.3    73  GLN73       0.1566
     49  C         95.4650   34.5650   30.2250 C.2    73  GLN73       0.2260
     50  O         94.5380   33.7890   29.9780 O.2    73  GLN73      -0.2867
     51  CB        93.9890   36.1060   31.5570 C.3    73  GLN73       0.0367
     52  CG        94.2430   35.4960   32.9340 C.3    73  GLN73       0.0905
     53  CD        92.9680   35.2550   33.7300 C.2    73  GLN73       0.2608
     54  OE1       91.8840   35.0960   33.1640 O.2    73  GLN73      -0.2717
     55  NE2       93.0960   35.2130   35.0510 N.am   73  GLN73      -0.0878
     56  N         94.0450   30.8930   33.9310 N.3    76  GLN76      -0.1245
     57  CA        92.9190   31.3330   34.7550 C.3    76  GLN76       0.1566
     58  C         93.1670   30.9890   36.2210 C.2    76  GLN76       0.2260
     59  O         92.5960   30.0340   36.7570 O.2    76  GLN76      -0.2867
     60  CB        91.6060   30.7060   34.2720 C.3    76  GLN76       0.0367
     61  CG        91.0760   31.2980   32.9770 C.3    76  GLN76       0.0905
     62  CD        89.5950   31.0340   32.7870 C.2    76  GLN76       0.2608
     63  OE1       88.7800   31.9580   32.8140 O.2    76  GLN76      -0.2717
     64  NE2       89.2360   29.7660   32.6090 N.am   76  GLN76      -0.0878
     65  N         92.3860   32.8670   38.7730 N.3    78  GLY78      -0.1210
     66  CA        91.3700   33.4590   39.6450 C.3    78  GLY78       0.1956
     67  C         90.9750   34.8660   39.2470 C.2    78  GLY78       0.2612
     68  O         91.6730   35.5280   38.4770 O.2    78  GLY78      -0.2717
     69  N         89.8540   35.3260   39.7940 N.am   79  THR79      -0.1952
     70  CA        89.3100   36.6370   39.4500 C.3    79  THR79       0.1897
     71  C         90.2420   37.7900   39.8380 C.2    79  THR79       0.2313
     72  O         90.2990   38.7990   39.1360 O.2    79  THR79      -0.2863
     73  CB        87.9250   36.8490   40.0800 C.3    79  THR79       0.1794
     74  OG1       87.9900   36.6140   41.4930 O.3    79  THR79      -0.2208
     75  CG2       86.9090   35.8990   39.4520 C.3    79  THR79       0.0378
     76  N         93.0030   37.7450   37.2410 N.3    82  ALA82      -0.1245
     77  CA        92.4430   38.3150   36.0180 C.3    82  ALA82       0.1562
     78  C         92.5010   39.8440   36.0380 C.2    82  ALA82       0.2260
     79  O         93.0330   40.4640   35.1140 O.2    82  ALA82      -0.2867
     80  CB        91.0020   37.8420   35.8290 C.3    82  ALA82       0.0290
     81  N         81.5100   41.2110   34.8360 N.3   100  TYR100     -0.1241
     82  CA        81.7110   39.8510   34.3440 C.3   100  TYR100      0.1605
     83  C         81.0090   39.6750   33.0050 C.2   100  TYR100      0.2264
     84  O         79.8390   40.0350   32.8560 O.2   100  TYR100     -0.2867
     85  CB        81.2250   38.8460   35.3920 C.3   100  TYR100      0.0534
     86  CG        81.9200   39.0650   36.7190 C.ar  100  TYR100     -0.0201
     87  CD1       83.1410   38.4560   36.9940 C.ar  100  TYR100     -0.0009
     88  CD2       81.3890   39.9260   37.6720 C.ar  100  TYR100     -0.0009
     89  CE1       83.7990   38.6730   38.1940 C.ar  100  TYR100      0.0417
     90  CE2       82.0390   40.1490   38.8790 C.ar  100  TYR100      0.0417
     91  CZ        83.2460   39.5200   39.1330 C.ar  100  TYR100      0.1957
     92  OH        83.9040   39.7380   40.3230 O.3   100  TYR100     -0.2866
     93  N         79.8920   37.1870   31.4120 N.3   102  ASP102     -0.1239
     94  CA        78.7920   36.2250   31.3500 C.3   102  ASP102      0.1674
     95  C         77.5560   36.6760   32.1480 C.2   102  ASP102      0.2266
     96  O         76.6430   35.8810   32.3680 O.2   102  ASP102     -0.2867
     97  CB        79.2620   34.8350   31.8080 C.3   102  ASP102      0.1410
     98  CG        79.6940   34.7940   33.2760 C.2   102  ASP102      0.3668
     99  OD1       79.7500   35.8530   33.9380 O.co2 102  ASP102     -0.2456
    100  OD2       79.9940   33.6830   33.7640 O.co2 102  ASP102     -0.2456
    101  N         93.0940   29.4080   44.1760 N.3   192  GLU192     -0.1245
    102  CA        92.8630   30.5500   43.2900 C.3   192  GLU192      0.1567
    103  C         92.9810   31.8770   44.0270 C.2   192  GLU192      0.2260
    104  O         92.7330   31.9540   45.2310 O.2   192  GLU192     -0.2867
    105  CB        91.4720   30.4620   42.6610 C.3   192  GLU192      0.0388
    106  CG        91.3420   29.3940   41.5910 C.3   192  GLU192      0.1160
    107  CD        89.9920   29.4160   40.8940 C.2   192  GLU192      0.3649
    108  OE1       89.2420   30.4070   41.0410 O.co2 192  GLU192     -0.2457
    109  OE2       89.6850   28.4330   40.1900 O.co2 192  GLU192     -0.2457
@<TRIPOS>BOND
     1    35    34    2
     2    34    33    1
     3    23    24    1
     4    38    36    1
     5    33    32    1
     6    33    36    1
     7    26    25    2
     8    32    25   am
     9    25    24    1
    10    24    27    1
    11    36    37    1
    12    22    21    2
    13    12    11    2
    14    27    28    1
    15    13    10    1
    16    21    20    1
    17    11    10    1
    18    11    14   am
    19    17    16    2
    20    41    42    2
    21    41    40    1
    22    28    29    1
    23    47    48    1
    24    16    15    1
    25    16    19   am
    26    15    14    1
    27    15    18    1
    28    39    40    1
    29    10     9    1
    30    50    49    2
    31    19    20    1
    32    40    43    1
    33    49    48    1
    34    48    51    1
    35    29    30    1
    36     9     3   am
    37    94    93    1
    38    94    97    1
    39    94    95    1
    40    51    52    1
    41    43    45    1
    42    43    44    1
    43    30    31    1
    44    97    98    1
    45     3     4    2
    46     3     2    1
    47    46    44    1
    48    95    96    2
    49    64    62   am
    50    62    63    2
    51    62    61    1
    52    84    83    2
    53     2     1    1
    54     2     5    1
    55    52    53    1
    56    61    60    1
    57    83    82    1
    58    54    53    2
    59    98   100   ar
    60    98    99   ar
    61    53    55   am
    62    56    57    1
    63     5     6    1
    64    60    57    1
    65    82    81    1
    66    82    85    1
    67    57    58    1
    68    79    78    2
    69     6     7    1
    70     6     8    1
    71    85    86    1
    72    80    77    1
    73    77    78    1
    74    77    76    1
    75    58    59    2
    76    86    87   ar
    77    86    88   ar
    78    87    89   ar
    79    88    90   ar
    80    89    91   ar
    81    68    67    2
    82    65    66    1
    83    90    91   ar
    84    91    92    1
    85    72    71    2
    86    67    66    1
    87    67    69   am
    88    70    69    1
    89    70    71    1
    90    70    73    1
    91    75    73    1
    92    73    74    1
    93   109   107   ar
    94   107   108   ar
    95   107   106    1
    96   106   105    1
    97   105   102    1
    98   102   103    1
    99   102   101    1
   100   103   104    2
