@<TRIPOS>MOLECULE
tmp/4kq2D02.pdb
 112 106 0 0 0
SMALL
GASTEIGER

@<TRIPOS>ATOM
      1  N          8.2000   34.5390  122.0910 N.3    22  GLY22      -0.1225
      2  CA         9.4400   34.4510  122.8570 C.3    22  GLY22       0.1811
      3  C          9.8760   33.0290  123.1490 C.2    22  GLY22       0.2280
      4  O         11.0480   32.7800  123.4210 O.2    22  GLY22      -0.2866
      5  N         14.4720   49.2100  124.3250 N.3   315  ALA315     -0.1231
      6  CA        14.2240   48.4530  123.0820 C.3   315  ALA315      0.1694
      7  C         13.4220   47.1760  123.2450 C.2   315  ALA315      0.2593
      8  O         13.4620   46.5100  124.2840 O.2   315  ALA315     -0.2718
      9  CB        15.5290   48.1470  122.3630 C.3   315  ALA315      0.0304
     10  N         12.7060   46.8210  122.1920 N.am  316  GLY316     -0.1942
     11  CA        11.8050   45.6950  122.2540 C.3   316  GLY316      0.2014
     12  C         10.4950   46.0000  121.5820 C.2   316  GLY316      0.2638
     13  O         10.3940   46.9370  120.7980 O.2   316  GLY316     -0.2714
     14  N          9.4970   45.1800  121.8800 N.am  317  ARG317     -0.1977
     15  CA         8.1620   45.3530  121.3410 C.3   317  ARG317      0.1597
     16  C          7.5610   46.6380  121.8700 C.2   317  ARG317      0.2287
     17  O          7.8050   47.0100  123.0140 O.2   317  ARG317     -0.2864
     18  CB         7.2860   44.1560  121.7100 C.3   317  ARG317      0.0334
     19  CG         7.4770   42.9650  120.7810 C.3   317  ARG317      0.0492
     20  CD         6.4850   41.8410  121.0570 C.3   317  ARG317      0.2205
     21  NE         6.9700   40.9040  122.0710 N.pl3 317  ARG317     -0.0865
     22  CZ         6.6840   40.9720  123.3700 C.cat 317  ARG317      0.5346
     23  NH1        5.9060   41.9350  123.8370 N.pl3 317  ARG317      0.1354
     24  NH2        7.1760   40.0690  124.2070 N.pl3 317  ARG317      0.1354
     25  N          6.3960   47.7790  128.8570 N.3   323  LYS323     -0.1245
     26  CA         7.8350   47.8830  128.7000 C.3   323  LYS323      0.1561
     27  C          8.3790   49.0510  129.5240 C.2   323  LYS323      0.2260
     28  O          9.5790   49.1040  129.8150 O.2   323  LYS323     -0.2867
     29  CB         8.2300   47.9970  127.2220 C.3   323  LYS323      0.0271
     30  CG         8.7560   46.7180  126.5850 C.3   323  LYS323      0.0035
     31  CD         9.9650   46.1840  127.3550 C.3   323  LYS323      0.0206
     32  CE        11.1350   45.7910  126.4540 C.3   323  LYS323      0.1093
     33  NZ        10.9240   44.5440  125.6660 N.3   323  LYS323     -0.1314
     34  N         14.1470   52.2100  120.5130 N.3   353  VAL353     -0.1245
     35  CA        13.9870   51.3600  119.3290 C.3   353  VAL353      0.1561
     36  C         12.8130   50.4470  119.5160 C.2   353  VAL353      0.2260
     37  O         12.9660   49.3630  120.0600 O.2   353  VAL353     -0.2867
     38  CB        15.1950   50.4570  119.0580 C.3   353  VAL353      0.0252
     39  CG1       15.2020   50.0800  117.6010 C.3   353  VAL353      0.0019
     40  CG2       16.4960   51.1530  119.3650 C.3   353  VAL353      0.0019
     41  N         12.9460   48.2170  114.3130 N.3   477  PHE477     -0.1227
     42  CA        14.0550   47.3060  114.6820 C.3   477  PHE477      0.1736
     43  C         15.3000   47.5940  113.8750 C.2   477  PHE477      0.2595
     44  O         15.1980   47.9230  112.6860 O.2   477  PHE477     -0.2718
     45  CB        13.6890   45.8360  114.4120 C.3   477  PHE477      0.0547
     46  CG        12.6760   45.2680  115.3620 C.ar  477  PHE477     -0.0202
     47  CD1       12.8500   45.3810  116.7370 C.ar  477  PHE477     -0.0042
     48  CD2       11.5520   44.6150  114.8800 C.ar  477  PHE477     -0.0042
     49  CE1       11.9180   44.8730  117.6140 C.ar  477  PHE477     -0.0003
     50  CE2       10.6100   44.1000  115.7560 C.ar  477  PHE477     -0.0003
     51  CZ        10.7970   44.2270  117.1240 C.ar  477  PHE477     -0.0000
     52  N         16.4720   47.4450  114.4960 N.am  478  LEU478     -0.1980
     53  CA        17.7220   47.7750  113.7990 C.3   478  LEU478      0.1596
     54  C         18.0600   46.7440  112.7390 C.2   478  LEU478      0.2287
     55  O         17.2790   45.8380  112.5150 O.2   478  LEU478     -0.2864
     56  CB        18.8620   48.0290  114.7760 C.3   478  LEU478      0.0297
     57  CG        18.5550   49.2670  115.6250 C.3   478  LEU478      0.0022
     58  CD1       19.6020   49.4790  116.7050 C.3   478  LEU478      0.0001
     59  CD2       18.4090   50.5100  114.7500 C.3   478  LEU478      0.0001
     60  N         21.0320   44.8350  115.5830 N.3   489  TYR489     -0.1241
     61  CA        20.6680   45.1390  116.9630 C.3   489  TYR489      0.1605
     62  C         21.7860   44.8510  117.9600 C.2   489  TYR489      0.2264
     63  O         22.1520   45.7120  118.7630 O.2   489  TYR489     -0.2867
     64  CB        19.3990   44.4100  117.3940 C.3   489  TYR489      0.0534
     65  CG        19.0200   44.7090  118.8340 C.ar  489  TYR489     -0.0201
     66  CD1       18.7270   46.0170  119.2400 C.ar  489  TYR489     -0.0009
     67  CD2       18.9630   43.6950  119.7950 C.ar  489  TYR489     -0.0009
     68  CE1       18.3790   46.3030  120.5520 C.ar  489  TYR489      0.0417
     69  CE2       18.6160   43.9710  121.1180 C.ar  489  TYR489      0.0417
     70  CZ        18.3260   45.2790  121.4870 C.ar  489  TYR489      0.1957
     71  OH        17.9830   45.5870  122.7830 O.3   489  TYR489     -0.2866
     72  N          6.7320   41.7950  132.5690 N.3   506  GLU506     -0.1245
     73  CA         7.7020   41.1090  131.7740 C.3   506  GLU506      0.1567
     74  C          7.9290   39.8350  132.5490 C.2   506  GLU506      0.2260
     75  O          8.5660   39.8670  133.6090 O.2   506  GLU506     -0.2867
     76  CB         8.9860   41.9300  131.7030 C.3   506  GLU506      0.0388
     77  CG        10.0390   41.3840  130.7620 C.3   506  GLU506      0.1160
     78  CD        11.2300   42.3110  130.6230 C.2   506  GLU506      0.3649
     79  OE1       11.6460   42.5500  129.4590 O.co2 506  GLU506     -0.2457
     80  OE2       11.7490   42.7950  131.6710 O.co2 506  GLU506     -0.2457
     81  N         11.9890   38.6020  129.6240 N.3   509  GLY509     -0.1210
     82  CA        12.7410   39.6410  128.9390 C.3   509  GLY509      0.1956
     83  C         14.2010   39.3170  128.7360 C.2   509  GLY509      0.2612
     84  O         15.0130   39.3550  129.6780 O.2   509  GLY509     -0.2717
     85  N         14.5310   39.0240  127.4850 N.am  510  TYR510     -0.1962
     86  CA        15.8710   38.6410  127.1300 C.3   510  TYR510      0.1771
     87  C         16.6440   39.8920  126.8420 C.2   510  TYR510      0.2620
     88  O         17.8640   39.8560  126.7610 O.2   510  TYR510     -0.2715
     89  CB        15.8490   37.7260  125.9090 C.3   510  TYR510      0.0574
     90  CG        14.8690   36.5780  126.0430 C.ar  510  TYR510     -0.0198
     91  CD1       13.4880   36.8200  126.0970 C.ar  510  TYR510     -0.0009
     92  CD2       15.3140   35.2530  126.1160 C.ar  510  TYR510     -0.0009
     93  CE1       12.5820   35.7870  126.2240 C.ar  510  TYR510      0.0417
     94  CE2       14.4100   34.2060  126.2380 C.ar  510  TYR510      0.0417
     95  CZ        13.0470   34.4830  126.2910 C.ar  510  TYR510      0.1957
     96  OH        12.1280   33.4690  126.4160 O.3   510  TYR510     -0.2866
     97  N         15.9200   41.0030  126.7040 N.am  511  THR511     -0.1951
     98  CA        16.5000   42.3000  126.3360 C.3   511  THR511      0.1897
     99  C         17.5600   42.7680  127.3400 C.2   511  THR511      0.2313
    100  O         18.6900   43.0660  126.9370 O.2   511  THR511     -0.2863
    101  CB        15.4230   43.3670  126.0680 C.3   511  THR511      0.1794
    102  OG1       14.2800   43.0980  126.8870 O.3   511  THR511     -0.2208
    103  CG2       14.9950   43.3280  124.6010 C.3   511  THR511      0.0378
    104  N         20.2320   39.5910  127.2280 N.3   514  GLU514     -0.1245
    105  CA        21.1730   39.7490  126.1180 C.3   514  GLU514      0.1567
    106  C         22.1670   40.8500  126.4660 C.2   514  GLU514      0.2260
    107  O         23.3710   40.6990  126.2840 O.2   514  GLU514     -0.2867
    108  CB        20.4580   40.1270  124.8230 C.3   514  GLU514      0.0388
    109  CG        19.4000   39.1490  124.3530 C.3   514  GLU514      0.1160
    110  CD        18.5230   39.7290  123.2580 C.2   514  GLU514      0.3649
    111  OE1       17.2900   39.7670  123.4460 O.co2 514  GLU514     -0.2457
    112  OE2       19.0600   40.1530  122.2090 O.co2 514  GLU514     -0.2457
@<TRIPOS>BOND
     1    55    54    2
     2    44    43    2
     3    54    53    1
     4    53    52    1
     5    53    56    1
     6    43    52   am
     7    43    42    1
     8    41    42    1
     9    45    42    1
    10    45    46    1
    11    59    57    1
    12    56    57    1
    13    48    46   ar
    14    48    50   ar
    15    46    47   ar
    16    60    61    1
    17    57    58    1
    18    50    51   ar
    19    47    49   ar
    20    61    64    1
    21    61    62    1
    22    51    49   ar
    23    64    65    1
    24    39    38    1
    25    62    63    2
    26    65    66   ar
    27    65    67   ar
    28    38    35    1
    29    38    40    1
    30    66    68   ar
    31    35    36    1
    32    35    34    1
    33    36    37    2
    34    67    69   ar
    35    68    70   ar
    36    19    20    1
    37    19    18    1
    38    13    12    2
    39    20    21    1
    40    69    70   ar
    41    15    18    1
    42    15    16    1
    43    15    14    1
    44    70    71    1
    45    12    14   am
    46    12    11    1
    47    16    17    2
    48    21    22    2
    49     1     2    1
    50    10    11    1
    51    10     7   am
    52   112   110   ar
    53     9     6    1
    54     2     3    1
    55     6     7    1
    56     6     5    1
    57     3     4    2
    58     7     8    2
    59   110   111   ar
    60   110   109    1
    61    22    23    1
    62    22    24    1
    63   109   108    1
    64   103   101    1
    65   108   105    1
    66    33    32    1
    67    89    90    1
    68    89    86    1
    69    90    91   ar
    70    90    92   ar
    71   101    98    1
    72   101   102    1
    73    91    93   ar
    74    92    94   ar
    75   105   106    1
    76   105   104    1
    77    93    95   ar
    78    94    95   ar
    79   107   106    2
    80    95    96    1
    81    98    97    1
    82    98    99    1
    83    32    31    1
    84    30    29    1
    85    30    31    1
    86    97    87   am
    87    88    87    2
    88    87    86    1
    89   100    99    2
    90    86    85    1
    91    29    26    1
    92    85    83   am
    93    26    25    1
    94    26    27    1
    95    83    82    1
    96    83    84    2
    97    82    81    1
    98    79    78   ar
    99    27    28    2
   100    78    77    1
   101    78    80   ar
   102    77    76    1
   103    76    73    1
   104    73    74    1
   105    73    72    1
   106    74    75    2
