@<TRIPOS>MOLECULE
tmp/4kq2C01.pdb
 138 135 0 0 0
SMALL
GASTEIGER

@<TRIPOS>ATOM
      1  N         70.3710   41.3590   69.8630 N.3    22  GLY22      -0.1210
      2  CA        69.2210   42.1480   69.4010 C.3    22  GLY22       0.1956
      3  C         68.3910   41.4130   68.3630 C.2    22  GLY22       0.2611
      4  O         67.3000   41.8510   67.9960 O.2    22  GLY22      -0.2717
      5  N         68.9270   40.2840   67.9060 N.am   23  ILE23      -0.1979
      6  CA        68.2890   39.3750   66.9470 C.3    23  ILE23       0.1595
      7  C         67.0710   38.6500   67.5470 C.2    23  ILE23       0.2287
      8  O         66.2200   38.1300   66.8150 O.2    23  ILE23      -0.2864
      9  CB        69.3280   38.3400   66.4370 C.3    23  ILE23       0.0276
     10  CG1       70.5920   39.0600   65.9370 C.3    23  ILE23       0.0022
     11  CG2       68.7410   37.4370   65.3550 C.3    23  ILE23       0.0022
     12  CD1       71.8900   38.3470   66.2510 C.3    23  ILE23       0.0001
     13  N         63.7280   41.2200   67.3720 N.3    26  VAL26      -0.1245
     14  CA        63.2180   41.2760   65.9950 C.3    26  VAL26       0.1561
     15  C         62.2940   40.0990   65.7020 C.2    26  VAL26       0.2260
     16  O         61.1650   40.2880   65.2620 O.2    26  VAL26      -0.2867
     17  CB        64.3480   41.3120   64.9410 C.3    26  VAL26       0.0252
     18  CG1       63.7680   41.5250   63.5510 C.3    26  VAL26       0.0019
     19  CG2       65.3570   42.4060   65.2530 C.3    26  VAL26       0.0019
     20  N         72.7050   41.2500   60.7730 N.3   192  HIS192     -0.1226
     21  CA        72.3920   42.4360   61.5380 C.3   192  HIS192      0.1752
     22  C         73.6530   43.2020   61.8930 C.2   192  HIS192      0.2595
     23  O         73.5680   44.3400   62.3410 O.2   192  HIS192     -0.2718
     24  CB        71.5960   42.0570   62.7840 C.3   192  HIS192      0.0759
     25  CG        70.4170   41.1790   62.4940 C.ar  192  HIS192      0.0818
     26  ND1       69.1250   41.6590   62.4390 N.ar  192  HIS192     -0.2268
     27  CD2       70.3360   39.8540   62.2210 C.ar  192  HIS192      0.1154
     28  CE1       68.2990   40.6660   62.1530 C.ar  192  HIS192      0.1986
     29  NE2       69.0090   39.5610   62.0160 N.ar  192  HIS192     -0.2212
     30  N         74.8140   42.5770   61.6840 N.am  193  ALA193     -0.1980
     31  CA        76.1130   43.2400   61.8450 C.3   193  ALA193      0.1597
     32  C         77.2440   42.4780   61.1640 C.2   193  ALA193      0.2287
     33  O         77.3160   41.2490   61.2320 O.2   193  ALA193     -0.2864
     34  CB        76.4360   43.4370   63.3160 C.3   193  ALA193      0.0319
     35  N         82.1400   45.7300   63.6580 N.3   198  ARG198     -0.1245
     36  CA        82.2160   45.7800   65.1190 C.3   198  ARG198      0.1563
     37  C         83.6260   46.1550   65.5870 C.2   198  ARG198      0.2260
     38  O         83.8460   47.2500   66.1190 O.2   198  ARG198     -0.2867
     39  CB        81.8060   44.4400   65.7550 C.3   198  ARG198      0.0307
     40  CG        80.5110   43.8320   65.2450 C.3   198  ARG198      0.0489
     41  CD        79.6030   43.4680   66.4070 C.3   198  ARG198      0.2205
     42  NE        78.9120   44.6620   66.8980 N.pl3 198  ARG198     -0.0865
     43  CZ        77.5900   44.8110   66.9910 C.cat 198  ARG198      0.5346
     44  NH1       76.7600   43.8250   66.6640 N.pl3 198  ARG198      0.1354
     45  NH2       77.0980   45.9560   67.4430 N.pl3 198  ARG198      0.1354
     46  N         70.0700   45.1880   57.4490 N.3   246  VAL246     -0.1245
     47  CA        68.9200   45.8230   58.0880 C.3   246  VAL246      0.1561
     48  C         68.9060   47.3400   57.9640 C.2   246  VAL246      0.2260
     49  O         67.9550   47.9750   58.3980 O.2   246  VAL246     -0.2867
     50  CB        68.8010   45.4300   59.5700 C.3   246  VAL246      0.0252
     51  CG1       68.3740   43.9730   59.6950 C.3   246  VAL246      0.0019
     52  CG2       70.1080   45.6960   60.3120 C.3   246  VAL246      0.0019
     53  N         63.9280   47.0500   60.7560 N.3   268  ASN268     -0.1240
     54  CA        63.2520   46.4540   61.9030 C.3   268  ASN268      0.1653
     55  C         61.9550   47.1590   62.2600 C.2   268  ASN268      0.2266
     56  O         61.8960   48.3860   62.3760 O.2   268  ASN268     -0.2867
     57  CB        64.1700   46.4090   63.1180 C.3   268  ASN268      0.1155
     58  CG        65.2940   45.4180   62.9560 C.2   268  ASN268      0.2627
     59  OD1       65.0810   44.2820   62.5280 O.2   268  ASN268     -0.2716
     60  ND2       66.5040   45.8400   63.3040 N.am  268  ASN268     -0.0877
     61  N         73.3120   47.2270   75.7470 N.3   319  ARG319     -0.1245
     62  CA        74.3980   46.5050   76.4190 C.3   319  ARG319      0.1563
     63  C         75.6410   47.3750   76.4440 C.2   319  ARG319      0.2260
     64  O         75.7920   48.2870   75.6270 O.2   319  ARG319     -0.2867
     65  CB        74.7190   45.1290   75.8080 C.3   319  ARG319      0.0307
     66  CG        73.5370   44.2730   75.3710 C.3   319  ARG319      0.0489
     67  CD        73.3500   44.3900   73.8690 C.3   319  ARG319      0.2205
     68  NE        74.5700   44.9220   73.2590 N.pl3 319  ARG319     -0.0865
     69  CZ        74.8610   44.8730   71.9650 C.cat 319  ARG319      0.5346
     70  NH1       74.0270   44.2990   71.1080 N.pl3 319  ARG319      0.1354
     71  NH2       75.9960   45.4000   71.5330 N.pl3 319  ARG319      0.1354
     72  N         78.1260   52.3010   71.7370 N.3   325  LYS325     -0.1245
     73  CA        76.7670   52.7380   72.0670 C.3   325  LYS325      0.1561
     74  C         76.6400   54.2480   72.2720 C.2   325  LYS325      0.2260
     75  O         75.5290   54.7970   72.2350 O.2   325  LYS325     -0.2867
     76  CB        76.2370   51.9730   73.2810 C.3   325  LYS325      0.0271
     77  CG        75.6960   50.5840   72.9700 C.3   325  LYS325      0.0035
     78  CD        74.4600   50.6770   72.0950 C.3   325  LYS325      0.0206
     79  CE        73.4190   49.6410   72.4750 C.3   325  LYS325      0.1093
     80  NZ        72.0830   50.0630   71.9630 N.3   325  LYS325     -0.1314
     81  N         78.6260   52.7710   66.2210 N.3   507  TYR507     -0.1227
     82  CA        78.2440   51.5790   65.4870 C.3   507  TYR507      0.1736
     83  C         76.9140   51.0070   65.9450 C.2   507  TYR507      0.2595
     84  O         76.8300   50.3320   66.9790 O.2   507  TYR507     -0.2718
     85  CB        79.3300   50.5100   65.5340 C.3   507  TYR507      0.0548
     86  CG        79.0480   49.3760   64.5830 C.ar  507  TYR507     -0.0200
     87  CD1       78.8780   49.6180   63.2180 C.ar  507  TYR507     -0.0009
     88  CD2       78.9360   48.0650   65.0430 C.ar  507  TYR507     -0.0009
     89  CE1       78.6070   48.5840   62.3380 C.ar  507  TYR507      0.0417
     90  CE2       78.6740   47.0210   64.1700 C.ar  507  TYR507      0.0417
     91  CZ        78.5100   47.2840   62.8170 C.ar  507  TYR507      0.1957
     92  OH        78.2440   46.2520   61.9360 O.3   507  TYR507     -0.2866
     93  N         75.8840   51.2830   65.1460 N.am  508  GLU508     -0.1966
     94  CA        74.5440   50.7370   65.3510 C.3   508  GLU508      0.1718
     95  C         73.8780   50.4570   63.9990 C.2   508  GLU508      0.2458
     96  O         73.3580   51.3810   63.3520 O.2   508  GLU508     -0.2730
     97  CB        73.6870   51.6850   66.1970 C.3   508  GLU508      0.0428
     98  CG        72.7030   50.9870   67.1220 C.3   508  GLU508      0.1163
     99  CD        72.1350   51.9160   68.1770 C.2   508  GLU508      0.3649
    100  OE1       72.0750   51.5000   69.3560 O.co2 508  GLU508     -0.2457
    101  OE2       71.7550   53.0610   67.8340 O.co2 508  GLU508     -0.2457
    102  N         73.9190   49.1810   63.5630 N.am  509  PRO509     -0.2716
    103  CA        73.2810   48.6820   62.3510 C.3   509  PRO509      0.1536
    104  C         71.8410   49.1560   62.2120 C.2   509  PRO509      0.2599
    105  O         71.4700   49.6680   61.1610 O.2   509  PRO509     -0.2715
    106  CB        73.3320   47.1750   62.5440 C.3   509  PRO509      0.0310
    107  CG        74.6200   46.9730   63.2590 C.3   509  PRO509      0.0237
    108  CD        74.7420   48.1370   64.2010 C.3   509  PRO509      0.0939
    109  N         71.0420   48.9770   63.2590 N.am  510  TRP510     -0.1960
    110  CA        69.7100   49.5800   63.3300 C.3   510  TRP510      0.1771
    111  C         69.5490   50.3690   64.6330 C.2   510  TRP510      0.2620
    112  O         69.6880   51.5960   64.6410 O.2   510  TRP510     -0.2715
    113  CB        68.6100   48.5230   63.1640 C.3   510  TRP510      0.0590
    114  CG        67.2170   49.0820   63.2530 C.ar  510  TRP510      0.0006
    115  CD1       66.3360   48.9030   64.2720 C.ar  510  TRP510      0.0946
    116  CD2       66.5570   49.9230   62.2950 C.ar  510  TRP510      0.0152
    117  NE1       65.1640   49.5700   64.0110 N.ar  510  TRP510     -0.2442
    118  CE2       65.2730   50.2040   62.8040 C.ar  510  TRP510      0.0810
    119  CE3       66.9260   50.4630   61.0570 C.ar  510  TRP510      0.0012
    120  CZ2       64.3490   51.0030   62.1170 C.ar  510  TRP510      0.0191
    121  CZ3       66.0060   51.2540   60.3700 C.ar  510  TRP510      0.0001
    122  CH2       64.7330   51.5170   60.9050 C.ar  510  TRP510      0.0015
    123  N         69.2730   49.6530   65.7250 N.am  511  GLY511     -0.1940
    124  CA        69.1630   50.2470   67.0570 C.3   511  GLY511      0.2014
    125  C         67.7400   50.3270   67.5680 C.2   511  GLY511      0.2638
    126  O         67.0350   51.3060   67.3070 O.2   511  GLY511     -0.2714
    127  N         67.3160   49.2980   68.2980 N.am  512  TYR512     -0.1973
    128  CA        65.9550   49.2520   68.8310 C.3   512  TYR512      0.1639
    129  C         65.7090   50.3130   69.8920 C.2   512  TYR512      0.2290
    130  O         64.5880   50.8020   70.0550 O.2   512  TYR512     -0.2864
    131  CB        65.6530   47.8770   69.4160 C.3   512  TYR512      0.0560
    132  CG        64.9250   46.9490   68.4780 C.ar  512  TYR512     -0.0198
    133  CD1       64.1920   47.4480   67.4000 C.ar  512  TYR512     -0.0009
    134  CD2       64.9350   45.5690   68.6870 C.ar  512  TYR512     -0.0009
    135  CE1       63.5150   46.5980   66.5440 C.ar  512  TYR512      0.0417
    136  CE2       64.2550   44.7130   67.8360 C.ar  512  TYR512      0.0417
    137  CZ        63.5500   45.2310   66.7680 C.ar  512  TYR512      0.1957
    138  OH        62.8730   44.3890   65.9220 O.3   512  TYR512     -0.2866
@<TRIPOS>BOND
     1    46    47    1
     2    48    47    1
     3    48    49    2
     4    47    50    1
     5    50    51    1
     6    50    52    1
     7   121   122   ar
     8   121   119   ar
     9    53    54    1
    10    20    21    1
    11   122   120   ar
    12   119   116   ar
    13   105   104    2
    14    32    33    2
    15    32    31    1
    16    21    22    1
    17    21    24    1
    18    30    31    1
    19    30    22   am
    20    31    34    1
    21    22    23    2
    22    54    55    1
    23    54    57    1
    24    92    91    1
    25    29    28   ar
    26    29    27   ar
    27   120   118   ar
    28    28    26   ar
    29   104   103    1
    30   104   109   am
    31    27    25   ar
    32    55    56    2
    33   116   118   ar
    34   116   114   ar
    35    89    91   ar
    36    89    87   ar
    37   103   106    1
    38   103   102    1
    39    26    25   ar
    40    25    24    1
    41    59    58    2
    42   106   107    1
    43   118   117   ar
    44    91    90   ar
    45    58    57    1
    46    58    60   am
    47   113   114    1
    48   113   110    1
    49    87    86   ar
    50   114   115   ar
    51   107   108    1
    52   109   110    1
    53   110   111    1
    54    96    95    2
    55    18    17    1
    56   102    95   am
    57   102   108    1
    58    35    36    1
    59    95    94    1
    60   117   115   ar
    61    90    88   ar
    62    86    88   ar
    63    86    85    1
    64   111   112    2
    65   111   123   am
    66    17    19    1
    67    17    14    1
    68    36    37    1
    69    36    39    1
    70    93    94    1
    71    93    83   am
    72    40    39    1
    73    40    41    1
    74    16    15    2
    75    94    97    1
    76    11     9    1
    77    82    85    1
    78    82    83    1
    79    82    81    1
    80    37    38    2
    81    15    14    1
    82   123   124    1
    83   138   137    1
    84    10    12    1
    85    10     9    1
    86    83    84    2
    87    14    13    1
    88    97    98    1
    89    41    42    1
    90     9     6    1
    91   135   137   ar
    92   135   133   ar
    93    44    43    1
    94   137   136   ar
    95     8     7    2
    96    42    43    2
    97     6     7    1
    98     6     5    1
    99    43    45    1
   100   124   125    1
   101    98    99    1
   102   126   125    2
   103   133   132   ar
   104   125   127   am
   105   101    99   ar
   106   136   134   ar
   107     5     3   am
   108     4     3    2
   109    99   100   ar
   110   127   128    1
   111     3     2    1
   112   132   134   ar
   113   132   131    1
   114   128   131    1
   115   128   129    1
   116     2     1    1
   117   129   130    2
   118    70    69    1
   119    71    69    1
   120    72    73    1
   121    80    79    1
   122    69    68    2
   123    73    74    1
   124    73    76    1
   125    78    79    1
   126    78    77    1
   127    75    74    2
   128    77    76    1
   129    68    67    1
   130    67    66    1
   131    66    65    1
   132    64    63    2
   133    61    62    1
   134    65    62    1
   135    62    63    1
