@<TRIPOS>MOLECULE
tmp/4kq3B00.pdb
 79 74 0 0 0
SMALL
GASTEIGER

@<TRIPOS>ATOM
      1  N         36.7220   12.0220   22.5260 N.3     7  GLY7       -0.1210
      2  CA        35.9470   12.5190   23.6530 C.3     7  GLY7        0.1956
      3  C         35.7420   14.0210   23.7180 C.2     7  GLY7        0.2611
      4  O         36.4560   14.7980   23.0680 O.2     7  GLY7       -0.2717
      5  N         34.7540   14.4150   24.5190 N.am    8  ALA8       -0.1979
      6  CA        34.4660   15.8170   24.8180 C.3     8  ALA8        0.1597
      7  C         35.6930   16.5400   25.3540 C.2     8  ALA8        0.2287
      8  O         36.5060   15.9480   26.0750 O.2     8  ALA8       -0.2864
      9  CB        33.3450   15.9110   25.8280 C.3     8  ALA8        0.0319
     10  N         28.2650   20.5280   19.5430 N.3    92  VAL92      -0.1245
     11  CA        28.5190   19.1220   19.2940 C.3    92  VAL92       0.1561
     12  C         28.9750   18.9930   17.8410 C.2    92  VAL92       0.2260
     13  O         28.2880   19.4420   16.9190 O.2    92  VAL92      -0.2867
     14  CB        27.2640   18.2530   19.5500 C.3    92  VAL92       0.0252
     15  CG1       27.4990   16.8210   19.0920 C.3    92  VAL92       0.0019
     16  CG2       26.8870   18.2860   21.0320 C.3    92  VAL92       0.0019
     17  N         29.9490   16.5790   14.7090 N.3    94  TYR94      -0.1241
     18  CA        29.6730   15.2580   14.1510 C.3    94  TYR94       0.1605
     19  C         30.4920   15.0260   12.8960 C.2    94  TYR94       0.2264
     20  O         30.6220   15.9210   12.0610 O.2    94  TYR94      -0.2867
     21  CB        28.2000   15.1230   13.7510 C.3    94  TYR94       0.0534
     22  CG        27.1940   15.1480   14.8770 C.ar   94  TYR94      -0.0201
     23  CD1       27.0390   14.0510   15.7280 C.ar   94  TYR94      -0.0009
     24  CD2       26.3640   16.2550   15.0670 C.ar   94  TYR94      -0.0009
     25  CE1       26.1030   14.0700   16.7630 C.ar   94  TYR94       0.0417
     26  CE2       25.4200   16.2800   16.0930 C.ar   94  TYR94       0.0417
     27  CZ        25.2980   15.1840   16.9380 C.ar   94  TYR94       0.1957
     28  OH        24.3680   15.2080   17.9570 O.3    94  TYR94      -0.2866
     29  N         29.0290    9.5340   16.9350 N.3   108  GLN108     -0.1231
     30  CA        28.2270    9.7870   18.1400 C.3   108  GLN108      0.1698
     31  C         28.2200   11.2560   18.5720 C.2   108  GLN108      0.2593
     32  O         27.4230   11.6490   19.4240 O.2   108  GLN108     -0.2718
     33  CB        28.6750    8.8850   19.3020 C.3   108  GLN108      0.0381
     34  CG        29.8400    9.4250   20.1510 C.3   108  GLN108      0.0905
     35  CD        31.2160    9.1030   19.5850 C.2   108  GLN108      0.2608
     36  OE1       31.3670    8.7800   18.4040 O.2   108  GLN108     -0.2717
     37  NE2       32.2340    9.1930   20.4380 N.am  108  GLN108     -0.0878
     38  N         29.1160   12.0520   17.9880 N.am  109  GLY109     -0.1942
     39  CA        29.2350   13.4700   18.3250 C.3   109  GLY109      0.2014
     40  C         30.2440   13.7610   19.4230 C.2   109  GLY109      0.2640
     41  O         30.4650   12.9350   20.3180 O.2   109  GLY109     -0.2714
     42  N         30.8460   14.9470   19.3470 N.am  110  THR110     -0.1936
     43  CA        31.8510   15.3940   20.3050 C.3   110  THR110      0.2028
     44  C         31.5280   16.8110   20.7710 C.2   110  THR110      0.2642
     45  O         31.5540   17.7480   19.9790 O.2   110  THR110     -0.2714
     46  CB        33.2630   15.4010   19.6710 C.3   110  THR110      0.1808
     47  OG1       33.5900   14.0890   19.1970 O.3   110  THR110     -0.2208
     48  CG2       34.3110   15.8610   20.6850 C.3   110  THR110      0.0379
     49  N         31.2140   16.9630   22.0540 N.am  111  LEU111     -0.1977
     50  CA        30.9250   18.2800   22.6030 C.3   111  LEU111      0.1596
     51  C         32.2200   19.0120   22.9350 C.2   111  LEU111      0.2287
     52  O         32.9940   18.5770   23.7880 O.2   111  LEU111     -0.2864
     53  CB        30.0230   18.1870   23.8390 C.3   111  LEU111      0.0297
     54  CG        29.6290   19.5070   24.5120 C.3   111  LEU111      0.0022
     55  CD1       28.9090   20.4460   23.5450 C.3   111  LEU111      0.0001
     56  CD2       28.7660   19.2390   25.7300 C.3   111  LEU111      0.0001
     57  N         29.9490   17.2970   28.7860 N.3   152  PRO152     -0.2116
     58  CA        28.8750   16.4620   29.3050 C.3   152  PRO152      0.1372
     59  C         29.3270   15.3750   30.2810 C.2   152  PRO152      0.2244
     60  O         30.4830   14.9390   30.2540 O.2   152  PRO152     -0.2868
     61  CB        28.3590   15.7880   28.0370 C.3   152  PRO152      0.0268
     62  CG        29.6040   15.5950   27.1980 C.3   152  PRO152      0.0207
     63  CD        30.6220   16.6330   27.6550 C.3   152  PRO152      0.0892
     64  N         28.1760   11.4570   30.8770 N.3   154  THR154     -0.1218
     65  CA        27.3620   10.3290   30.4280 C.3   154  THR154      0.1862
     66  C         27.2420    9.3090   31.5560 C.2   154  THR154      0.2287
     67  O         28.1600    9.1530   32.3720 O.2   154  THR154     -0.2866
     68  CB        27.9240    9.6510   29.1560 C.3   154  THR154      0.1770
     69  OG1       29.2460    9.1590   29.4090 O.3   154  THR154     -0.2211
     70  CG2       27.9560   10.6350   27.9870 C.3   154  THR154      0.0375
     71  N         34.5890   13.0510   30.5090 N.3   204  LYS204     -0.1245
     72  CA        35.8260   13.0250   29.7250 C.3   204  LYS204      0.1561
     73  C         36.6670   14.3110   29.7570 C.2   204  LYS204      0.2260
     74  O         37.8950   14.2260   29.6630 O.2   204  LYS204     -0.2867
     75  CB        35.5540   12.5900   28.2780 C.3   204  LYS204      0.0271
     76  CG        35.2260   11.1040   28.1390 C.3   204  LYS204      0.0035
     77  CD        34.9320   10.7210   26.7010 C.3   204  LYS204      0.0206
     78  CE        34.5810    9.2460   26.5790 C.3   204  LYS204      0.1093
     79  NZ        34.1730    8.8990   25.1880 N.3   204  LYS204     -0.1314
@<TRIPOS>BOND
     1    20    19    2
     2    19    18    1
     3    21    18    1
     4    21    22    1
     5    18    17    1
     6    22    24   ar
     7    22    23   ar
     8    24    26   ar
     9    23    25   ar
    10    26    27   ar
    11    25    27   ar
    12    13    12    2
    13    29    30    1
    14    27    28    1
    15    12    11    1
    16    38    39    1
    17    38    31   am
    18    30    31    1
    19    30    33    1
    20    39    40    1
    21    36    35    2
    22    31    32    2
    23    15    14    1
    24    47    46    1
    25    11    10    1
    26    11    14    1
    27    33    34    1
    28    42    40   am
    29    42    43    1
    30    40    41    2
    31    14    16    1
    32    35    34    1
    33    35    37   am
    34    46    43    1
    35    46    48    1
    36    45    44    2
    37    43    44    1
    38    44    49   am
    39    49    50    1
    40     1     2    1
    41    50    51    1
    42    50    53    1
    43    51    52    2
    44     4     3    2
    45    55    54    1
    46     2     3    1
    47     3     5   am
    48    53    54    1
    49    54    56    1
    50     5     6    1
    51     6     7    1
    52     6     9    1
    53    79    78    1
    54     7     8    2
    55    78    77    1
    56    77    76    1
    57    62    63    1
    58    62    61    1
    59    63    57    1
    60    70    68    1
    61    61    58    1
    62    76    75    1
    63    75    72    1
    64    57    58    1
    65    68    69    1
    66    68    65    1
    67    58    59    1
    68    74    73    2
    69    72    73    1
    70    72    71    1
    71    60    59    2
    72    65    64    1
    73    65    66    1
    74    66    67    2
