@<TRIPOS>MOLECULE
tmp/4kq5A00.pdb
 165 150 0 0 0
SMALL
GASTEIGER

@<TRIPOS>ATOM
      1  N         15.4420   26.8410   -1.3300 N.3    91  PHE91      -0.1227
      2  CA        16.0210   27.1810   -2.6390 C.3    91  PHE91       0.1736
      3  C         16.4600   28.6600   -2.7290 C.2    91  PHE91       0.2595
      4  O         17.3810   28.9670   -3.4730 O.2    91  PHE91      -0.2718
      5  CB        15.0570   26.8440   -3.8010 C.3    91  PHE91       0.0547
      6  CG        15.1320   25.3980   -4.2680 C.ar   91  PHE91      -0.0202
      7  CD1       16.3370   24.8460   -4.6930 C.ar   91  PHE91      -0.0042
      8  CD2       13.9950   24.5890   -4.2730 C.ar   91  PHE91      -0.0042
      9  CE1       16.4120   23.5060   -5.0800 C.ar   91  PHE91      -0.0003
     10  CE2       14.0690   23.2520   -4.6850 C.ar   91  PHE91      -0.0003
     11  CZ        15.2760   22.7190   -5.0800 C.ar   91  PHE91      -0.0000
     12  N         15.8250   29.5600   -1.9730 N.am   92  LEU92      -0.1980
     13  CA        16.1590   30.9840   -2.0170 C.3    92  LEU92       0.1596
     14  C         17.3520   31.3010   -1.1350 C.2    92  LEU92       0.2287
     15  O         18.1290   32.1820   -1.4900 O.2    92  LEU92      -0.2864
     16  CB        14.9490   31.8650   -1.6460 C.3    92  LEU92       0.0297
     17  CG        13.7970   31.9150   -2.6730 C.3    92  LEU92       0.0022
     18  CD1       12.7370   32.9150   -2.2620 C.3    92  LEU92       0.0001
     19  CD2       14.2960   32.2320   -4.0940 C.3    92  LEU92       0.0001
     20  N         20.0880   30.2130   -3.3540 N.3    95  ASP95      -0.1225
     21  CA        20.1070   31.1060   -4.5110 C.3    95  ASP95       0.1805
     22  C         20.7830   32.4680   -4.1990 C.2    95  ASP95       0.2597
     23  O         21.5540   32.9620   -5.0210 O.2    95  ASP95      -0.2718
     24  CB        18.6750   31.3400   -5.0180 C.3    95  ASP95       0.1424
     25  CG        18.6070   32.1390   -6.2920 C.2    95  ASP95       0.3668
     26  OD1       18.8270   31.5450   -7.3760 O.co2  95  ASP95      -0.2456
     27  OD2       18.3130   33.3520   -6.2100 O.co2  95  ASP95      -0.2456
     28  N         20.5350   33.0360   -3.0050 N.am   96  ASP96      -0.1974
     29  CA        21.0930   34.3220   -2.6160 C.3    96  ASP96       0.1709
     30  C         22.5940   34.2560   -2.4830 C.2    96  ASP96       0.2293
     31  O         23.2630   35.2380   -2.7870 O.2    96  ASP96      -0.2864
     32  CB        20.4470   34.8260   -1.3260 C.3    96  ASP96       0.1436
     33  CG        19.0210   35.3150   -1.5210 C.2    96  ASP96       0.3671
     34  OD1       18.6840   35.7440   -2.6600 O.co2  96  ASP96      -0.2456
     35  OD2       18.2470   35.3050   -0.5280 O.co2  96  ASP96      -0.2456
     36  N         23.8950   33.7050   -6.1960 N.3    99  ASP99      -0.1239
     37  CA        23.6490   34.9310   -6.9500 C.3    99  ASP99       0.1674
     38  C         24.3190   36.1230   -6.2860 C.2    99  ASP99       0.2266
     39  O         24.2960   37.2130   -6.8550 O.2    99  ASP99      -0.2867
     40  CB        22.1430   35.1600   -7.1310 C.3    99  ASP99       0.1410
     41  CG        21.5090   34.0720   -7.9770 C.2    99  ASP99       0.3668
     42  OD1       22.2540   33.2750   -8.5680 O.co2  99  ASP99      -0.2456
     43  OD2       20.2870   34.0710   -8.1090 O.co2  99  ASP99      -0.2456
     44  N         23.6350   37.9050   -3.6790 N.3   101  SER101     -0.1217
     45  CA        22.6200   38.9230   -3.4530 C.3   101  SER101      0.1889
     46  C         22.8250   39.6490   -2.1360 C.2   101  SER101      0.2288
     47  O         23.6070   39.2060   -1.2960 O.2   101  SER101     -0.2866
     48  CB        21.2400   38.2940   -3.5190 C.3   101  SER101      0.2089
     49  OG        21.0340   37.8340   -4.8430 O.3   101  SER101     -0.2183
     50  N         16.7300   40.2120    0.5570 N.3   104  ARG104     -0.1245
     51  CA        15.5780   39.3540    0.2770 C.3   104  ARG104      0.1563
     52  C         14.4830   39.6910    1.2950 C.2   104  ARG104      0.2260
     53  O         14.7680   39.7610    2.4930 O.2   104  ARG104     -0.2867
     54  CB        15.9920   37.8750    0.3610 C.3   104  ARG104      0.0307
     55  CG        14.8810   36.8140    0.4170 C.3   104  ARG104      0.0489
     56  CD        14.3910   36.3130   -0.9370 C.3   104  ARG104      0.2205
     57  NE        15.4600   35.8760   -1.8410 N.pl3 104  ARG104     -0.0865
     58  CZ        15.2840   35.6690   -3.1420 C.cat 104  ARG104      0.5346
     59  NH1       14.0940   35.8390   -3.6920 N.pl3 104  ARG104      0.1354
     60  NH2       16.3020   35.3190   -3.9070 N.pl3 104  ARG104      0.1354
     61  N         14.0120   21.8930  -10.1420 N.3   159  THR159     -0.1218
     62  CA        14.5100   23.2250   -9.7710 C.3   159  THR159      0.1862
     63  C         16.0420   23.2270   -9.8620 C.2   159  THR159      0.2287
     64  O         16.6200   24.1800  -10.3960 O.2   159  THR159     -0.2866
     65  CB        14.0360   23.6390   -8.3600 C.3   159  THR159      0.1770
     66  OG1       12.6270   23.5380   -8.2740 O.3   159  THR159     -0.2211
     67  CG2       14.4600   25.0610   -7.9810 C.3   159  THR159      0.0375
     68  N         18.4590   25.4560  -11.8740 N.3   163  GLN163     -0.1245
     69  CA        19.5180   26.2370  -11.2190 C.3   163  GLN163      0.1566
     70  C         20.8950   25.9750  -11.8760 C.2   163  GLN163      0.2260
     71  O         21.6620   26.9190  -12.0470 O.2   163  GLN163     -0.2867
     72  CB        19.5850   25.9290   -9.7030 C.3   163  GLN163      0.0367
     73  CG        18.4340   26.4950   -8.8540 C.3   163  GLN163      0.0905
     74  CD        18.4410   28.0050   -8.7860 C.2   163  GLN163      0.2608
     75  OE1       18.1250   28.7000   -9.7640 O.2   163  GLN163     -0.2717
     76  NE2       18.7900   28.5480   -7.6250 N.am  163  GLN163     -0.0878
     77  N         20.8330   27.7660  -15.1730 N.3   166  ASP166     -0.1239
     78  CA        20.9190   29.1910  -14.8460 C.3   166  ASP166      0.1674
     79  C         22.4010   29.5960  -14.6210 C.2   166  ASP166      0.2266
     80  O         22.8850   30.5680  -15.2130 O.2   166  ASP166     -0.2867
     81  CB        20.0560   29.5160  -13.5980 C.3   166  ASP166      0.1410
     82  CG        20.0590   30.9830  -13.1600 C.2   166  ASP166      0.3668
     83  OD1       19.1550   31.7500  -13.6080 O.co2 166  ASP166     -0.2456
     84  OD2       20.9280   31.3580  -12.3310 O.co2 166  ASP166     -0.2456
     85  N         13.9150   26.0050  -13.4700 N.3   192  LYS192     -0.1231
     86  CA        14.2440   26.7280  -12.2350 C.3   192  LYS192      0.1693
     87  C         13.0370   27.3240  -11.4990 C.2   192  LYS192      0.2592
     88  O         13.1430   27.4860  -10.2800 O.2   192  LYS192     -0.2718
     89  CB        15.3370   27.8080  -12.4330 C.3   192  LYS192      0.0285
     90  CG        14.9620   29.0590  -13.1990 C.3   192  LYS192      0.0035
     91  CD        15.8890   30.2270  -12.8140 C.3   192  LYS192      0.0206
     92  CE        15.5690   31.5040  -13.5630 C.3   192  LYS192      0.1093
     93  NZ        16.5160   32.5940  -13.2480 N.3   192  LYS192     -0.1314
     94  N         11.9000   27.5970  -12.1830 N.am  193  THR193     -0.1953
     95  CA        10.7530   28.2630  -11.5500 C.3   193  THR193      0.1897
     96  C          9.3860   27.6220  -11.8490 C.2   193  THR193      0.2313
     97  O          8.6050   27.4290  -10.9180 O.2   193  THR193     -0.2863
     98  CB        10.7250   29.7600  -12.0320 C.3   193  THR193      0.1794
     99  OG1       11.9120   30.4160  -11.6140 O.3   193  THR193     -0.2208
    100  CG2        9.5050   30.5510  -11.5500 C.3   193  THR193      0.0378
    101  N          7.1490   26.5170   -8.5690 N.3   197  SER197     -0.1217
    102  CA         6.3490   27.6570   -8.1150 C.3   197  SER197      0.1889
    103  C          4.9010   27.5840   -8.6060 C.2   197  SER197      0.2288
    104  O          4.0340   28.1960   -7.9920 O.2   197  SER197     -0.2866
    105  CB         6.9910   28.9790   -8.5260 C.3   197  SER197      0.2089
    106  OG         8.2900   29.0800   -7.9630 O.3   197  SER197     -0.2183
    107  N          8.6380   34.1880  -14.2770 N.3   232  GLN232     -0.1245
    108  CA        10.0870   34.3710  -14.2780 C.3   232  GLN232      0.1566
    109  C         10.4800   35.6050  -15.1050 C.2   232  GLN232      0.2260
    110  O         11.3020   36.3880  -14.6350 O.2   232  GLN232     -0.2867
    111  CB        10.8360   33.1110  -14.7380 C.3   232  GLN232      0.0367
    112  CG        12.3240   33.1020  -14.3260 C.3   232  GLN232      0.0905
    113  CD        12.6250   33.5410  -12.9040 C.2   232  GLN232      0.2608
    114  OE1       12.0100   33.1020  -11.9240 O.2   232  GLN232     -0.2717
    115  NE2       13.5700   34.4400  -12.7660 N.am  232  GLN232     -0.0878
    116  N          9.8830   38.5500  -13.0280 N.3   235  ASP235     -0.1225
    117  CA        10.9550   38.5880  -12.0210 C.3   235  ASP235      0.1805
    118  C         12.2330   39.2120  -12.6180 C.2   235  ASP235      0.2597
    119  O         12.9080   39.9990  -11.9420 O.2   235  ASP235     -0.2718
    120  CB        11.2410   37.1700  -11.4820 C.3   235  ASP235      0.1424
    121  CG        12.2830   37.1360  -10.3820 C.2   235  ASP235      0.3668
    122  OD1       11.9240   37.4250   -9.2170 O.co2 235  ASP235     -0.2456
    123  OD2       13.4630   36.8300  -10.6880 O.co2 235  ASP235     -0.2456
    124  N         12.5500   38.8720  -13.8900 N.am  236  ASP236     -0.1974
    125  CA        13.7180   39.4200  -14.5910 C.3   236  ASP236      0.1709
    126  C         13.5150   40.9140  -14.8930 C.2   236  ASP236      0.2293
    127  O         14.4450   41.6940  -14.7260 O.2   236  ASP236     -0.2864
    128  CB        14.0260   38.6480  -15.8880 C.3   236  ASP236      0.1436
    129  CG        14.4180   37.1860  -15.7520 C.2   236  ASP236      0.3671
    130  OD1       14.7310   36.7500  -14.6260 O.co2 236  ASP236     -0.2456
    131  OD2       14.4080   36.4820  -16.7700 O.co2 236  ASP236     -0.2456
    132  N         13.8580   42.8330  -11.7390 N.3   239  ASP239     -0.1239
    133  CA        15.2260   42.7740  -11.2110 C.3   239  ASP239      0.1674
    134  C         15.9220   44.1030  -11.4770 C.2   239  ASP239      0.2266
    135  O         16.6570   44.6120  -10.6260 O.2   239  ASP239     -0.2867
    136  CB        16.0280   41.6200  -11.8360 C.3   239  ASP239      0.1410
    137  CG        17.3650   41.3930  -11.1670 C.2   239  ASP239      0.3668
    138  OD1       17.3900   40.7550  -10.0900 O.co2 239  ASP239     -0.2456
    139  OD2       18.3780   41.9210  -11.6730 O.co2 239  ASP239     -0.2456
    140  N         14.0860   43.1450   -2.6480 N.3   249  LYS249     -0.1245
    141  CA        15.3720   42.5830   -3.0700 C.3   249  LYS249      0.1561
    142  C         16.0450   43.4280   -4.1540 C.2   249  LYS249      0.2260
    143  O         15.3780   43.9680   -5.0410 O.2   249  LYS249     -0.2867
    144  CB        15.2080   41.1180   -3.5460 C.3   249  LYS249      0.0271
    145  CG        14.0990   40.8700   -4.5740 C.3   249  LYS249      0.0035
    146  CD        13.8250   39.3740   -4.7870 C.3   249  LYS249      0.0206
    147  CE        13.3090   39.1420   -6.1810 C.3   249  LYS249      0.1093
    148  NZ        12.4440   37.9620   -6.2630 N.3   249  LYS249     -0.1314
    149  N         21.2440   40.5860  -11.7240 N.3   253  ASP253     -0.1239
    150  CA        21.2580   39.9140  -13.0360 C.3   253  ASP253      0.1674
    151  C         22.3200   40.4310  -14.0340 C.2   253  ASP253      0.2266
    152  O         22.9410   39.6050  -14.7010 O.2   253  ASP253     -0.2867
    153  CB        19.8660   39.9310  -13.6990 C.3   253  ASP253      0.1410
    154  CG        18.8720   38.9430  -13.0910 C.2   253  ASP253      0.3668
    155  OD1       19.2540   38.2170  -12.1500 O.co2 253  ASP253     -0.2456
    156  OD2       17.7100   38.9030  -13.5540 O.co2 253  ASP253     -0.2456
    157  N         23.7070   37.0560  -16.0840 N.3   258  LYS258     -0.1245
    158  CA        22.5660   36.1430  -16.1590 C.3   258  LYS258      0.1561
    159  C         21.8580   36.1670  -17.4920 C.2   258  LYS258      0.2260
    160  O         21.8320   37.1990  -18.1560 O.2   258  LYS258     -0.2867
    161  CB        21.5500   36.4420  -15.0430 C.3   258  LYS258      0.0271
    162  CG        21.9570   35.9730  -13.6470 C.3   258  LYS258      0.0035
    163  CD        22.2260   34.4680  -13.5960 C.3   258  LYS258      0.0206
    164  CE        22.9650   34.0330  -12.3590 C.3   258  LYS258      0.1093
    165  NZ        22.1700   34.2400  -11.1210 N.3   258  LYS258     -0.1314
@<TRIPOS>BOND
     1   160   159    2
     2   159   158    1
     3   131   129   ar
     4   158   157    1
     5   158   161    1
     6   128   129    1
     7   128   125    1
     8   129   130   ar
     9    80    79    2
    10    77    78    1
    11   109   110    2
    12   109   108    1
    13   161   162    1
    14   126   127    2
    15   126   125    1
    16    78    79    1
    17    78    81    1
    18   111   112    1
    19   111   108    1
    20   152   151    2
    21   125   124    1
    22   112   113    1
    23   108   107    1
    24   151   150    1
    25   124   118   am
    26   153   154    1
    27   153   150    1
    28   162   163    1
    29    83    82   ar
    30    81    82    1
    31   163   164    1
    32    92    93    1
    33    92    91    1
    34   156   154   ar
    35    85    86    1
    36    90    91    1
    37    90    89    1
    38    82    84   ar
    39   154   155   ar
    40   150   149    1
    41   116   117    1
    42   113   115   am
    43   113   114    2
    44   118   117    1
    45   118   119    2
    46    89    86    1
    47   164   165    1
    48    86    87    1
    49    94    95    1
    50    94    87   am
    51    71    70    2
    52    98    99    1
    53    98   100    1
    54    98    95    1
    55   117   120    1
    56    70    69    1
    57    68    69    1
    58    96    95    1
    59    96    97    2
    60   136   133    1
    61   136   137    1
    62   132   133    1
    63   139   137   ar
    64    87    88    2
    65   120   121    1
    66   134   133    1
    67   134   135    2
    68    69    72    1
    69   137   138   ar
    70   123   121   ar
    71    64    63    2
    72   121   122   ar
    73    61    62    1
    74    63    62    1
    75    62    65    1
    76    75    74    2
    77    72    73    1
    78    73    74    1
    79    74    76   am
    80   103   102    1
    81   103   104    2
    82   101   102    1
    83    42    41   ar
    84   105   102    1
    85   105   106    1
    86    65    66    1
    87    65    67    1
    88    43    41   ar
    89    41    40    1
    90    26    25   ar
    91    40    37    1
    92    37    38    1
    93    37    36    1
    94    39    38    2
    95    25    27   ar
    96    25    24    1
    97   148   147    1
    98   147   146    1
    99     9    11   ar
   100     9     7   ar
   101    11    10   ar
   102   143   142    2
   103    23    22    2
   104    24    21    1
   105    49    48    1
   106   146   145    1
   107     7     6   ar
   108    10     8   ar
   109   145   144    1
   110    21    22    1
   111    21    20    1
   112     8     6   ar
   113     6     5    1
   114    22    28   am
   115   142   141    1
   116    19    17    1
   117    60    58    1
   118     5     2    1
   119    59    58    1
   120    44    45    1
   121   144   141    1
   122    48    45    1
   123     4     3    2
   124    45    46    1
   125    58    57    2
   126   141   140    1
   127    28    29    1
   128    31    30    2
   129     3     2    1
   130     3    12   am
   131    17    18    1
   132    17    16    1
   133    34    33   ar
   134     2     1    1
   135    29    30    1
   136    29    32    1
   137    46    47    2
   138    13    12    1
   139    13    16    1
   140    13    14    1
   141    57    56    1
   142    33    32    1
   143    33    35   ar
   144    15    14    2
   145    56    55    1
   146    51    54    1
   147    51    50    1
   148    51    52    1
   149    54    55    1
   150    52    53    2
