@<TRIPOS>MOLECULE
tmp/4kq6C00.pdb
 116 116 0 0 0
SMALL
GASTEIGER

@<TRIPOS>ATOM
      1  N          8.4180   19.9830   69.6390 N.3    15  ALA15      -0.1245
      2  CA         7.4870   19.3310   70.5650 C.3    15  ALA15       0.1562
      3  C          7.7420   19.9810   71.9830 C.2    15  ALA15       0.2260
      4  O          8.6150   20.8140   72.1270 O.2    15  ALA15      -0.2867
      5  CB         7.7230   17.8050   70.6040 C.3    15  ALA15       0.0290
      6  N          7.7290   18.0170   75.2530 N.3    17  TRP17      -0.1227
      7  CA         8.3680   17.1130   76.1750 C.3    17  TRP17       0.1737
      8  C          9.8950   17.2640   76.2080 C.2    17  TRP17       0.2595
      9  O         10.5460   17.4510   75.1600 O.2    17  TRP17      -0.2718
     10  CB         8.0340   15.6740   75.7940 C.3    17  TRP17       0.0564
     11  CG         6.7430   15.2070   76.2590 C.ar   17  TRP17       0.0003
     12  CD1        5.5620   15.8860   76.2110 C.ar   17  TRP17       0.0946
     13  CD2        6.4370   13.9060   76.8580 C.ar   17  TRP17       0.0152
     14  NE1        4.5290   15.1100   76.7480 N.ar   17  TRP17      -0.2442
     15  CE2        5.0430   13.8920   77.1440 C.ar   17  TRP17       0.0810
     16  CE3        7.2020   12.7850   77.1940 C.ar   17  TRP17       0.0012
     17  CZ2        4.4090   12.7830   77.7490 C.ar   17  TRP17       0.0191
     18  CZ3        6.5640   11.6740   77.7880 C.ar   17  TRP17       0.0001
     19  CH2        5.1950   11.6780   78.0460 C.ar   17  TRP17       0.0015
     20  N         10.4850   17.0400   77.3880 N.am   18  ASN18      -0.1974
     21  CA        11.9160   17.3090   77.6350 C.3    18  ASN18       0.1688
     22  C         12.2650   18.7380   77.1810 C.2    18  ASN18       0.2292
     23  O         13.2030   18.9450   76.4260 O.2    18  ASN18      -0.2864
     24  CB        12.7500   16.2140   76.9970 C.3    18  ASN18       0.1181
     25  CG        12.2520   14.8080   77.4100 C.2    18  ASN18       0.2629
     26  OD1       12.3450   14.4010   78.5920 O.2    18  ASN18      -0.2716
     27  ND2       11.7120   14.0740   76.4740 N.am   18  ASN18      -0.0877
     28  N          2.2870   19.8230   70.6490 N.3    49  PRO49      -0.2102
     29  CA         2.4490   19.1090   71.9560 C.3    49  PRO49       0.1504
     30  C          3.4670   17.9780   71.9830 C.2    49  PRO49       0.2576
     31  O          4.2870   17.9320   72.9320 O.2    49  PRO49      -0.2718
     32  CB         1.0470   18.5810   72.2710 C.3    49  PRO49       0.0282
     33  CG         0.1440   19.3660   71.3340 C.3    49  PRO49       0.0208
     34  CD         0.9000   19.8700   70.1670 C.3    49  PRO49       0.0893
     35  N          3.4780   17.0890   70.9860 N.am   50  GLY50      -0.1943
     36  CA         4.4430   15.9760   71.0940 C.3    50  GLY50       0.2014
     37  C          5.0480   15.6770   69.7560 C.2    50  GLY50       0.2640
     38  O          4.6490   16.2670   68.7230 O.2    50  GLY50      -0.2714
     39  N          6.0150   14.7780   69.7260 N.am   51  SER51      -0.1935
     40  CA         6.7120   14.5240   68.4820 C.3    51  SER51       0.2055
     41  C          5.7600   14.0460   67.3300 C.2    51  SER51       0.2643
     42  O          5.9690   14.4250   66.1760 O.2    51  SER51      -0.2714
     43  CB         7.8440   13.5840   68.6820 C.3    51  SER51       0.2130
     44  OG         8.8530   14.2820   69.3720 O.3    51  SER51      -0.2179
     45  N          4.6960   13.3350   67.6910 N.am   52  PHE52      -0.1959
     46  CA         3.7620   12.8270   66.7360 C.3    52  PHE52       0.1771
     47  C          3.1210   13.9710   65.9280 C.2    52  PHE52       0.2619
     48  O          2.7640   13.7700   64.7350 O.2    52  PHE52      -0.2715
     49  CB         2.7090   11.8880   67.3730 C.3    52  PHE52       0.0574
     50  CG         1.8920   11.0770   66.3500 C.ar   52  PHE52      -0.0200
     51  CD1        0.7290   11.5970   65.7970 C.ar   52  PHE52      -0.0042
     52  CD2        2.2660    9.7970   65.9760 C.ar   52  PHE52      -0.0042
     53  CE1       -0.0310   10.8490   64.8980 C.ar   52  PHE52      -0.0003
     54  CE2        1.5320    9.0490   65.0400 C.ar   52  PHE52      -0.0003
     55  CZ         0.3860    9.5850   64.4870 C.ar   52  PHE52      -0.0000
     56  N          2.9640   15.1450   66.5630 N.am   53  GLU53      -0.1977
     57  CA         2.2800   16.2430   65.9530 C.3    53  GLU53       0.1602
     58  C          3.2690   16.9990   65.0100 C.2    53  GLU53       0.2287
     59  O          2.8970   17.8790   64.2050 O.2    53  GLU53      -0.2864
     60  CB         1.7480   17.1660   67.0550 C.3    53  GLU53       0.0415
     61  CG         0.4230   16.7480   67.6670 C.3    53  GLU53       0.1163
     62  CD         0.6180   15.5630   68.5810 C.2    53  GLU53       0.3649
     63  OE1        1.4230   15.6440   69.5390 O.co2  53  GLU53      -0.2457
     64  OE2        0.0170   14.5140   68.3210 O.co2  53  GLU53      -0.2457
     65  N         12.2950   15.3440   71.1420 N.3    80  VAL80      -0.1231
     66  CA        13.2450   14.5900   71.9300 C.3    80  VAL80       0.1692
     67  C         12.4510   13.4040   72.4610 C.2    80  VAL80       0.2592
     68  O         11.5570   13.5690   73.2980 O.2    80  VAL80      -0.2718
     69  CB        13.8280   15.4450   73.0800 C.3    80  VAL80       0.0266
     70  CG1       14.6830   14.5880   74.0470 C.3    80  VAL80       0.0020
     71  CG2       14.6900   16.5770   72.5230 C.3    80  VAL80       0.0020
     72  N         12.7260   12.2330   71.9120 N.am   81  LEU81      -0.1966
     73  CA        12.0570   10.9960   72.3380 C.3    81  LEU81       0.1728
     74  C         13.0380   10.1410   73.1270 C.2    81  LEU81       0.2616
     75  O         14.1910    9.9350   72.7070 O.2    81  LEU81      -0.2715
     76  CB        11.6240   10.1940   71.0970 C.3    81  LEU81       0.0311
     77  CG        10.4490   10.8350   70.3130 C.3    81  LEU81       0.0022
     78  CD1       10.4410   10.4540   68.8180 C.3    81  LEU81       0.0001
     79  CD2        9.1710   10.3860   70.9870 C.3    81  LEU81       0.0001
     80  N         12.5910    9.6450   74.2580 N.am   82  ILE82      -0.1977
     81  CA        13.4040    8.7860   75.1030 C.3    82  ILE82       0.1596
     82  C         12.7300    7.4550   75.3580 C.2    82  ILE82       0.2287
     83  O         11.5920    7.4280   75.7470 O.2    82  ILE82      -0.2864
     84  CB        13.7590    9.4900   76.4260 C.3    82  ILE82       0.0276
     85  CG1       14.6220   10.7260   76.1060 C.3    82  ILE82       0.0022
     86  CG2       14.5950    8.5760   77.3510 C.3    82  ILE82       0.0022
     87  CD1       14.6760   11.7880   77.1850 C.3    82  ILE82       0.0001
     88  N          5.7960    2.6280   73.0560 N.3    88  HIS88      -0.1226
     89  CA         5.4260    3.9000   72.6150 C.3    88  HIS88       0.1752
     90  C          6.5820    4.5420   71.8540 C.2    88  HIS88       0.2596
     91  O          6.4120    4.9390   70.7630 O.2    88  HIS88      -0.2718
     92  CB         4.9680    4.7180   73.8010 C.3    88  HIS88       0.0759
     93  CG         4.2750    5.9460   73.3970 C.ar   88  HIS88       0.0818
     94  ND1        2.9870    5.9300   72.9030 N.ar   88  HIS88      -0.2268
     95  CD2        4.6950    7.2410   73.3420 C.ar   88  HIS88       0.1154
     96  CE1        2.6370    7.1630   72.5510 C.ar   88  HIS88       0.1986
     97  NE2        3.6400    7.9810   72.8430 N.ar   88  HIS88      -0.2212
     98  N          7.7580    4.6330   72.4330 N.am   89  PHE89      -0.1976
     99  CA         8.9380    5.2000   71.7820 C.3    89  PHE89       0.1639
    100  C          9.0990    4.7300   70.2960 C.2    89  PHE89       0.2290
    101  O          9.3150    5.5670   69.4160 O.2    89  PHE89      -0.2864
    102  CB        10.1430    4.8550   72.6370 C.3    89  PHE89       0.0560
    103  CG        11.4730    5.1290   71.9850 C.ar   89  PHE89      -0.0200
    104  CD1       12.0400    6.4160   72.0480 C.ar   89  PHE89      -0.0042
    105  CD2       12.1770    4.1080   71.3300 C.ar   89  PHE89      -0.0042
    106  CE1       13.2760    6.6850   71.4690 C.ar   89  PHE89      -0.0003
    107  CE2       13.4080    4.3810   70.7250 C.ar   89  PHE89      -0.0003
    108  CZ        13.9530    5.6750   70.8090 C.ar   89  PHE89      -0.0000
    109  N          6.0070    5.9490   67.8800 N.3    92  ILE92      -0.1245
    110  CA         6.1150    7.3610   67.5800 C.3    92  ILE92       0.1561
    111  C          7.3330    7.5780   66.6870 C.2    92  ILE92       0.2260
    112  O          7.2360    8.2300   65.6870 O.2    92  ILE92      -0.2867
    113  CB         6.3650    8.2290   68.8450 C.3    92  ILE92       0.0252
    114  CG1        5.3200    7.9530   69.9300 C.3    92  ILE92       0.0019
    115  CG2        6.2720    9.6850   68.4870 C.3    92  ILE92       0.0019
    116  CD1        3.9340    7.9510   69.3810 C.3    92  ILE92       0.0001
@<TRIPOS>BOND
     1    59    58    2
     2    55    53   ar
     3    55    54   ar
     4    48    47    2
     5    53    51   ar
     6    58    57    1
     7    54    52   ar
     8   112   111    2
     9    51    50   ar
    10    47    56   am
    11    47    46    1
    12    57    56    1
    13    57    60    1
    14    52    50   ar
    15    42    41    2
    16    50    49    1
    17   111   110    1
    18    46    49    1
    19    46    45    1
    20    60    61    1
    21    41    45   am
    22    41    40    1
    23   110   109    1
    24   110   113    1
    25    61    62    1
    26    64    62   ar
    27    40    43    1
    28    40    39    1
    29   115   113    1
    30    62    63   ar
    31    43    44    1
    32    38    37    2
    33    78    77    1
    34   113   114    1
    35   116   114    1
    36   101   100    2
    37     1     2    1
    38    39    37   am
    39    37    36    1
    40    34    28    1
    41    34    33    1
    42   100    99    1
    43    77    79    1
    44    77    76    1
    45     2     5    1
    46     2     3    1
    47    28    29    1
    48   107   108   ar
    49   107   105   ar
    50    91    90    2
    51   108   106   ar
    52    35    36    1
    53    35    30   am
    54    76    73    1
    55    65    66    1
    56   105   103   ar
    57    33    32    1
    58   106   104   ar
    59    99    98    1
    60    99   102    1
    61    90    98   am
    62    90    89    1
    63    72    73    1
    64    72    67   am
    65    66    67    1
    66    66    69    1
    67    29    30    1
    68    29    32    1
    69     3     4    2
    70    30    31    2
    71   103   104   ar
    72   103   102    1
    73    73    74    1
    74    67    68    2
    75    71    69    1
    76    96    97   ar
    77    96    94   ar
    78    89    88    1
    79    89    92    1
    80    75    74    2
    81    97    95   ar
    82    94    93   ar
    83    69    70    1
    84    74    80   am
    85    95    93   ar
    86    93    92    1
    87    80    81    1
    88    81    82    1
    89    81    84    1
    90     9     8    2
    91     6     7    1
    92    82    83    2
    93    10     7    1
    94    10    11    1
    95    85    84    1
    96    85    87    1
    97     7     8    1
    98     8    20   am
    99    12    11   ar
   100    12    14   ar
   101    11    13   ar
   102    23    22    2
   103    84    86    1
   104    27    25   am
   105    14    15   ar
   106    13    15   ar
   107    13    16   ar
   108    24    25    1
   109    24    21    1
   110    15    17   ar
   111    22    21    1
   112    16    18   ar
   113    20    21    1
   114    25    26    2
   115    17    19   ar
   116    18    19   ar
