@<TRIPOS>MOLECULE
tmp/4kq7A01.pdb
 93 86 0 0 0
SMALL
GASTEIGER

@<TRIPOS>ATOM
      1  N         24.1170   25.5720  142.8810 N.3   191  THR191     -0.1203
      2  CA        24.3050   26.9380  142.3830 C.3   191  THR191      0.1994
      3  C         25.6570   27.2860  141.8110 C.2   191  THR191      0.2618
      4  O         25.7500   28.2670  141.0710 O.2   191  THR191     -0.2717
      5  CB        24.0760   27.9200  143.5350 C.3   191  THR191      0.1784
      6  OG1       25.0470   27.6730  144.5620 O.3   191  THR191     -0.2211
      7  CG2       22.6740   27.8350  144.1010 C.3   191  THR191      0.0376
      8  N         26.7000   26.5820  142.2480 N.am  192  GLY192     -0.1942
      9  CA        28.0730   26.9180  141.8880 C.3   192  GLY192      0.2014
     10  C         28.5940   28.1310  142.6450 C.2   192  GLY192      0.2638
     11  O         29.6640   28.6350  142.3170 O.2   192  GLY192     -0.2714
     12  N         27.8600   28.6060  143.6730 N.am  193  GLU193     -0.1977
     13  CA        28.2030   29.8100  144.4460 C.3   193  GLU193      0.1602
     14  C         29.6830   29.8270  144.9610 C.2   193  GLU193      0.2287
     15  O         30.3440   30.8710  144.9000 O.2   193  GLU193     -0.2864
     16  CB        27.2270   29.9450  145.6320 C.3   193  GLU193      0.0415
     17  CG        27.6130   31.0020  146.6570 C.3   193  GLU193      0.1163
     18  CD        26.9280   30.9230  148.0110 C.2   193  GLU193      0.3649
     19  OE1       26.1500   29.9690  148.2610 O.co2 193  GLU193     -0.2457
     20  OE2       27.2030   31.8200  148.8390 O.co2 193  GLU193     -0.2457
     21  N         32.1960   27.9020  143.7700 N.3   195  ASN195     -0.1240
     22  CA        33.1520   27.3930  142.7790 C.3   195  ASN195      0.1653
     23  C         34.3130   28.3470  142.5620 C.2   195  ASN195      0.2266
     24  O         34.1600   29.5590  142.7400 O.2   195  ASN195     -0.2867
     25  CB        32.4610   27.2090  141.4330 C.3   195  ASN195      0.1155
     26  CG        31.4330   26.1060  141.3620 C.2   195  ASN195      0.2627
     27  OD1       31.0430   25.5060  142.3710 O.2   195  ASN195     -0.2716
     28  ND2       30.9960   25.7870  140.1320 N.am  195  ASN195     -0.0877
     29  N         36.5990   30.5480  140.2540 N.3   197  VAL197     -0.1245
     30  CA        36.3090   31.2570  138.9940 C.3   197  VAL197      0.1561
     31  C         37.5980   31.4680  138.2180 C.2   197  VAL197      0.2260
     32  O         38.5090   32.1310  138.7190 O.2   197  VAL197     -0.2867
     33  CB        35.5870   32.6090  139.2470 C.3   197  VAL197      0.0252
     34  CG1       35.3160   33.3510  137.9320 C.3   197  VAL197      0.0019
     35  CG2       34.2890   32.4010  140.0380 C.3   197  VAL197      0.0019
     36  N         35.8160   35.4730  133.7580 N.3   199  GLU199     -0.1245
     37  CA        34.5660   36.2000  133.8180 C.3   199  GLU199      0.1567
     38  C         34.7350   37.4120  132.9390 C.2   199  GLU199      0.2260
     39  O         35.6890   38.1600  133.1400 O.2   199  GLU199     -0.2867
     40  CB        34.2770   36.5610  135.2850 C.3   199  GLU199      0.0388
     41  CG        32.9070   37.0840  135.5380 C.3   199  GLU199      0.1160
     42  CD        32.5740   37.1510  137.0130 C.2   199  GLU199      0.3649
     43  OE1       33.4470   36.8540  137.8640 O.co2 199  GLU199     -0.2457
     44  OE2       31.4360   37.5540  137.3120 O.co2 199  GLU199     -0.2457
     45  N         28.4170   29.6710  132.9090 N.3   227  PHE227     -0.1241
     46  CA        27.2480   30.5450  132.8360 C.3   227  PHE227      0.1605
     47  C         27.4050   31.4070  131.6160 C.2   227  PHE227      0.2264
     48  O         28.2980   32.2720  131.5760 O.2   227  PHE227     -0.2867
     49  CB        27.1330   31.4130  134.1010 C.3   227  PHE227      0.0534
     50  CG        26.9430   30.6170  135.3750 C.ar  227  PHE227     -0.0203
     51  CD1       28.0400   30.0500  136.0310 C.ar  227  PHE227     -0.0042
     52  CD2       25.6750   30.4560  135.9280 C.ar  227  PHE227     -0.0042
     53  CE1       27.8680   29.3130  137.2090 C.ar  227  PHE227     -0.0003
     54  CE2       25.5050   29.7350  137.1170 C.ar  227  PHE227     -0.0003
     55  CZ        26.5990   29.1560  137.7320 C.ar  227  PHE227     -0.0000
     56  N         24.5800   35.5710  131.0320 N.3   230  GLY230     -0.1210
     57  CA        23.8480   35.9000  132.2570 C.3   230  GLY230      0.1956
     58  C         22.7230   34.9580  132.6540 C.2   230  GLY230      0.2612
     59  O         21.8850   35.3260  133.4900 O.2   230  GLY230     -0.2717
     60  N         22.6830   33.7320  132.0740 N.am  231  GLU231     -0.1965
     61  CA        21.6330   32.7520  132.4100 C.3   231  GLU231      0.1733
     62  C         21.7000   32.4060  133.9010 C.2   231  GLU231      0.2616
     63  O         22.7860   32.4150  134.4830 O.2   231  GLU231     -0.2715
     64  CB        21.7910   31.4880  131.5540 C.3   231  GLU231      0.0429
     65  CG        23.1170   30.7670  131.7830 C.3   231  GLU231      0.1163
     66  CD        23.4580   29.7480  130.7210 C.2   231  GLU231      0.3649
     67  OE1       22.5770   29.4240  129.8920 O.co2 231  GLU231     -0.2457
     68  OE2       24.6110   29.2660  130.7170 O.co2 231  GLU231     -0.2457
     69  N         20.5380   32.1150  134.5230 N.am  232  LYS232     -0.1977
     70  CA        20.5210   31.7940  135.9570 C.3   232  LYS232      0.1596
     71  C         21.0160   30.3620  136.2140 C.2   232  LYS232      0.2287
     72  O         21.7950   30.1490  137.1470 O.2   232  LYS232     -0.2864
     73  CB        19.1360   32.0410  136.5980 C.3   232  LYS232      0.0298
     74  CG        18.3600   33.2800  136.1620 C.3   232  LYS232      0.0038
     75  CD        19.0820   34.5870  136.4190 C.3   232  LYS232      0.0206
     76  CE        18.1340   35.7560  136.2110 C.3   232  LYS232      0.1093
     77  NZ        17.3900   35.6310  134.9310 N.3   232  LYS232     -0.1314
     78  N         31.0120   33.2380  132.2830 N.3   293  LYS293     -0.1245
     79  CA        31.6100   32.9860  133.5930 C.3   293  LYS293      0.1561
     80  C         31.9850   31.5040  133.6340 C.2   293  LYS293      0.2260
     81  O         31.1110   30.6400  133.5110 O.2   293  LYS293     -0.2867
     82  CB        30.6760   33.4160  134.7380 C.3   293  LYS293      0.0271
     83  CG        31.2900   33.2920  136.1220 C.3   293  LYS293      0.0035
     84  CD        30.2150   33.6370  137.1480 C.3   293  LYS293      0.0206
     85  CE        30.7960   33.9060  138.4970 C.3   293  LYS293      0.1093
     86  NZ        29.7200   34.2940  139.4610 N.3   293  LYS293     -0.1314
     87  N         33.7280   28.4490  135.5690 N.3   295  THR295     -0.1218
     88  CA        33.9990   28.0470  136.9520 C.3   295  THR295      0.1862
     89  C         34.2310   26.5460  137.0820 C.2   295  THR295      0.2287
     90  O         33.8670   25.7540  136.2030 O.2   295  THR295     -0.2866
     91  CB        32.8190   28.4590  137.8850 C.3   295  THR295      0.1770
     92  OG1       31.7610   27.4730  137.8010 O.3   295  THR295     -0.2211
     93  CG2       32.2700   29.8840  137.6090 C.3   295  THR295      0.0375
@<TRIPOS>BOND
     1    67    66   ar
     2    68    66   ar
     3    66    65    1
     4    56    57    1
     5    64    65    1
     6    64    61    1
     7    48    47    2
     8    47    46    1
     9    60    61    1
    10    60    58   am
    11    57    58    1
    12    78    79    1
    13    61    62    1
    14    58    59    2
    15    46    45    1
    16    46    49    1
    17    38    39    2
    18    38    37    1
    19    81    80    2
    20    79    80    1
    21    79    82    1
    22    36    37    1
    23    37    40    1
    24    62    63    2
    25    62    69   am
    26    49    50    1
    27    69    70    1
    28    82    83    1
    29    77    76    1
    30    40    41    1
    31    50    52   ar
    32    50    51   ar
    33    41    42    1
    34    87    88    1
    35    52    54   ar
    36    70    71    1
    37    70    73    1
    38    51    53   ar
    39    83    84    1
    40    74    75    1
    41    74    73    1
    42    90    89    2
    43    76    75    1
    44    71    72    2
    45    88    89    1
    46    88    91    1
    47    42    44   ar
    48    42    43   ar
    49    54    55   ar
    50    84    85    1
    51    53    55   ar
    52    93    91    1
    53    92    91    1
    54    34    33    1
    55    31    32    2
    56    31    30    1
    57    85    86    1
    58    30    33    1
    59    30    29    1
    60    33    35    1
    61    28    26   am
    62     4     3    2
    63    26    25    1
    64    26    27    2
    65    25    22    1
    66     3     8   am
    67     3     2    1
    68     9     8    1
    69     9    10    1
    70    11    10    2
    71     2     1    1
    72     2     5    1
    73    23    24    2
    74    23    22    1
    75    10    12   am
    76    22    21    1
    77     5     7    1
    78     5     6    1
    79    12    13    1
    80    13    14    1
    81    13    16    1
    82    15    14    2
    83    16    17    1
    84    17    18    1
    85    18    19   ar
    86    18    20   ar
