@<TRIPOS>MOLECULE
tmp/4kq7B02.pdb
 93 86 0 0 0
SMALL
GASTEIGER

@<TRIPOS>ATOM
      1  N         67.0160    1.2150  179.9090 N.3   191  THR191     -0.1203
      2  CA        66.9680   -0.2120  180.2670 C.3   191  THR191      0.1994
      3  C         66.8590   -1.1670  179.0590 C.2   191  THR191      0.2618
      4  O         67.2230   -2.3430  179.1770 O.2   191  THR191     -0.2717
      5  CB        65.7700   -0.4840  181.1880 C.3   191  THR191      0.1784
      6  OG1       64.5570   -0.2190  180.4790 O.3   191  THR191     -0.2211
      7  CG2       65.8170    0.3080  182.5130 C.3   191  THR191      0.0376
      8  N         66.2900   -0.6780  177.9500 N.am  192  GLY192     -0.1942
      9  CA        66.0050   -1.5060  176.7840 C.3   192  GLY192      0.2014
     10  C         64.8210   -2.4370  177.0160 C.2   192  GLY192      0.2638
     11  O         64.5570   -3.3080  176.1820 O.2   192  GLY192     -0.2714
     12  N         64.0770   -2.2530  178.1420 N.am  193  GLU193     -0.1977
     13  CA        62.9800   -3.1580  178.5130 C.3   193  GLU193      0.1602
     14  C         61.8370   -3.1960  177.5020 C.2   193  GLU193      0.2287
     15  O         61.1740   -4.2380  177.3970 O.2   193  GLU193     -0.2864
     16  CB        62.4230   -2.8220  179.9040 C.3   193  GLU193      0.0415
     17  CG        63.2810   -3.3650  181.0340 C.3   193  GLU193      0.1163
     18  CD        62.9700   -2.8500  182.4290 C.2   193  GLU193      0.3649
     19  OE1       62.1850   -1.8830  182.5580 O.co2 193  GLU193     -0.2457
     20  OE2       63.5470   -3.3950  183.3960 O.co2 193  GLU193     -0.2457
     21  N         62.3040   -2.7930  174.2020 N.3   195  ASN195     -0.1240
     22  CA        62.8530   -3.1340  172.8720 C.3   195  ASN195      0.1653
     23  C         62.1980   -4.3750  172.2860 C.2   195  ASN195      0.2266
     24  O         61.7530   -5.2550  173.0430 O.2   195  ASN195     -0.2867
     25  CB        64.3540   -3.4370  172.9680 C.3   195  ASN195      0.1155
     26  CG        65.2500   -2.2660  173.2740 C.2   195  ASN195      0.2627
     27  OD1       64.7890   -1.1760  173.6210 O.2   195  ASN195     -0.2716
     28  ND2       66.5600   -2.4850  173.1290 N.am  195  ASN195     -0.0877
     29  N         62.3390   -8.0030  170.7790 N.3   197  VAL197     -0.1245
     30  CA        63.3090   -9.0950  170.9810 C.3   197  VAL197      0.1561
     31  C         63.2740  -10.0270  169.7780 C.2   197  VAL197      0.2260
     32  O         62.2190  -10.6000  169.4910 O.2   197  VAL197     -0.2867
     33  CB        63.0260   -9.8730  172.2940 C.3   197  VAL197      0.0252
     34  CG1       64.0040  -11.0500  172.4640 C.3   197  VAL197      0.0019
     35  CG2       63.0590   -8.9410  173.5030 C.3   197  VAL197      0.0019
     36  N         66.5130  -14.9630  171.8530 N.3   199  GLU199     -0.1245
     37  CA        66.8300  -15.1380  173.2590 C.3   199  GLU199      0.1567
     38  C         67.0500  -16.6140  173.5250 C.2   199  GLU199      0.2260
     39  O         66.1120  -17.3970  173.3770 O.2   199  GLU199     -0.2867
     40  CB        65.7440  -14.5670  174.1840 C.3   199  GLU199      0.0388
     41  CG        66.2130  -14.6050  175.6280 C.3   199  GLU199      0.1160
     42  CD        65.3410  -13.8980  176.6440 C.2   199  GLU199      0.3649
     43  OE1       64.2000  -13.5100  176.3020 O.co2 199  GLU199     -0.2457
     44  OE2       65.8180  -13.7110  177.7850 O.co2 199  GLU199     -0.2457
     45  N         72.5560   -8.3600  174.8410 N.3   227  PHE227     -0.1241
     46  CA        72.8950   -8.7520  176.2010 C.3   227  PHE227      0.1605
     47  C         73.5540  -10.1060  176.1420 C.2   227  PHE227      0.2264
     48  O         72.8910  -11.1030  175.8340 O.2   227  PHE227     -0.2867
     49  CB        71.6350   -8.7940  177.0820 C.3   227  PHE227      0.0534
     50  CG        70.9260   -7.4720  177.2200 C.ar  227  PHE227     -0.0203
     51  CD1       70.0390   -7.0330  176.2450 C.ar  227  PHE227     -0.0042
     52  CD2       71.1080   -6.6860  178.3480 C.ar  227  PHE227     -0.0042
     53  CE1       69.3940   -5.7940  176.3720 C.ar  227  PHE227     -0.0003
     54  CE2       70.4420   -5.4630  178.4810 C.ar  227  PHE227     -0.0003
     55  CZ        69.6040   -5.0220  177.4940 C.ar  227  PHE227     -0.0000
     56  N         74.1170  -12.9570  180.2740 N.3   230  GLY230     -0.1210
     57  CA        73.3790  -12.4130  181.4140 C.3   230  GLY230      0.1956
     58  C         73.8580  -11.0990  182.0000 C.2   230  GLY230      0.2612
     59  O         73.3970  -10.7230  183.0810 O.2   230  GLY230     -0.2717
     60  N         74.7230  -10.3550  181.2800 N.am  231  GLU231     -0.1965
     61  CA        75.2100   -9.0480  181.7500 C.3   231  GLU231      0.1733
     62  C         74.0430   -8.0780  181.9430 C.2   231  GLU231      0.2616
     63  O         73.0580   -8.1610  181.2150 O.2   231  GLU231     -0.2715
     64  CB        76.2420   -8.4680  180.7700 C.3   231  GLU231      0.0429
     65  CG        75.6620   -8.1820  179.3870 C.3   231  GLU231      0.1163
     66  CD        76.6890   -7.9660  178.2980 C.2   231  GLU231      0.3649
     67  OE1       77.8880   -7.8350  178.6260 O.co2 231  GLU231     -0.2457
     68  OE2       76.2910   -7.9300  177.1110 O.co2 231  GLU231     -0.2457
     69  N         74.1360   -7.1800  182.9400 N.am  232  LYS232     -0.1977
     70  CA        73.0510   -6.2310  183.2000 C.3   232  LYS232      0.1596
     71  C         73.0840   -5.0720  182.1860 C.2   232  LYS232      0.2287
     72  O         72.0350   -4.6490  181.7220 O.2   232  LYS232     -0.2864
     73  CB        73.0510   -5.7080  184.6580 C.3   232  LYS232      0.0298
     74  CG        73.3670   -6.7020  185.7710 C.3   232  LYS232      0.0038
     75  CD        72.4150   -7.8790  185.8420 C.3   232  LYS232      0.0206
     76  CE        72.6390   -8.6550  187.1280 C.3   232  LYS232      0.1093
     77  NZ        74.0820   -8.9330  187.3520 N.3   232  LYS232     -0.1314
     78  N         70.7050  -12.3930  174.2880 N.3   293  LYS293     -0.1245
     79  CA        69.4180  -11.7380  174.0490 C.3   293  LYS293      0.1561
     80  C         69.6850  -10.6220  173.0480 C.2   293  LYS293      0.2260
     81  O         70.4170   -9.6780  173.3730 O.2   293  LYS293     -0.2867
     82  CB        68.7840  -11.2070  175.3380 C.3   293  LYS293      0.0271
     83  CG        67.3780  -10.6820  175.1560 C.3   293  LYS293      0.0035
     84  CD        66.8600  -10.2150  176.5410 C.3   293  LYS293      0.0206
     85  CE        65.3690   -9.9890  176.5580 C.3   293  LYS293      0.1093
     86  NZ        64.9020   -9.5250  177.9050 N.3   293  LYS293     -0.1314
     87  N         68.2020   -7.6960  170.7200 N.3   295  THR295     -0.1218
     88  CA        67.0540   -6.7740  170.7200 C.3   295  THR295      0.1862
     89  C         67.3020   -5.5490  169.8540 C.2   295  THR295      0.2287
     90  O         68.4470   -5.2220  169.5180 O.2   295  THR295     -0.2866
     91  CB        66.7310   -6.3020  172.1660 C.3   295  THR295      0.1770
     92  OG1       67.6000   -5.2190  172.5440 O.3   295  THR295     -0.2211
     93  CG2       66.7890   -7.4410  173.2230 C.3   295  THR295      0.0375
@<TRIPOS>BOND
     1    32    31    2
     2    90    89    2
     3    31    30    1
     4    89    88    1
     5    88    87    1
     6    88    91    1
     7    29    30    1
     8    30    33    1
     9    36    37    1
    10    91    92    1
    11    91    93    1
    12    23    22    1
    13    23    24    2
    14    33    34    1
    15    33    35    1
    16    22    25    1
    17    22    21    1
    18    25    26    1
    19    80    81    2
    20    80    79    1
    21    28    26   am
    22    37    38    1
    23    37    40    1
    24    26    27    2
    25    39    38    2
    26    79    78    1
    27    79    82    1
    28    40    41    1
    29    45    46    1
    30    83    82    1
    31    83    84    1
    32    41    42    1
    33    48    47    2
    34    47    46    1
    35    11    10    2
    36    46    49    1
    37    51    53   ar
    38    51    50   ar
    39    43    42   ar
    40    53    55   ar
    41    84    85    1
    42    85    86    1
    43    42    44   ar
    44     9    10    1
    45     9     8    1
    46    10    12   am
    47    49    50    1
    48    68    66   ar
    49    50    52   ar
    50    15    14    2
    51    55    54   ar
    52    14    13    1
    53     8     3   am
    54    12    13    1
    55    66    67   ar
    56    66    65    1
    57    52    54   ar
    58    13    16    1
    59     3     4    2
    60     3     2    1
    61    65    64    1
    62    16    17    1
    63     1     2    1
    64     2     5    1
    65    56    57    1
    66     6     5    1
    67    64    61    1
    68    17    18    1
    69     5     7    1
    70    63    62    2
    71    60    61    1
    72    60    58   am
    73    57    58    1
    74    72    71    2
    75    61    62    1
    76    62    69   am
    77    58    59    2
    78    71    70    1
    79    18    19   ar
    80    18    20   ar
    81    69    70    1
    82    70    73    1
    83    73    74    1
    84    74    75    1
    85    75    76    1
    86    76    77    1
