@<TRIPOS>MOLECULE
tmp/4kq8A01.pdb
 133 127 0 0 0
SMALL
GASTEIGER

@<TRIPOS>ATOM
      1  N         91.5360   62.7450   40.1930 N.3    71  ARG71      -0.1245
      2  CA        90.7960   62.9950   41.4220 C.3    71  ARG71       0.1563
      3  C         91.5170   64.1130   42.1620 C.2    71  ARG71       0.2260
      4  O         92.3670   64.7830   41.5780 O.2    71  ARG71      -0.2867
      5  CB        90.7110   61.7290   42.2700 C.3    71  ARG71       0.0307
      6  CG        90.2730   60.5210   41.4830 C.3    71  ARG71       0.0489
      7  CD        89.6920   59.4570   42.3580 C.3    71  ARG71       0.2205
      8  NE        89.4400   58.2510   41.5810 N.pl3  71  ARG71      -0.0865
      9  CZ        88.2750   57.9550   41.0140 C.cat  71  ARG71       0.5346
     10  NH1       87.2410   58.7790   41.1440 N.pl3  71  ARG71       0.1354
     11  NH2       88.1420   56.8300   40.3190 N.pl3  71  ARG71       0.1354
     12  N         93.7480   54.4470   42.6600 N.3    89  ILE89      -0.1231
     13  CA        92.5090   55.0260   43.1890 C.3    89  ILE89       0.1692
     14  C         92.5990   56.5470   43.2660 C.2    89  ILE89       0.2592
     15  O         91.7620   57.2400   42.6840 O.2    89  ILE89      -0.2718
     16  CB        92.0940   54.4330   44.5470 C.3    89  ILE89       0.0266
     17  CG1       91.9630   52.9180   44.4540 C.3    89  ILE89       0.0019
     18  CG2       90.7610   54.9890   44.9590 C.3    89  ILE89       0.0020
     19  CD1       92.0130   52.2190   45.7850 C.3    89  ILE89       0.0001
     20  N         93.6330   57.0520   43.9470 N.am   90  PHE90      -0.1976
     21  CA        93.8780   58.4980   44.0360 C.3    90  PHE90       0.1639
     22  C         95.2310   58.9400   43.4830 C.2    90  PHE90       0.2290
     23  O         95.7360   60.0110   43.8360 O.2    90  PHE90      -0.2864
     24  CB        93.6890   59.0010   45.4660 C.3    90  PHE90       0.0560
     25  CG        92.2530   59.2480   45.8310 C.ar   90  PHE90      -0.0200
     26  CD1       91.5050   58.2680   46.4790 C.ar   90  PHE90      -0.0042
     27  CD2       91.6420   60.4600   45.5200 C.ar   90  PHE90      -0.0042
     28  CE1       90.1740   58.5000   46.8090 C.ar   90  PHE90      -0.0003
     29  CE2       90.3110   60.6970   45.8470 C.ar   90  PHE90      -0.0003
     30  CZ        89.5760   59.7180   46.4900 C.ar   90  PHE90      -0.0000
     31  N         91.2910   52.0930   55.8200 N.3   177  PHE177     -0.1241
     32  CA        90.2150   52.7940   55.1620 C.3   177  PHE177      0.1605
     33  C         89.8080   53.9960   56.0080 C.2   177  PHE177      0.2264
     34  O         89.5990   55.0800   55.4750 O.2   177  PHE177     -0.2867
     35  CB        89.0250   51.8810   54.8730 C.3   177  PHE177      0.0534
     36  CG        87.8840   52.5920   54.2190 C.ar  177  PHE177     -0.0203
     37  CD1       87.8740   52.7930   52.8430 C.ar  177  PHE177     -0.0042
     38  CD2       86.8330   53.1040   54.9820 C.ar  177  PHE177     -0.0042
     39  CE1       86.8240   53.4800   52.2310 C.ar  177  PHE177     -0.0003
     40  CE2       85.7780   53.7880   54.3830 C.ar  177  PHE177     -0.0003
     41  CZ        85.7740   53.9770   53.0040 C.ar  177  PHE177     -0.0000
     42  N         92.5070   56.6550   55.5480 N.3   180  TRP180     -0.1241
     43  CA        92.2500   57.1740   54.2160 C.3   180  TRP180      0.1605
     44  C         91.0870   58.1510   54.2610 C.2   180  TRP180      0.2264
     45  O         91.2210   59.2930   53.8480 O.2   180  TRP180     -0.2867
     46  CB        91.9830   55.9950   53.2690 C.3   180  TRP180      0.0550
     47  CG        91.5250   56.2980   51.8670 C.ar  180  TRP180      0.0003
     48  CD1       91.5660   57.4940   51.2140 C.ar  180  TRP180      0.0946
     49  CD2       90.9920   55.3530   50.9360 C.ar  180  TRP180      0.0152
     50  NE1       91.0700   57.3590   49.9410 N.ar  180  TRP180     -0.2442
     51  CE2       90.7150   56.0510   49.7420 C.ar  180  TRP180      0.0810
     52  CE3       90.7150   53.9790   50.9980 C.ar  180  TRP180      0.0012
     53  CZ2       90.1700   55.4220   48.6150 C.ar  180  TRP180      0.0191
     54  CZ3       90.1750   53.3550   49.8820 C.ar  180  TRP180      0.0001
     55  CH2       89.9070   54.0760   48.7050 C.ar  180  TRP180      0.0015
     56  N         92.3770   45.7110   49.3240 N.3   261  ILE261     -0.1231
     57  CA        91.4110   46.4050   50.1650 C.3   261  ILE261      0.1692
     58  C         90.1200   46.7600   49.4400 C.2   261  ILE261      0.2591
     59  O         89.0750   46.8920   50.0700 O.2   261  ILE261     -0.2718
     60  CB        92.0100   47.6610   50.8330 C.3   261  ILE261      0.0266
     61  CG1       92.2920   48.7610   49.8060 C.3   261  ILE261      0.0019
     62  CG2       93.2540   47.2850   51.5970 C.3   261  ILE261      0.0020
     63  CD1       92.5280   50.1150   50.4150 C.3   261  ILE261      0.0001
     64  N         90.1930   46.8950   48.1210 N.am  262  ALA262     -0.1980
     65  CA        89.0690   47.3970   47.3390 C.3   262  ALA262      0.1597
     66  C         87.7970   46.5810   47.5440 C.2   262  ALA262      0.2287
     67  O         86.7360   47.1420   47.8360 O.2   262  ALA262     -0.2864
     68  CB        89.4320   47.4730   45.8690 C.3   262  ALA262      0.0319
     69  N         86.5080   46.7440   51.3100 N.3   265  ASP265     -0.1225
     70  CA        86.0800   48.1060   51.5940 C.3   265  ASP265      0.1805
     71  C         84.6620   48.3910   51.1480 C.2   265  ASP265      0.2598
     72  O         83.9520   49.1520   51.8000 O.2   265  ASP265     -0.2718
     73  CB        87.0040   49.1110   50.9130 C.3   265  ASP265      0.1424
     74  CG        88.2440   49.4240   51.7360 C.2   265  ASP265      0.3668
     75  OD1       88.2940   49.0400   52.9310 O.co2 265  ASP265     -0.2456
     76  OD2       89.1740   50.0630   51.1840 O.co2 265  ASP265     -0.2456
     77  N         84.2570   47.7810   50.0410 N.am  266  THR266     -0.1953
     78  CA        83.0550   48.2070   49.3320 C.3   266  THR266      0.1897
     79  C         82.0160   47.1130   49.1300 C.2   266  THR266      0.2313
     80  O         80.8120   47.3640   49.2620 O.2   266  THR266     -0.2863
     81  CB        83.4100   48.7810   47.9500 C.3   266  THR266      0.1794
     82  OG1       84.4770   48.0090   47.3790 O.3   266  THR266     -0.2208
     83  CG2       83.8380   50.2260   48.0720 C.3   266  THR266      0.0378
     84  N         79.0420   53.5860   47.5550 N.3   326  VAL326     -0.1245
     85  CA        79.8350   54.5830   46.8560 C.3   326  VAL326      0.1561
     86  C         78.8940   55.5480   46.1300 C.2   326  VAL326      0.2260
     87  O         78.4600   55.2970   45.0020 O.2   326  VAL326     -0.2867
     88  CB        80.8210   53.9340   45.8980 C.3   326  VAL326      0.0252
     89  CG1       81.8660   54.9370   45.4820 C.3   326  VAL326      0.0019
     90  CG2       81.4710   52.7490   46.5710 C.3   326  VAL326      0.0019
     91  N         79.4040   59.0220   45.8890 N.3   328  LEU328     -0.1231
     92  CA        80.0310   60.1760   45.2860 C.3   328  LEU328      0.1693
     93  C         81.3930   59.8450   44.6890 C.2   328  LEU328      0.2592
     94  O         82.1190   58.9850   45.1960 O.2   328  LEU328     -0.2718
     95  CB        80.0960   61.3450   46.2660 C.3   328  LEU328      0.0284
     96  CG        80.5020   61.1040   47.7180 C.3   328  LEU328      0.0019
     97  CD1       82.0010   61.2630   47.9140 C.3   328  LEU328      0.0001
     98  CD2       79.7600   62.1040   48.5770 C.3   328  LEU328      0.0001
     99  N         81.7100   60.5330   43.5950 N.am  329  VAL329     -0.1966
    100  CA        82.9350   60.3150   42.8420 C.3   329  VAL329      0.1727
    101  C         83.7010   61.6250   42.7930 C.2   329  VAL329      0.2616
    102  O         83.1430   62.6560   42.4310 O.2   329  VAL329     -0.2715
    103  CB        82.6330   59.8440   41.3950 C.3   329  VAL329      0.0290
    104  CG1       83.9140   59.5790   40.6290 C.3   329  VAL329      0.0023
    105  CG2       81.7590   58.6060   41.4010 C.3   329  VAL329      0.0023
    106  N         84.9750   61.5790   43.1640 N.am  330  MET330     -0.1977
    107  CA        85.8220   62.7600   43.1310 C.3   330  MET330      0.1605
    108  C         86.6550   62.8170   41.8660 C.2   330  MET330      0.2287
    109  O         87.4120   61.8950   41.5680 O.2   330  MET330     -0.2864
    110  CB        86.7130   62.8060   44.3590 C.3   330  MET330      0.0413
    111  CG        85.9570   63.1810   45.6130 C.3   330  MET330      0.0598
    112  SD        86.8680   62.8080   47.1160 S.3   330  MET330     -0.1393
    113  CE        88.1880   64.0000   47.0020 C.3   330  MET330      0.0692
    114  N         85.1350   52.7200   37.5010 N.3   393  CYS393     -0.1235
    115  CA        85.5610   51.6080   38.3490 C.3   393  CYS393      0.1677
    116  C         86.2990   50.5380   37.5500 C.2   393  CYS393      0.2270
    117  O         85.8250   50.1010   36.5120 O.2   393  CYS393     -0.2867
    118  CB        84.3490   50.9990   39.0500 C.3   393  CYS393      0.0956
    119  SG        84.6810   49.4990   39.9820 S.3   393  CYS393     -0.0801
    120  N         82.7680   60.1490   52.3320 N.3   433  LEU433     -0.1231
    121  CA        83.6330   59.3300   51.4530 C.3   433  LEU433      0.1693
    122  C         82.8520   58.1600   50.8710 C.2   433  LEU433      0.2592
    123  O         82.5710   58.1260   49.6680 O.2   433  LEU433     -0.2718
    124  CB        84.8730   58.8000   52.1880 C.3   433  LEU433      0.0284
    125  CG        86.2230   58.6810   51.4720 C.3   433  LEU433      0.0019
    126  CD1       86.7590   57.2650   51.6170 C.3   433  LEU433      0.0001
    127  CD2       86.1690   59.0850   50.0080 C.3   433  LEU433      0.0001
    128  N         82.5270   57.1920   51.7240 N.am  434  SER434     -0.1952
    129  CA        81.5390   56.1790   51.3900 C.3   434  SER434      0.1924
    130  C         80.3410   56.3310   52.3240 C.2   434  SER434      0.2314
    131  O         80.3900   57.0920   53.2810 O.2   434  SER434     -0.2863
    132  CB        82.1390   54.7730   51.4780 C.3   434  SER434      0.2116
    133  OG        82.5920   54.4930   52.7880 O.3   434  SER434     -0.2180
@<TRIPOS>BOND
     1   117   116    2
     2   114   115    1
     3   116   115    1
     4   115   118    1
     5   118   119    1
     6     1     2    1
     7    11     9    1
     8   104   103    1
     9     9    10    1
    10     9     8    2
    11   103   105    1
    12   103   100    1
    13     2     3    1
    14     2     5    1
    15     6     5    1
    16     6     7    1
    17   109   108    2
    18     4     3    2
    19     8     7    1
    20   108   107    1
    21   102   101    2
    22    12    13    1
    23    15    14    2
    24   101   100    1
    25   101   106   am
    26   100    99    1
    27   107   106    1
    28   107   110    1
    29    13    14    1
    30    13    16    1
    31    14    20   am
    32    22    23    2
    33    22    21    1
    34    99    93   am
    35    20    21    1
    36    21    24    1
    37   110   111    1
    38    17    16    1
    39    17    19    1
    40    16    18    1
    41    93    94    2
    42    93    92    1
    43    87    86    2
    44    92    91    1
    45    92    95    1
    46    24    25    1
    47    89    88    1
    48    27    25   ar
    49    27    29   ar
    50   111   112    1
    51    25    26   ar
    52    29    30   ar
    53    68    65    1
    54    88    90    1
    55    88    85    1
    56    86    85    1
    57    95    96    1
    58    26    28   ar
    59    30    28   ar
    60    85    84    1
    61   113   112    1
    62    65    66    1
    63    65    64    1
    64    82    81    1
    65    66    67    2
    66    96    97    1
    67    96    98    1
    68    81    83    1
    69    81    78    1
    70    64    58   am
    71    53    55   ar
    72    53    51   ar
    73    55    54   ar
    74    79    80    2
    75    79    78    1
    76    56    57    1
    77    78    77    1
    78    58    59    2
    79    58    57    1
    80   123   122    2
    81    51    50   ar
    82    51    49   ar
    83    61    63    1
    84    61    60    1
    85    54    52   ar
    86    50    48   ar
    87   127   125    1
    88    77    71   am
    89    57    60    1
    90    60    62    1
    91   122   121    1
    92   122   128   am
    93    73    70    1
    94    73    74    1
    95    49    52   ar
    96    49    47   ar
    97    71    70    1
    98    71    72    2
    99    76    74   ar
   100    48    47   ar
   101    69    70    1
   102   129   132    1
   103   129   128    1
   104   129   130    1
   105   121   124    1
   106   121   120    1
   107   125   126    1
   108   125   124    1
   109   132   133    1
   110    74    75   ar
   111    47    46    1
   112    39    37   ar
   113    39    41   ar
   114   130   131    2
   115    37    36   ar
   116    41    40   ar
   117    46    43    1
   118    45    44    2
   119    43    44    1
   120    43    42    1
   121    36    35    1
   122    36    38   ar
   123    40    38   ar
   124    35    32    1
   125    32    31    1
   126    32    33    1
   127    34    33    2
