@<TRIPOS>MOLECULE
tmp/4kqbA00.pdb
 94 87 0 0 0
SMALL
GASTEIGER

@<TRIPOS>ATOM
      1  N         75.1690   42.3330  218.3090 N.3    45  ARG45      -0.1245
      2  CA        74.0350   41.6270  218.9070 C.3    45  ARG45       0.1563
      3  C         72.7160   42.3670  218.6890 C.2    45  ARG45       0.2260
      4  O         71.6500   41.7520  218.6410 O.2    45  ARG45      -0.2867
      5  CB        74.2570   41.3900  220.4050 C.3    45  ARG45       0.0307
      6  CG        75.3980   40.4390  220.7350 C.3    45  ARG45       0.0489
      7  CD        75.6380   40.3800  222.2370 C.3    45  ARG45       0.2205
      8  NE        75.0120   39.2080  222.8450 N.pl3  45  ARG45      -0.0865
      9  CZ        75.6510   38.0760  223.1230 C.cat  45  ARG45       0.5346
     10  NH1       76.9440   37.9610  222.8540 N.pl3  45  ARG45       0.1354
     11  NH2       75.0010   37.0600  223.6750 N.pl3  45  ARG45       0.1354
     12  N         68.7010   40.6050  215.4610 N.3    49  CYS49      -0.1235
     13  CA        67.2490   40.5890  215.4180 C.3    49  CYS49       0.1677
     14  C         66.7690   41.9340  214.8980 C.2    49  CYS49       0.2270
     15  O         67.0100   42.9670  215.5230 O.2    49  CYS49      -0.2867
     16  CB        66.6790   40.3310  216.8130 C.3    49  CYS49       0.0956
     17  SG        64.8770   40.2370  216.8820 S.3    49  CYS49      -0.0801
     18  N         62.1990   42.8390  217.5030 N.3    52  ASN52      -0.1240
     19  CA        61.8000   41.9190  218.5660 C.3    52  ASN52       0.1653
     20  C         60.3990   42.2150  219.1090 C.2    52  ASN52       0.2266
     21  O         60.2480   43.0080  220.0400 O.2    52  ASN52      -0.2867
     22  CB        62.8370   41.9680  219.6970 C.3    52  ASN52       0.1155
     23  CG        62.6010   40.9210  220.7760 C.2    52  ASN52       0.2627
     24  OD1       61.5020   40.3900  220.9320 O.2    52  ASN52      -0.2716
     25  ND2       63.6480   40.6230  221.5330 N.am   52  ASN52      -0.0877
     26  N         56.4250   40.2350  220.1640 N.3    54  THR54      -0.1218
     27  CA        55.6700   39.0030  220.3860 C.3    54  THR54       0.1862
     28  C         54.3810   38.9560  219.5670 C.2    54  THR54       0.2287
     29  O         54.0240   39.9230  218.8980 O.2    54  THR54      -0.2866
     30  CB        55.3250   38.8140  221.8750 C.3    54  THR54       0.1770
     31  OG1       54.2860   39.7280  222.2450 O.3    54  THR54      -0.2211
     32  CG2       56.5480   39.0650  222.7410 C.3    54  THR54       0.0375
     33  N         53.5920   35.0950  224.1230 N.3    71  ASN71      -0.1240
     34  CA        54.9660   35.5770  224.2330 C.3    71  ASN71       0.1653
     35  C         55.9420   34.9900  223.2110 C.2    71  ASN71       0.2266
     36  O         57.1520   35.1850  223.3260 O.2    71  ASN71      -0.2867
     37  CB        55.4990   35.3730  225.6550 C.3    71  ASN71       0.1155
     38  CG        54.9120   36.3620  226.6430 C.2    71  ASN71       0.2627
     39  OD1       55.4770   37.4300  226.8810 O.2    71  ASN71      -0.2716
     40  ND2       53.7680   36.0130  227.2210 N.am   71  ASN71      -0.0877
     41  N         61.9860   36.7110  216.8940 N.3    75  CYS75      -0.1221
     42  CA        63.3810   36.3090  216.7500 C.3    75  CYS75       0.1808
     43  C         63.7320   35.2080  217.7460 C.2    75  CYS75       0.2601
     44  O         64.8980   34.8460  217.9060 O.2    75  CYS75      -0.2717
     45  CB        64.3080   37.5120  216.9370 C.3    75  CYS75       0.0970
     46  SG        64.1340   38.7890  215.6690 S.3    75  CYS75      -0.0800
     47  N         62.7090   34.6780  218.4090 N.am   76  SER76      -0.1952
     48  CA        62.8860   33.6580  219.4350 C.3    76  SER76       0.1924
     49  C         61.5440   33.0040  219.7340 C.2    76  SER76       0.2314
     50  O         60.5000   33.6470  219.6350 O.2    76  SER76      -0.2863
     51  CB        63.4480   34.2820  220.7130 C.3    76  SER76       0.2116
     52  OG        63.5400   33.3240  221.7520 O.3    76  SER76      -0.2180
     53  N         61.2630   34.0120  225.5470 N.3    79  SER79      -0.1202
     54  CA        62.1660   34.6510  226.4870 C.3    79  SER79       0.2020
     55  C         61.4610   34.4990  227.8250 C.2    79  SER79       0.2619
     56  O         60.2970   34.0950  227.8450 O.2    79  SER79      -0.2717
     57  CB        62.3870   36.1200  226.1340 C.3    79  SER79       0.2103
     58  OG        61.2030   36.7100  225.6310 O.3    79  SER79      -0.2182
     59  N         62.1690   34.7580  228.9240 N.am   80  ASP80      -0.1959
     60  CA        61.6290   34.5940  230.2810 C.3    80  ASP80       0.1840
     61  C         61.5510   33.1130  230.6450 C.2    80  ASP80       0.2622
     62  O         60.5770   32.4330  230.3230 O.2    80  ASP80      -0.2715
     63  CB        60.2610   35.2780  230.4420 C.3    80  ASP80       0.1450
     64  CG        59.7140   35.1920  231.8580 C.2    80  ASP80       0.3671
     65  OD1       60.4290   34.7140  232.7640 O.co2  80  ASP80      -0.2456
     66  OD2       58.5490   35.5990  232.0590 O.co2  80  ASP80      -0.2456
     67  N         62.5930   32.6230  231.3100 N.am   81  ASP81      -0.1957
     68  CA        62.6800   31.2180  231.7010 C.3    81  ASP81       0.1840
     69  C         61.6710   30.8090  232.7730 C.2    81  ASP81       0.2621
     70  O         61.2260   29.6600  232.8040 O.2    81  ASP81      -0.2715
     71  CB        64.0980   30.8800  232.1700 C.3    81  ASP81       0.1450
     72  CG        65.1010   30.8770  231.0360 C.2    81  ASP81       0.3671
     73  OD1       64.6670   30.8990  229.8660 O.co2  81  ASP81      -0.2456
     74  OD2       66.3190   30.8540  231.3120 O.co2  81  ASP81      -0.2456
     75  N         61.3190   31.7410  233.6530 N.am   82  GLN82      -0.1977
     76  CA        60.4700   31.4170  234.7960 C.3    82  GLN82       0.1601
     77  C         59.0490   31.0100  234.4200 C.2    82  GLN82       0.2287
     78  O         58.4370   30.1870  235.1020 O.2    82  GLN82      -0.2864
     79  CB        60.4420   32.5670  235.8060 C.3    82  GLN82       0.0394
     80  CG        61.4970   32.4270  236.8890 C.3    82  GLN82       0.0908
     81  CD        61.7160   30.9770  237.2920 C.2    82  GLN82       0.2608
     82  OE1       62.7650   30.3960  237.0100 O.2    82  GLN82      -0.2717
     83  NE2       60.7240   30.3850  237.9490 N.am   82  GLN82      -0.0878
     84  N         66.9380   29.6100  222.5830 N.3   162  ARG162     -0.1245
     85  CA        65.5350   29.6440  222.9780 C.3   162  ARG162      0.1563
     86  C         64.6190   29.5680  221.7600 C.2   162  ARG162      0.2260
     87  O         63.5960   30.2480  221.6880 O.2   162  ARG162     -0.2867
     88  CB        65.2490   30.8710  223.8410 C.3   162  ARG162      0.0307
     89  CG        66.2290   30.9950  224.9910 C.3   162  ARG162      0.0489
     90  CD        66.4120   32.4290  225.4490 C.3   162  ARG162      0.2205
     91  NE        67.3240   32.5040  226.5860 N.pl3 162  ARG162     -0.0865
     92  CZ        67.0120   32.1350  227.8240 C.cat 162  ARG162      0.5346
     93  NH1       65.8000   31.6710  228.0960 N.pl3 162  ARG162      0.1354
     94  NH2       67.9120   32.2340  228.7930 N.pl3 162  ARG162      0.1354
@<TRIPOS>BOND
     1    14    13    1
     2    14    15    2
     3    13    12    1
     4    13    16    1
     5    46    17    1
     6    46    45    1
     7    42    41    1
     8    42    45    1
     9    42    43    1
    10    16    17    1
    11    18    19    1
    12    43    44    2
    13    43    47   am
    14     1     2    1
    15    47    48    1
    16    19    20    1
    17    19    22    1
    18     4     3    2
    19     3     2    1
    20    29    28    2
    21     2     5    1
    22    20    21    2
    23    48    49    1
    24    48    51    1
    25    28    27    1
    26    50    49    2
    27    22    23    1
    28    26    27    1
    29    27    30    1
    30     5     6    1
    31    51    52    1
    32     6     7    1
    33    23    24    2
    34    23    25   am
    35    87    86    2
    36    86    85    1
    37    30    31    1
    38    30    32    1
    39     7     8    1
    40    84    85    1
    41     8     9    2
    42    10     9    1
    43    85    88    1
    44     9    11    1
    45    35    36    2
    46    35    34    1
    47    88    89    1
    48    33    34    1
    49    34    37    1
    50    89    90    1
    51    90    91    1
    52    53    54    1
    53    58    57    1
    54    37    38    1
    55    57    54    1
    56    54    55    1
    57    91    92    2
    58    38    39    2
    59    38    40   am
    60    92    93    1
    61    92    94    1
    62    55    56    2
    63    55    59   am
    64    59    60    1
    65    73    72   ar
    66    60    63    1
    67    60    61    1
    68    62    61    2
    69    63    64    1
    70    61    67   am
    71    72    74   ar
    72    72    71    1
    73    67    68    1
    74    68    71    1
    75    68    69    1
    76    64    66   ar
    77    64    65   ar
    78    69    70    2
    79    69    75   am
    80    75    76    1
    81    77    76    1
    82    77    78    2
    83    76    79    1
    84    79    80    1
    85    80    81    1
    86    82    81    2
    87    81    83   am
