@<TRIPOS>MOLECULE
tmp/4kqbA02.pdb
 190 179 0 0 0
SMALL
GASTEIGER

@<TRIPOS>ATOM
      1  N         48.9050   10.5450  217.3810 N.3   102  MET102     -0.1230
      2  CA        49.2890   11.7800  216.7090 C.3   102  MET102      0.1702
      3  C         49.4850   11.5780  215.2100 C.2   102  MET102      0.2592
      4  O         50.1150   10.6140  214.7740 O.2   102  MET102     -0.2718
      5  CB        50.5540   12.3700  217.3400 C.3   102  MET102      0.0401
      6  CG        51.0900   13.5970  216.6200 C.3   102  MET102      0.0596
      7  SD        52.2090   14.5790  217.6350 S.3   102  MET102     -0.1393
      8  CE        52.8810   15.6980  216.4080 C.3   102  MET102      0.0692
      9  N         48.9290   12.5030  214.4350 N.am  103  ASP103     -0.1960
     10  CA        49.0500   12.5190  212.9830 C.3   103  ASP103      0.1843
     11  C         50.1910   13.4340  212.5570 C.2   103  ASP103      0.2662
     12  O         50.1450   14.6390  212.8050 O.2   103  ASP103     -0.2711
     13  CB        47.7490   13.0200  212.3570 C.3   103  ASP103      0.1450
     14  CG        46.5610   12.1380  212.6910 C.2   103  ASP103      0.3671
     15  OD1       46.2650   11.2100  211.9070 O.co2 103  ASP103     -0.2456
     16  OD2       45.9250   12.3740  213.7400 O.co2 103  ASP103     -0.2456
     17  N         51.2220   12.8730  211.9340 N.am  104  GLY104     -0.1716
     18  CA        52.3660   13.6720  211.5380 C.2   104  GLY104      0.1480
     19  C         53.5990   12.8940  211.1230 C.2   104  GLY104      0.2821
     20  O         53.6890   12.4370  209.9850 O.2   104  GLY104     -0.2669
     21  N         54.5490   12.7480  212.0400 N.am  105  GLY105     -0.1905
     22  CA        55.7900   12.0470  211.7610 C.3   105  GLY105      0.2017
     23  C         55.6530   10.5630  211.4860 C.2   105  GLY105      0.2640
     24  O         54.6300   10.1010  210.9800 O.2   105  GLY105     -0.2714
     25  N         56.6850    9.8010  211.8340 N.am  106  THR106     -0.1936
     26  CA        56.7040    8.3850  211.4970 C.3   106  THR106      0.2028
     27  C         56.8410    7.4800  212.7170 C.2   106  THR106      0.2642
     28  O         56.3880    6.3390  212.6910 O.2   106  THR106     -0.2714
     29  CB        57.8410    8.0630  210.5050 C.3   106  THR106      0.1808
     30  OG1       59.0780    8.5800  211.0090 O.3   106  THR106     -0.2208
     31  CG2       57.5550    8.6850  209.1460 C.3   106  THR106      0.0379
     32  N         57.4190    7.9900  213.7990 N.am  107  GLN107     -0.1976
     33  CA        57.6100    7.1590  214.9830 C.3   107  GLN107      0.1601
     34  C         56.4940    7.3780  216.0010 C.2   107  GLN107      0.2287
     35  O         55.7930    8.3890  215.9510 O.2   107  GLN107     -0.2864
     36  CB        58.9950    7.3770  215.6050 C.3   107  GLN107      0.0394
     37  CG        60.1330    6.7850  214.7800 C.3   107  GLN107      0.0908
     38  CD        61.4980    6.9880  215.4080 C.2   107  GLN107      0.2608
     39  OE1       61.7510    6.5470  216.5300 O.2   107  GLN107     -0.2717
     40  NE2       62.3940    7.6380  214.6770 N.am  107  GLN107     -0.0878
     41  N         54.0420    8.3930  218.6600 N.3   109  LYS109     -0.1245
     42  CA        53.8190    9.5750  219.4830 C.3   109  LYS109      0.1561
     43  C         52.3370    9.9060  219.6240 C.2   109  LYS109      0.2260
     44  O         51.5570    9.7240  218.6900 O.2   109  LYS109     -0.2867
     45  CB        54.6090   10.7690  218.9440 C.3   109  LYS109      0.0271
     46  CG        54.3000   11.1070  217.5070 C.3   109  LYS109      0.0035
     47  CD        55.1740   12.2370  217.0080 C.3   109  LYS109      0.0206
     48  CE        54.8600   12.5240  215.5600 C.3   109  LYS109      0.1093
     49  NZ        55.2740   11.3480  214.7490 N.3   109  LYS109     -0.1314
     50  N         52.6120   17.1510  222.9490 N.3   121  VAL121     -0.1245
     51  CA        53.0910   15.9960  222.1920 C.3   121  VAL121      0.1561
     52  C         53.8280   15.0200  223.1050 C.2   121  VAL121      0.2260
     53  O         54.7600   15.3990  223.8120 O.2   121  VAL121     -0.2867
     54  CB        54.0230   16.4210  221.0400 C.3   121  VAL121      0.0252
     55  CG1       54.6310   15.2020  220.3640 C.3   121  VAL121      0.0019
     56  CG2       53.2630   17.2680  220.0350 C.3   121  VAL121      0.0019
     57  N         56.0830   11.5410  223.5610 N.3   123  LYS123     -0.1245
     58  CA        56.9350   10.5030  222.9860 C.3   123  LYS123      0.1561
     59  C         57.3860    9.5370  224.0770 C.2   123  LYS123      0.2260
     60  O         58.0600    9.9380  225.0250 O.2   123  LYS123     -0.2867
     61  CB        58.1460   11.1090  222.2740 C.3   123  LYS123      0.0271
     62  CG        57.8120   11.8130  220.9670 C.3   123  LYS123      0.0035
     63  CD        59.0370   12.4820  220.3650 C.3   123  LYS123      0.0206
     64  CE        58.7380   13.0390  218.9800 C.3   123  LYS123      0.1093
     65  NZ        59.9700   13.5230  218.2970 N.3   123  LYS123     -0.1314
     66  N         63.7520    6.7910  218.1480 N.3   144  GLU144     -0.1245
     67  CA        63.8710    8.0600  218.8600 C.3   144  GLU144      0.1567
     68  C         64.0070    7.8990  220.3670 C.2   144  GLU144      0.2260
     69  O         63.4840    6.9560  220.9600 O.2   144  GLU144     -0.2867
     70  CB        62.6840    8.9770  218.5490 C.3   144  GLU144      0.0388
     71  CG        62.7750    9.6710  217.2050 C.3   144  GLU144      0.1160
     72  CD        61.7590   10.7840  217.0450 C.2   144  GLU144      0.3649
     73  OE1       62.1190   11.8120  216.4390 O.co2 144  GLU144     -0.2457
     74  OE2       60.6210   10.6510  217.5460 O.co2 144  GLU144     -0.2457
     75  N         64.9270   14.6900  223.4190 N.3   149  GLU149     -0.1245
     76  CA        64.0340   15.8310  223.2430 C.3   149  GLU149      0.1567
     77  C         64.1230   16.7900  224.4260 C.2   149  GLU149      0.2260
     78  O         64.2120   18.0050  224.2480 O.2   149  GLU149     -0.2867
     79  CB        62.5890   15.3560  223.0630 C.3   149  GLU149      0.0388
     80  CG        62.2990   14.6830  221.7260 C.3   149  GLU149      0.1160
     81  CD        62.1060   15.6660  220.5830 C.2   149  GLU149      0.3649
     82  OE1       62.6610   16.7840  220.6390 O.co2 149  GLU149     -0.2457
     83  OE2       61.3940   15.3150  219.6190 O.co2 149  GLU149     -0.2457
     84  N         61.2950   23.9890  221.5520 N.3   165  ILE165     -0.1245
     85  CA        59.9680   23.9730  222.1490 C.3   165  ILE165      0.1561
     86  C         59.9960   23.3170  223.5260 C.2   165  ILE165      0.2260
     87  O         60.5610   22.2340  223.6840 O.2   165  ILE165     -0.2867
     88  CB        58.9750   23.2360  221.2350 C.3   165  ILE165      0.0252
     89  CG1       59.0520   23.8070  219.8180 C.3   165  ILE165      0.0019
     90  CG2       57.5600   23.3280  221.7820 C.3   165  ILE165      0.0019
     91  CD1       58.0700   23.1900  218.8570 C.3   165  ILE165      0.0001
     92  N         55.7990   17.7350  225.3610 N.3   226  GLN226     -0.1231
     93  CA        56.1800   18.9700  224.6970 C.3   226  GLN226      0.1698
     94  C         54.9390   19.7670  224.3440 C.2   226  GLN226      0.2592
     95  O         54.0270   19.2470  223.7030 O.2   226  GLN226     -0.2718
     96  CB        56.9760   18.6570  223.4290 C.3   226  GLN226      0.0381
     97  CG        57.3420   19.8790  222.6070 C.3   226  GLN226      0.0905
     98  CD        58.2530   19.5550  221.4390 C.2   226  GLN226      0.2608
     99  OE1       57.8010   19.4310  220.3000 O.2   226  GLN226     -0.2717
    100  NE2       59.5450   19.4240  221.7150 N.am  226  GLN226     -0.0878
    101  N         54.9090   21.0270  224.7690 N.am  227  VAL227     -0.1966
    102  CA        53.7600   21.8920  224.5310 C.3   227  VAL227      0.1727
    103  C         53.4350   21.9780  223.0430 C.2   227  VAL227      0.2616
    104  O         54.3230   22.1400  222.2040 O.2   227  VAL227     -0.2715
    105  CB        53.9830   23.3070  225.1270 C.3   227  VAL227      0.0290
    106  CG1       55.2200   23.9680  224.5310 C.3   227  VAL227      0.0023
    107  CG2       52.7410   24.1750  224.9480 C.3   227  VAL227      0.0023
    108  N         52.1540   21.8340  222.7230 N.am  228  PHE228     -0.1960
    109  CA        51.7020   21.9030  221.3420 C.3   228  PHE228      0.1771
    110  C         51.9660   23.2840  220.7640 C.2   228  PHE228      0.2619
    111  O         51.8790   24.2880  221.4680 O.2   228  PHE228     -0.2715
    112  CB        50.2120   21.5680  221.2500 C.3   228  PHE228      0.0574
    113  CG        49.8770   20.5800  220.1690 C.ar  228  PHE228     -0.0200
    114  CD1       50.0700   19.2240  220.3710 C.ar  228  PHE228     -0.0042
    115  CD2       49.3610   21.0060  218.9560 C.ar  228  PHE228     -0.0042
    116  CE1       49.7620   18.3110  219.3810 C.ar  228  PHE228     -0.0003
    117  CE2       49.0490   20.0970  217.9630 C.ar  228  PHE228     -0.0003
    118  CZ        49.2490   18.7480  218.1760 C.ar  228  PHE228     -0.0000
    119  N         52.2910   23.3290  219.4780 N.am  229  LEU229     -0.1977
    120  CA        52.4510   24.5940  218.7800 C.3   229  LEU229      0.1596
    121  C         51.0820   25.2410  218.6320 C.2   229  LEU229      0.2287
    122  O         50.0710   24.5400  218.5720 O.2   229  LEU229     -0.2864
    123  CB        53.0920   24.3580  217.4120 C.3   229  LEU229      0.0297
    124  CG        54.5960   24.0810  217.4410 C.3   229  LEU229      0.0022
    125  CD1       55.0980   23.6490  216.0740 C.3   229  LEU229      0.0001
    126  CD2       55.3400   25.3170  217.9190 C.3   229  LEU229      0.0001
    127  N         52.6570   27.9130  209.4920 N.3   237  ARG237     -0.1245
    128  CA        54.0710   27.5620  209.4880 C.3   237  ARG237      0.1563
    129  C         54.5880   27.1730  208.1060 C.2   237  ARG237      0.2260
    130  O         53.8200   26.7530  207.2410 O.2   237  ARG237     -0.2867
    131  CB        54.3450   26.4450  210.4980 C.3   237  ARG237      0.0307
    132  CG        54.5000   26.9350  211.9280 C.3   237  ARG237      0.0489
    133  CD        54.9210   25.8090  212.8540 C.3   237  ARG237      0.2205
    134  NE        53.7660   25.1400  213.4440 N.pl3 237  ARG237     -0.0865
    135  CZ        53.3300   23.9390  213.0780 C.cat 237  ARG237      0.5346
    136  NH1       53.9520   23.2690  212.1190 N.pl3 237  ARG237      0.1354
    137  NH2       52.2700   23.4080  213.6740 N.pl3 237  ARG237      0.1354
    138  N         57.3750   24.7910  205.8920 N.3   239  HIS239     -0.1241
    139  CA        58.1480   23.5630  205.9660 C.3   239  HIS239      0.1621
    140  C         59.1820   23.6010  204.8510 C.2   239  HIS239      0.2264
    141  O         58.8370   23.4780  203.6770 O.2   239  HIS239     -0.2867
    142  CB        57.2300   22.3560  205.7740 C.3   239  HIS239      0.0745
    143  CG        56.1810   22.2120  206.8340 C.ar  239  HIS239      0.0817
    144  ND1       55.2820   23.2130  207.1340 N.ar  239  HIS239     -0.2268
    145  CD2       55.8820   21.1800  207.6580 C.ar  239  HIS239      0.1154
    146  CE1       54.4770   22.8060  208.0990 C.ar  239  HIS239      0.1986
    147  NE2       54.8200   21.5760  208.4350 N.ar  239  HIS239     -0.2212
    148  N         69.5950   13.8550  211.8540 N.3   297  ASP297     -0.1239
    149  CA        68.2900   13.7450  211.1980 C.3   297  ASP297      0.1674
    150  C         67.6630   15.0920  210.8270 C.2   297  ASP297      0.2266
    151  O         66.4400   15.2330  210.8170 O.2   297  ASP297     -0.2867
    152  CB        67.3250   12.9460  212.0820 C.3   297  ASP297      0.1410
    153  CG        66.1720   12.3440  211.2980 C.2   297  ASP297      0.3668
    154  OD1       66.3250   12.1320  210.0770 O.co2 297  ASP297     -0.2456
    155  OD2       65.1130   12.0810  211.9050 O.co2 297  ASP297     -0.2456
    156  N         66.6180   17.0050  208.2410 N.3   299  HIS299     -0.1241
    157  CA        66.2780   17.0220  206.8220 C.3   299  HIS299      0.1621
    158  C         65.4330   18.2330  206.4320 C.2   299  HIS299      0.2264
    159  O         65.5010   18.7070  205.2990 O.2   299  HIS299     -0.2867
    160  CB        65.5460   15.7340  206.4380 C.3   299  HIS299      0.0745
    161  CG        64.4050   15.3930  207.3470 C.ar  299  HIS299      0.0817
    162  ND1       63.1730   16.0040  207.2600 N.ar  299  HIS299     -0.2268
    163  CD2       64.3130   14.5050  208.3650 C.ar  299  HIS299      0.1154
    164  CE1       62.3700   15.5050  208.1830 C.ar  299  HIS299      0.1986
    165  NE2       63.0370   14.5940  208.8670 N.ar  299  HIS299     -0.2212
    166  N         61.4390   23.9050  210.2880 N.3   302  GLU302     -0.1245
    167  CA        60.0720   24.3230  210.5400 C.3   302  GLU302      0.1567
    168  C         60.1340   25.7420  211.0780 C.2   302  GLU302      0.2260
    169  O         60.9460   26.0460  211.9490 O.2   302  GLU302     -0.2867
    170  CB        59.4220   23.3950  211.5680 C.3   302  GLU302      0.0388
    171  CG        57.9040   23.4940  211.6540 C.3   302  GLU302      0.1160
    172  CD        57.2030   22.4520  210.8040 C.2   302  GLU302      0.3649
    173  OE1       57.8850   21.7900  209.9950 O.co2 302  GLU302     -0.2457
    174  OE2       55.9730   22.2890  210.9520 O.co2 302  GLU302     -0.2457
    175  N         63.3550   21.8490  216.3640 N.3   317  LEU317     -0.1231
    176  CA        62.3880   20.7920  216.6140 C.3   317  LEU317      0.1693
    177  C         63.0120   19.4210  216.3550 C.2   317  LEU317      0.2592
    178  O         64.1320   19.3290  215.8510 O.2   317  LEU317     -0.2718
    179  CB        61.1890   21.0020  215.6850 C.3   317  LEU317      0.0284
    180  CG        59.8640   20.2810  215.9390 C.3   317  LEU317      0.0019
    181  CD1       59.5260   20.2580  217.4200 C.3   317  LEU317      0.0001
    182  CD2       58.7470   20.9360  215.1370 C.3   317  LEU317      0.0001
    183  N         62.2750   18.3650  216.6980 N.am  318  ASP318     -0.1974
    184  CA        62.6390   16.9880  216.3580 C.3   318  ASP318      0.1709
    185  C         64.0520   16.5910  216.7750 C.2   318  ASP318      0.2293
    186  O         64.9420   16.4680  215.9350 O.2   318  ASP318     -0.2864
    187  CB        62.4640   16.7330  214.8590 C.3   318  ASP318      0.1436
    188  CG        62.2490   15.2660  214.5450 C.2   318  ASP318      0.3671
    189  OD1       62.4990   14.4250  215.4340 O.co2 318  ASP318     -0.2456
    190  OD2       61.8540   14.9500  213.4040 O.co2 318  ASP318     -0.2456
@<TRIPOS>BOND
     1   141   140    2
     2   140   139    1
     3   159   158    2
     4   142   139    1
     5   142   143    1
     6   138   139    1
     7   158   157    1
     8   160   157    1
     9   160   161    1
    10   157   156    1
    11   143   144   ar
    12   143   145   ar
    13   144   146   ar
    14   130   129    2
    15   162   161   ar
    16   162   164   ar
    17   161   163   ar
    18   145   147   ar
    19   146   147   ar
    20   129   128    1
    21   164   165   ar
    22   163   165   ar
    23    31    29    1
    24   128   127    1
    25   128   131    1
    26    20    19    2
    27   173   172   ar
    28   154   153   ar
    29   166   167    1
    30   131   132    1
    31    29    30    1
    32    29    26    1
    33   167   168    1
    34   167   170    1
    35   172   174   ar
    36   172   171    1
    37   151   150    2
    38   150   149    1
    39    24    23    2
    40   168   169    2
    41    19    18    1
    42    19    21   am
    43   149   148    1
    44   149   152    1
    45   153   155   ar
    46   153   152    1
    47    23    22    1
    48    23    25   am
    49    26    25    1
    50    26    27    1
    51    18    17    2
    52   170   171    1
    53    22    21    1
    54    15    14   ar
    55   132   133    1
    56    17    11    1
    57   136   135    1
    58    13    14    1
    59    13    10    1
    60    11    12    2
    61    11    10    1
    62    14    16   ar
    63    28    27    2
    64    27    32   am
    65   133   134    1
    66    10     9    1
    67   135   134    2
    68   135   137    1
    69   190   188   ar
    70    32    33    1
    71     9     3   am
    72   188   187    1
    73   188   189   ar
    74    40    38   am
    75    49    48    1
    76     4     3    2
    77    37    38    1
    78    37    36    1
    79   187   184    1
    80    33    36    1
    81    33    34    1
    82   182   180    1
    83     3     2    1
    84    38    39    2
    85    48    47    1
    86   179   180    1
    87   179   176    1
    88   178   177    2
    89   186   185    2
    90   180   181    1
    91    35    34    2
    92   125   124    1
    93   177   176    1
    94   177   183   am
    95   184   183    1
    96   184   185    1
    97   175   176    1
    98     8     7    1
    99    73    72   ar
   100     6     5    1
   101     6     7    1
   102     2     5    1
   103     2     1    1
   104    47    46    1
   105    72    71    1
   106    72    74   ar
   107    71    70    1
   108   123   124    1
   109   123   120    1
   110   124   126    1
   111    46    45    1
   112   117   118   ar
   113   117   115   ar
   114    66    67    1
   115   118   116   ar
   116    65    64    1
   117    70    67    1
   118   122   121    2
   119   121   120    1
   120    41    42    1
   121    44    43    2
   122   120   119    1
   123    91    89    1
   124    67    68    1
   125    45    42    1
   126   115   113   ar
   127    64    63    1
   128   116   114   ar
   129   119   110   am
   130    42    43    1
   131    83    81   ar
   132    89    88    1
   133    56    54    1
   134   113   114   ar
   135   113   112    1
   136    99    98    2
   137    55    54    1
   138    63    62    1
   139    68    69    2
   140    81    82   ar
   141    81    80    1
   142   110   109    1
   143   110   111    2
   144    62    61    1
   145    54    51    1
   146    88    90    1
   147    88    85    1
   148   112   109    1
   149   109   108    1
   150    98   100   am
   151    98    97    1
   152    84    85    1
   153    80    79    1
   154    85    86    1
   155    51    50    1
   156    51    52    1
   157   104   103    2
   158    61    58    1
   159    97    96    1
   160   108   103   am
   161    58    57    1
   162    58    59    1
   163   103   102    1
   164    79    76    1
   165    52    53    2
   166    76    75    1
   167    76    77    1
   168    96    93    1
   169    86    87    2
   170    95    94    2
   171    59    60    2
   172    78    77    2
   173    94    93    1
   174    94   101   am
   175   102   101    1
   176   102   105    1
   177   106   105    1
   178    93    92    1
   179   107   105    1
