@<TRIPOS>MOLECULE
tmp/4kqlA02.pdb
 202 187 0 0 0
SMALL
GASTEIGER

@<TRIPOS>ATOM
      1  N         46.1890   62.8370   21.7460 N.3     8  LEU8       -0.1231
      2  CA        44.7360   62.6680   21.6940 C.3     8  LEU8        0.1693
      3  C         44.3610   61.6320   22.7010 C.2     8  LEU8        0.2592
      4  O         44.9170   60.5210   22.6740 O.2     8  LEU8       -0.2718
      5  CB        44.2650   62.3080   20.2580 C.3     8  LEU8        0.0284
      6  CG        44.0440   63.5250   19.3250 C.3     8  LEU8        0.0019
      7  CD1       45.3690   64.2250   18.9710 C.3     8  LEU8        0.0001
      8  CD2       43.3250   63.1220   18.0460 C.3     8  LEU8        0.0001
      9  N         43.4830   62.0060   23.6550 N.am    9  ALA9       -0.1966
     10  CA        43.1380   61.1150   24.7710 C.3     9  ALA9        0.1728
     11  C         41.7170   61.3020   25.2540 C.2     9  ALA9        0.2616
     12  O         41.4160   60.9450   26.4020 O.2     9  ALA9       -0.2715
     13  CB        44.0930   61.3740   25.9250 C.3     9  ALA9        0.0334
     14  N         40.8400   61.8480   24.3920 N.am   10  ALA10      -0.1963
     15  CA        39.4420   62.1320   24.7230 C.3    10  ALA10       0.1728
     16  C         38.4780   60.9290   24.6120 C.2    10  ALA10       0.2616
     17  O         37.3140   61.0590   24.9980 O.2    10  ALA10      -0.2715
     18  CB        38.9340   63.2960   23.8740 C.3    10  ALA10       0.0334
     19  N         38.9610   59.7860   24.1230 N.am   11  GLY11      -0.1955
     20  CA        38.1570   58.5810   23.9080 C.3    11  GLY11       0.1869
     21  C         37.5050   57.9640   25.1360 C.2    11  GLY11       0.2309
     22  O         38.1060   57.9030   26.2120 O.2    11  GLY11      -0.2863
     23  N         39.5040   55.3420   28.4830 N.3    22  LYS22      -0.1231
     24  CA        40.3800   54.5040   27.6670 C.3    22  LYS22       0.1693
     25  C         41.8980   54.5630   27.9730 C.2    22  LYS22       0.2591
     26  O         42.5230   53.5200   28.0710 O.2    22  LYS22      -0.2718
     27  CB        40.1490   54.8380   26.1880 C.3    22  LYS22       0.0285
     28  CG        40.5020   53.7110   25.2260 C.3    22  LYS22       0.0035
     29  CD        40.2670   54.1810   23.8130 C.3    22  LYS22       0.0206
     30  CE        40.2910   53.0560   22.8270 C.3    22  LYS22       0.1093
     31  NZ        40.0100   53.5420   21.4720 N.3    22  LYS22      -0.1314
     32  N         42.4790   55.7550   28.0800 N.am   23  VAL23      -0.1980
     33  CA        43.9280   55.9400   28.1680 C.3    23  VAL23       0.1595
     34  C         44.5490   55.6860   29.5530 C.2    23  VAL23       0.2287
     35  O         45.7800   55.5910   29.6470 O.2    23  VAL23      -0.2864
     36  CB        44.3550   57.3230   27.6170 C.3    23  VAL23       0.0276
     37  CG1       43.8500   57.5180   26.1900 C.3    23  VAL23       0.0022
     38  CG2       43.8770   58.4540   28.5150 C.3    23  VAL23       0.0022
     39  N         44.8090   66.4480   24.8220 N.3    51  ILE51      -0.1245
     40  CA        43.4050   66.6110   24.4300 C.3    51  ILE51       0.1561
     41  C         42.6010   65.5960   25.2200 C.2    51  ILE51       0.2260
     42  O         42.7860   64.3980   25.0510 O.2    51  ILE51      -0.2867
     43  CB        43.1220   66.5030   22.8990 C.3    51  ILE51       0.0252
     44  CG1       44.1730   67.2660   22.0250 C.3    51  ILE51       0.0019
     45  CG2       41.6820   66.9160   22.5860 C.3    51  ILE51       0.0019
     46  CD1       44.4500   68.7630   22.2970 C.3    51  ILE51       0.0001
     47  N         38.1280   69.0120   24.9490 N.3    73  GLN73      -0.1245
     48  CA        37.3780   68.9550   23.6960 C.3    73  GLN73       0.1566
     49  C         36.0000   68.4660   24.1380 C.2    73  GLN73       0.2260
     50  O         35.8770   67.3000   24.5220 O.2    73  GLN73      -0.2867
     51  CB        38.0460   67.9670   22.7230 C.3    73  GLN73       0.0367
     52  CG        37.4080   67.8930   21.3380 C.3    73  GLN73       0.0905
     53  CD        37.7750   66.6280   20.5950 C.2    73  GLN73       0.2608
     54  OE1       38.1500   65.6090   21.1880 O.2    73  GLN73      -0.2717
     55  NE2       37.6590   66.6490   19.2700 N.am   73  GLN73      -0.0878
     56  N         33.4540   65.1860   20.3150 N.3    76  GLN76      -0.1245
     57  CA        34.3710   64.4800   19.4310 C.3    76  GLN76       0.1566
     58  C         33.9510   64.6580   17.9690 C.2    76  GLN76       0.2260
     59  O         33.2920   63.7970   17.3710 O.2    76  GLN76      -0.2867
     60  CB        34.5900   63.0020   19.8440 C.3    76  GLN76       0.0367
     61  CG        35.3260   62.8500   21.1910 C.3    76  GLN76       0.0905
     62  CD        35.9280   61.4750   21.4020 C.2    76  GLN76       0.2608
     63  OE1       37.1380   61.2720   21.2420 O.2    76  GLN76      -0.2717
     64  NE2       35.1040   60.4960   21.7770 N.am   76  GLN76      -0.0878
     65  N         36.0810   64.9370   15.4860 N.3    78  GLY78      -0.1210
     66  CA        37.1240   64.3410   14.6650 C.3    78  GLY78       0.1956
     67  C         38.5120   64.7070   15.1460 C.2    78  GLY78       0.2612
     68  O         38.6890   65.7210   15.8240 O.2    78  GLY78      -0.2717
     69  N         39.5050   63.9010   14.7520 N.am   79  THR79      -0.1952
     70  CA        40.9260   64.0590   15.0950 C.3    79  THR79       0.1897
     71  C         41.5140   65.4230   14.6880 C.2    79  THR79       0.2313
     72  O         42.3900   65.9160   15.3850 O.2    79  THR79      -0.2863
     73  CB        41.7310   62.9070   14.5240 C.3    79  THR79       0.1794
     74  OG1       41.4610   62.8340   13.1170 O.3    79  THR79      -0.2208
     75  CG2       41.4010   61.5570   15.1990 C.3    79  THR79       0.0378
     76  N         40.1780   67.9170   17.2490 N.3    82  ALA82      -0.1245
     77  CA        40.9200   67.6970   18.5050 C.3    82  ALA82       0.1562
     78  C         42.2680   68.4390   18.4780 C.2    82  ALA82       0.2260
     79  O         42.5320   69.2180   19.3940 O.2    82  ALA82      -0.2867
     80  CB        41.1180   66.2040   18.7750 C.3    82  ALA82       0.0290
     81  N         48.8190   59.5610   20.0160 N.3   100  TYR100     -0.1241
     82  CA        47.5400   59.0060   20.4930 C.3   100  TYR100      0.1605
     83  C         47.7300   58.3030   21.8290 C.2   100  TYR100      0.2264
     84  O         48.5930   57.4230   21.9540 O.2   100  TYR100     -0.2867
     85  CB        46.9600   58.0460   19.4190 C.3   100  TYR100      0.0534
     86  CG        46.7940   58.7550   18.0850 C.ar  100  TYR100     -0.0201
     87  CD1       45.6600   59.5240   17.8180 C.ar  100  TYR100     -0.0009
     88  CD2       47.8200   58.7650   17.1440 C.ar  100  TYR100     -0.0009
     89  CE1       45.5350   60.2430   16.6300 C.ar  100  TYR100      0.0417
     90  CE2       47.7180   59.5090   15.9690 C.ar  100  TYR100      0.0417
     91  CZ        46.5690   60.2360   15.7140 C.ar  100  TYR100      0.1957
     92  OH        46.4530   60.9530   14.5590 O.3   100  TYR100     -0.2866
     93  N         46.0800   56.1110   23.3030 N.3   102  ASP102     -0.1225
     94  CA        45.7370   54.6830   23.2690 C.3   102  ASP102      0.1805
     95  C         46.6330   53.8580   22.3320 C.2   102  ASP102      0.2597
     96  O         46.3190   52.6980   22.0560 O.2   102  ASP102     -0.2718
     97  CB        44.2490   54.4740   22.9460 C.3   102  ASP102      0.1424
     98  CG        43.8420   54.9370   21.5490 C.2   102  ASP102      0.3668
     99  OD1       44.5560   55.7820   20.9700 O.co2 102  ASP102     -0.2456
    100  OD2       42.7410   54.5670   21.1030 O.co2 102  ASP102     -0.2456
    101  N         47.7280   54.4610   21.8330 N.am  103  ALA103     -0.1979
    102  CA        48.7360   53.7800   21.0120 C.3   103  ALA103      0.1597
    103  C         49.9940   54.1110   21.8060 C.2   103  ALA103      0.2287
    104  O         50.6490   55.1010   21.5260 O.2   103  ALA103     -0.2864
    105  CB        48.7820   54.3730   19.6010 C.3   103  ALA103      0.0319
    106  N         53.4400   52.3020    8.1980 N.3   128  VAL128     -0.1245
    107  CA        53.7510   50.9420    8.6180 C.3   128  VAL128      0.1561
    108  C         53.2790   49.9420    7.5410 C.2   128  VAL128      0.2260
    109  O         52.2710   50.1940    6.8650 O.2   128  VAL128     -0.2867
    110  CB        53.1650   50.6490   10.0410 C.3   128  VAL128      0.0252
    111  CG1       51.6470   50.5170   10.0290 C.3   128  VAL128      0.0019
    112  CG2       53.8000   49.4230   10.6700 C.3   128  VAL128      0.0019
    113  N         51.6670   46.3120    6.6580 N.3   130  LEU130     -0.1245
    114  CA        50.8210   45.2610    7.2190 C.3   130  LEU130      0.1561
    115  C         50.7090   44.1170    6.2190 C.2   130  LEU130      0.2260
    116  O         50.6240   44.3670    5.0170 O.2   130  LEU130     -0.2867
    117  CB        49.4160   45.7880    7.5680 C.3   130  LEU130      0.0270
    118  CG        49.3010   46.8800    8.6590 C.3   130  LEU130      0.0019
    119  CD1       47.8750   47.3500    8.7910 C.3   130  LEU130      0.0001
    120  CD2       49.7850   46.3840   10.0130 C.3   130  LEU130      0.0001
    121  N         42.6380   49.8330    6.3000 N.3   136  TYR136     -0.1241
    122  CA        43.5310   50.9730    6.5330 C.3   136  TYR136      0.1605
    123  C         43.7950   51.8030    5.2850 C.2   136  TYR136      0.2264
    124  O         43.7160   51.2880    4.1710 O.2   136  TYR136     -0.2867
    125  CB        44.8640   50.5000    7.1290 C.3   136  TYR136      0.0534
    126  CG        44.7630   49.8740    8.5040 C.ar  136  TYR136     -0.0201
    127  CD1       44.4870   48.5150    8.6570 C.ar  136  TYR136     -0.0009
    128  CD2       45.0050   50.6230    9.6510 C.ar  136  TYR136     -0.0009
    129  CE1       44.4360   47.9240    9.9190 C.ar  136  TYR136      0.0417
    130  CE2       44.9330   50.0480   10.9190 C.ar  136  TYR136      0.0417
    131  CZ        44.6640   48.6950   11.0470 C.ar  136  TYR136      0.1957
    132  OH        44.6070   48.1290   12.2950 O.3   136  TYR136     -0.2866
    133  N         50.5950   51.5070    5.0910 N.3   165  VAL165     -0.1231
    134  CA        49.4030   52.2050    5.5510 C.3   165  VAL165      0.1692
    135  C         49.7220   53.3470    6.5010 C.2   165  VAL165      0.2592
    136  O         50.7830   53.3760    7.1280 O.2   165  VAL165     -0.2718
    137  CB        48.3220   51.2640    6.1420 C.3   165  VAL165      0.0266
    138  CG1       47.8810   50.2070    5.1350 C.3   165  VAL165      0.0020
    139  CG2       48.7800   50.6280    7.4510 C.3   165  VAL165      0.0020
    140  N         48.7510   54.2590    6.6310 N.am  166  ASN166     -0.1960
    141  CA        48.7670   55.4160    7.5090 C.3   166  ASN166      0.1819
    142  C         48.5490   54.9740    8.9740 C.2   166  ASN166      0.2622
    143  O         47.7050   54.1030    9.2410 O.2   166  ASN166     -0.2715
    144  CB        47.6470   56.3780    7.0500 C.3   166  ASN166      0.1195
    145  CG        47.3820   57.5460    7.9680 C.2   166  ASN166      0.2630
    146  OD1       48.2990   58.1590    8.5230 O.2   166  ASN166     -0.2716
    147  ND2       46.1130   57.8730    8.1440 N.am  166  ASN166     -0.0877
    148  N         49.3140   55.5860    9.9040 N.am  167  THR167     -0.1937
    149  CA        49.2500   55.3490   11.3690 C.3   167  THR167      0.2028
    150  C         48.5620   56.5120   12.1140 C.2   167  THR167      0.2642
    151  O         48.2070   56.3570   13.2830 O.2   167  THR167     -0.2714
    152  CB        50.6710   55.1700   11.9930 C.3   167  THR167      0.1808
    153  OG1       51.3820   56.4040   11.9260 O.3   167  THR167     -0.2208
    154  CG2       51.4750   54.0640   11.3440 C.3   167  THR167      0.0379
    155  N         48.4490   57.6700   11.4560 N.am  168  GLY168     -0.1954
    156  CA        47.8800   58.8750   12.0560 C.3   168  GLY168      0.1869
    157  C         48.9270   59.7770   12.6940 C.2   168  GLY168      0.2309
    158  O         48.6620   60.9550   12.9610 O.2   168  GLY168     -0.2863
    159  N         32.9590   63.7960   10.0770 N.3   192  GLU192     -0.1245
    160  CA        34.0440   64.1610   10.9810 C.3   192  GLU192      0.1567
    161  C         35.1610   64.9200   10.2910 C.2   192  GLU192      0.2260
    162  O         35.3830   64.7240    9.0940 O.2   192  GLU192     -0.2867
    163  CB        34.6190   62.8980   11.6210 C.3   192  GLU192      0.0388
    164  CG        33.7270   62.2850   12.6880 C.3   192  GLU192      0.1160
    165  CD        34.2620   60.9840   13.2510 C.2   192  GLU192      0.3649
    166  OE1       35.4530   60.6790   13.0190 O.co2 192  GLU192     -0.2457
    167  OE2       33.4880   60.2640   13.9180 O.co2 192  GLU192     -0.2457
    168  N         55.0980   47.0430   14.0030 N.3   217  VAL217     -0.1245
    169  CA        53.6490   47.3320   13.9010 C.3   217  VAL217      0.1561
    170  C         53.1040   47.6520   15.3040 C.2   217  VAL217      0.2260
    171  O         52.2680   48.5340   15.4660 O.2   217  VAL217     -0.2867
    172  CB        52.8960   46.1010   13.3080 C.3   217  VAL217      0.0252
    173  CG1       51.3780   46.3130   13.2960 C.3   217  VAL217      0.0019
    174  CG2       53.4090   45.7540   11.9120 C.3   217  VAL217      0.0019
    175  N         52.7320   51.2370   16.7640 N.3   220  VAL220     -0.1231
    176  CA        51.6520   52.1060   16.3300 C.3   220  VAL220      0.1692
    177  C         50.2850   51.4980   16.6400 C.2   220  VAL220      0.2592
    178  O         49.2570   52.1320   16.3750 O.2   220  VAL220     -0.2718
    179  CB        51.8100   52.5420   14.8410 C.3   220  VAL220      0.0266
    180  CG1       53.1440   53.2550   14.6240 C.3   220  VAL220      0.0020
    181  CG2       51.6600   51.3590   13.8770 C.3   220  VAL220      0.0020
    182  N         50.2760   50.2650   17.1990 N.am  221  GLU221     -0.1966
    183  CA        49.0330   49.5720   17.5450 C.3   221  GLU221      0.1733
    184  C         48.2800   50.2320   18.6980 C.2   221  GLU221      0.2616
    185  O         48.8650   50.5340   19.7390 O.2   221  GLU221     -0.2715
    186  CB        49.2930   48.0990   17.8820 C.3   221  GLU221      0.0429
    187  CG        49.3910   47.2180   16.6470 C.3   221  GLU221      0.1163
    188  CD        48.1270   46.9820   15.8400 C.2   221  GLU221      0.3649
    189  OE1       47.0120   47.2240   16.3550 O.co2 221  GLU221     -0.2457
    190  OE2       48.2580   46.5070   14.6910 O.co2 221  GLU221     -0.2457
    191  N         46.9860   50.4260   18.4950 N.am  222  GLY222     -0.1955
    192  CA        46.1000   50.9780   19.5070 C.3   222  GLY222      0.1869
    193  C         45.3940   49.8730   20.2620 C.2   222  GLY222      0.2309
    194  O         45.2660   48.7590   19.7550 O.2   222  GLY222     -0.2863
    195  N         41.7810   48.9280   21.8610 N.3   224  ASN224     -0.1240
    196  CA        40.3520   49.2660   21.9450 C.3   224  ASN224      0.1653
    197  C         39.6130   48.4370   22.9870 C.2   224  ASN224      0.2266
    198  O         38.4930   48.7860   23.3690 O.2   224  ASN224     -0.2867
    199  CB        39.6670   49.1210   20.5770 C.3   224  ASN224      0.1155
    200  CG        40.1670   50.1260   19.5780 C.2   224  ASN224      0.2627
    201  OD1       40.3270   51.3020   19.8850 O.2   224  ASN224     -0.2716
    202  ND2       40.4900   49.6750   18.3840 N.am  224  ASN224     -0.0877
@<TRIPOS>BOND
     1   124   123    2
     2   116   115    2
     3   133   134    1
     4   138   137    1
     5   123   122    1
     6   134   137    1
     7   134   135    1
     8   137   139    1
     9   115   114    1
    10   121   122    1
    11   135   140   am
    12   135   136    2
    13   122   125    1
    14   140   141    1
    15   113   114    1
    16   109   108    2
    17   144   141    1
    18   144   145    1
    19   125   126    1
    20   114   117    1
    21   141   142    1
    22   108   107    1
    23   117   118    1
    24   145   147   am
    25   145   146    2
    26   106   107    1
    27   126   127   ar
    28   126   128   ar
    29   107   110    1
    30   127   129   ar
    31   118   119    1
    32   118   120    1
    33   142   143    2
    34   142   148   am
    35   162   161    2
    36   128   130   ar
    37   148   149    1
    38   129   131   ar
    39   111   110    1
    40   110   112    1
    41   159   160    1
    42   161   160    1
    43   130   131   ar
    44   160   163    1
    45   131   132    1
    46   154   152    1
    47   149   152    1
    48   149   150    1
    49   155   156    1
    50   155   150   am
    51   163   164    1
    52   174   172    1
    53   153   152    1
    54   156   157    1
    55   150   151    2
    56   164   165    1
    57   157   158    2
    58   166   165   ar
    59    74    73    1
    60   165   167   ar
    61   173   172    1
    62   172   169    1
    63   181   179    1
    64   169   168    1
    65   169   170    1
    66    73    70    1
    67    73    75    1
    68    92    91    1
    69   180   179    1
    70    66    67    1
    71    66    65    1
    72    71    70    1
    73    71    72    2
    74   190   188   ar
    75    69    70    1
    76    69    67   am
    77   179   176    1
    78    67    68    2
    79   170   171    2
    80    91    90   ar
    81    91    89   ar
    82   188   189   ar
    83   188   187    1
    84    90    88   ar
    85   176   177    1
    86   176   175    1
    87   178   177    2
    88    89    87   ar
    89   177   182   am
    90   187   186    1
    91    88    86   ar
    92   182   183    1
    93    76    77    1
    94    59    58    2
    95   183   186    1
    96   183   184    1
    97    87    86   ar
    98    58    57    1
    99     8     6    1
   100    86    85    1
   101   202   200   am
   102    78    77    1
   103    78    79    2
   104   191   184   am
   105   191   192    1
   106    77    80    1
   107   184   185    2
   108     7     6    1
   109    55    53   am
   110     6     5    1
   111    85    82    1
   112    57    60    1
   113    57    56    1
   114   192   193    1
   115   200   201    2
   116   200   199    1
   117   105   102    1
   118   194   193    2
   119    60    61    1
   120    81    82    1
   121     5     2    1
   122    82    83    1
   123   199   196    1
   124    53    54    2
   125    53    52    1
   126    99    98   ar
   127   102   103    1
   128   102   101    1
   129   100    98   ar
   130    61    62    1
   131    63    62    2
   132    52    51    1
   133    62    64   am
   134    31    30    1
   135   104   103    2
   136    98    97    1
   137     2     1    1
   138     2     3    1
   139    83    84    2
   140   101    95   am
   141   195   196    1
   142   196   197    1
   143    44    46    1
   144    44    43    1
   145    96    95    2
   146    95    94    1
   147    45    43    1
   148     4     3    2
   149     3     9   am
   150    51    48    1
   151    30    29    1
   152    43    40    1
   153    97    94    1
   154   197   198    2
   155    94    93    1
   156     9    10    1
   157    48    49    1
   158    48    47    1
   159    29    28    1
   160    18    15    1
   161    20    19    1
   162    20    21    1
   163    19    16   am
   164    49    50    2
   165    14    15    1
   166    14    11   am
   167    40    39    1
   168    40    41    1
   169    16    15    1
   170    16    17    2
   171    10    11    1
   172    10    13    1
   173    42    41    2
   174    21    22    2
   175    28    27    1
   176    11    12    2
   177    27    24    1
   178    37    36    1
   179    36    33    1
   180    36    38    1
   181    24    25    1
   182    24    23    1
   183    25    26    2
   184    25    32   am
   185    32    33    1
   186    33    34    1
   187    34    35    2
