@<TRIPOS>MOLECULE
tmp/4kqmC01.pdb
 139 134 0 0 0
SMALL
GASTEIGER

@<TRIPOS>ATOM
      1  N         70.2810   41.5390   72.4480 N.3    21  GLY21      -0.1210
      2  CA        70.1420   42.9230   71.9810 C.3    21  GLY21       0.1956
      3  C         68.9090   43.1230   71.1100 C.2    21  GLY21       0.2612
      4  O         67.8690   42.4940   71.3220 O.2    21  GLY21      -0.2717
      5  N         69.0320   43.9930   70.1150 N.am   22  GLY22      -0.1942
      6  CA        67.9000   44.4140   69.2940 C.3    22  GLY22       0.2014
      7  C         67.3140   43.3890   68.3370 C.2    22  GLY22       0.2638
      8  O         66.1610   43.5420   67.9170 O.2    22  GLY22      -0.2714
      9  N         68.0900   42.3560   67.9810 N.am   23  ILE23      -0.1977
     10  CA        67.5900   41.2410   67.1490 C.3    23  ILE23       0.1596
     11  C         66.4200   40.5160   67.8260 C.2    23  ILE23       0.2287
     12  O         65.4870   40.0700   67.1540 O.2    23  ILE23      -0.2864
     13  CB        68.7050   40.2220   66.7750 C.3    23  ILE23       0.0276
     14  CG1       69.6930   40.8350   65.7710 C.3    23  ILE23       0.0022
     15  CG2       68.1130   38.9400   66.1940 C.3    23  ILE23       0.0022
     16  CD1       71.1460   40.5610   66.0920 C.3    23  ILE23       0.0001
     17  N         63.4330   42.7170   67.1780 N.3    26  VAL26      -0.1245
     18  CA        62.9850   42.5050   65.7950 C.3    26  VAL26       0.1561
     19  C         62.0180   41.3240   65.7120 C.2    26  VAL26       0.2260
     20  O         60.8580   41.4950   65.3460 O.2    26  VAL26      -0.2867
     21  CB        64.1470   42.2510   64.8130 C.3    26  VAL26       0.0252
     22  CG1       63.5990   41.9500   63.4290 C.3    26  VAL26       0.0019
     23  CG2       65.0760   43.4480   64.7240 C.3    26  VAL26       0.0019
     24  N         71.7190   36.8190   61.5000 N.3   168  GLN168     -0.1245
     25  CA        73.1030   36.8460   62.0480 C.3   168  GLN168      0.1566
     26  C         73.9640   35.6130   61.7400 C.2   168  GLN168      0.2260
     27  O         73.4490   34.4890   61.6120 O.2   168  GLN168     -0.2867
     28  CB        73.1360   37.1460   63.5480 C.3   168  GLN168      0.0367
     29  CG        72.9040   38.5990   63.8730 C.3   168  GLN168      0.0905
     30  CD        73.9510   39.5280   63.2670 C.2   168  GLN168      0.2608
     31  OE1       73.7400   40.1340   62.2070 O.2   168  GLN168     -0.2717
     32  NE2       75.0860   39.6460   63.9410 N.am  168  GLN168     -0.0878
     33  N         72.4510   41.8360   60.6490 N.3   192  HIS192     -0.1226
     34  CA        72.0470   42.9890   61.4350 C.3   192  HIS192      0.1752
     35  C         73.2400   43.8490   61.8170 C.2   192  HIS192      0.2595
     36  O         73.1150   44.7620   62.6330 O.2   192  HIS192     -0.2718
     37  CB        71.3170   42.5130   62.6940 C.3   192  HIS192      0.0759
     38  CG        69.9690   41.9270   62.4160 C.ar  192  HIS192      0.0818
     39  ND1       68.7980   42.6260   62.6210 N.ar  192  HIS192     -0.2268
     40  CD2       69.6040   40.7190   61.9160 C.ar  192  HIS192      0.1154
     41  CE1       67.7700   41.8740   62.2700 C.ar  192  HIS192      0.1986
     42  NE2       68.2300   40.7130   61.8380 N.ar  192  HIS192     -0.2212
     43  N         74.3950   43.5410   61.2350 N.am  193  ALA193     -0.1980
     44  CA        75.6610   44.2380   61.4770 C.3   193  ALA193      0.1597
     45  C         76.7080   43.5810   60.5860 C.2   193  ALA193      0.2287
     46  O         76.3680   42.8760   59.6330 O.2   193  ALA193     -0.2864
     47  CB        76.0750   44.1430   62.9360 C.3   193  ALA193      0.0319
     48  N         81.7130   46.4860   63.2950 N.3   198  ARG198     -0.1245
     49  CA        81.6790   46.7160   64.7410 C.3   198  ARG198      0.1563
     50  C         83.0840   46.8320   65.3770 C.2   198  ARG198      0.2260
     51  O         83.3010   47.6510   66.2750 O.2   198  ARG198     -0.2867
     52  CB        80.8430   45.6160   65.4070 C.3   198  ARG198      0.0307
     53  CG        80.6350   45.7430   66.9030 C.3   198  ARG198      0.0489
     54  CD        79.3850   44.9830   67.3240 C.3   198  ARG198      0.2205
     55  NE        78.3170   45.8860   67.7820 N.pl3 198  ARG198     -0.0865
     56  CZ        77.1300   46.0660   67.2010 C.cat 198  ARG198      0.5346
     57  NH1       76.7820   45.3950   66.1160 N.pl3 198  ARG198      0.1354
     58  NH2       76.2760   46.9240   67.7340 N.pl3 198  ARG198      0.1354
     59  N         69.6250   45.5640   57.5040 N.3   246  VAL246     -0.1245
     60  CA        68.5540   46.3420   58.1060 C.3   246  VAL246      0.1561
     61  C         68.5310   47.8230   57.7160 C.2   246  VAL246      0.2260
     62  O         67.5080   48.4730   57.8770 O.2   246  VAL246     -0.2867
     63  CB        68.6060   46.2330   59.6320 C.3   246  VAL246      0.0252
     64  CG1       68.0470   44.8840   60.0580 C.3   246  VAL246      0.0019
     65  CG2       70.0420   46.4260   60.1370 C.3   246  VAL246      0.0019
     66  N         63.7980   47.8740   60.3730 N.3   268  ASN268     -0.1240
     67  CA        63.1020   47.3870   61.5620 C.3   268  ASN268      0.1653
     68  C         61.8420   48.1930   61.8610 C.2   268  ASN268      0.2266
     69  O         61.8340   49.4340   61.7750 O.2   268  ASN268     -0.2867
     70  CB        64.0250   47.4430   62.7690 C.3   268  ASN268      0.1155
     71  CG        65.1540   46.4480   62.6840 C.2   268  ASN268      0.2627
     72  OD1       65.0180   45.3930   62.0590 O.2   268  ASN268     -0.2716
     73  ND2       66.2900   46.7780   63.3100 N.am  268  ASN268     -0.0877
     74  N         73.5690   48.0260   75.3980 N.3   319  ARG319     -0.1245
     75  CA        74.6060   47.0960   75.8740 C.3   319  ARG319      0.1563
     76  C         75.8950   47.8860   76.0310 C.2   319  ARG319      0.2260
     77  O         76.0550   48.9400   75.4110 O.2   319  ARG319     -0.2867
     78  CB        74.7910   45.9200   74.9050 C.3   319  ARG319      0.0307
     79  CG        73.4860   45.3120   74.4020 C.3   319  ARG319      0.0489
     80  CD        73.6580   44.5330   73.1020 C.3   319  ARG319      0.2205
     81  NE        75.0310   44.5780   72.6090 N.pl3 319  ARG319     -0.0865
     82  CZ        75.4550   45.2060   71.5190 C.cat 319  ARG319      0.5346
     83  NH1       74.6300   45.8750   70.7410 N.pl3 319  ARG319      0.1354
     84  NH2       76.7330   45.1480   71.2120 N.pl3 319  ARG319      0.1354
     85  N         78.4170   52.9550   71.1350 N.3   325  LYS325     -0.1245
     86  CA        77.1370   53.4960   71.5690 C.3   325  LYS325      0.1561
     87  C         77.1930   54.9180   72.1110 C.2   325  LYS325      0.2260
     88  O         76.2080   55.4260   72.6370 O.2   325  LYS325     -0.2867
     89  CB        76.4320   52.5320   72.5190 C.3   325  LYS325      0.0271
     90  CG        75.3510   51.7650   71.7770 C.3   325  LYS325      0.0035
     91  CD        75.1400   50.3670   72.3100 C.3   325  LYS325      0.0206
     92  CE        74.5680   49.4770   71.2130 C.3   325  LYS325      0.1093
     93  NZ        73.4640   50.1440   70.4570 N.3   325  LYS325     -0.1314
     94  N         75.8730   51.7900   64.6000 N.3   508  GLU508     -0.1231
     95  CA        74.4900   51.4230   64.8850 C.3   508  GLU508      0.1684
     96  C         73.7560   51.0600   63.5950 C.2   508  GLU508      0.2434
     97  O         73.1800   51.9290   62.9350 O.2   508  GLU508     -0.2733
     98  CB        73.7860   52.5710   65.6180 C.3   508  GLU508      0.0402
     99  CG        72.4820   52.1970   66.2950 C.3   508  GLU508      0.1161
    100  CD        72.6850   51.5350   67.6490 C.2   508  GLU508      0.3649
    101  OE1       72.8740   50.2960   67.6960 O.co2 508  GLU508     -0.2457
    102  OE2       72.6330   52.2500   68.6740 O.co2 508  GLU508     -0.2457
    103  N         73.7890   49.7720   63.2160 N.am  509  PRO509     -0.2718
    104  CA        73.1310   49.3460   61.9820 C.3   509  PRO509      0.1535
    105  C         71.6670   49.7870   61.8740 C.2   509  PRO509      0.2599
    106  O         71.1930   50.0550   60.7660 O.2   509  PRO509     -0.2715
    107  CB        73.2670   47.8260   62.0360 C.3   509  PRO509      0.0310
    108  CG        74.5760   47.6330   62.7150 C.3   509  PRO509      0.0237
    109  CD        74.6080   48.6850   63.7900 C.3   509  PRO509      0.0939
    110  N         70.9680   49.8530   63.0090 N.am  510  TRP510     -0.1960
    111  CA        69.6480   50.4710   63.0710 C.3   510  TRP510      0.1771
    112  C         69.5080   51.3340   64.3350 C.2   510  TRP510      0.2620
    113  O         69.6580   52.5530   64.2710 O.2   510  TRP510     -0.2715
    114  CB        68.5260   49.4300   62.9730 C.3   510  TRP510      0.0590
    115  CG        67.1530   50.0420   63.0180 C.ar  510  TRP510      0.0006
    116  CD1       66.2970   50.0510   64.0830 C.ar  510  TRP510      0.0946
    117  CD2       66.4820   50.7540   61.9640 C.ar  510  TRP510      0.0152
    118  NE1       65.1310   50.7040   63.7570 N.ar  510  TRP510     -0.2442
    119  CE2       65.2180   51.1510   62.4670 C.ar  510  TRP510      0.0810
    120  CE3       66.8240   51.0890   60.6440 C.ar  510  TRP510      0.0012
    121  CZ2       64.2990   51.8670   61.7060 C.ar  510  TRP510      0.0191
    122  CZ3       65.9110   51.7870   59.8750 C.ar  510  TRP510      0.0001
    123  CH2       64.6540   52.1760   60.4120 C.ar  510  TRP510      0.0015
    124  N         69.2260   50.6880   65.4680 N.am  511  GLY511     -0.1940
    125  CA        69.0230   51.3620   66.7460 C.3   511  GLY511      0.2014
    126  C         67.5690   51.4270   67.1840 C.2   511  GLY511      0.2638
    127  O         66.9210   52.4520   67.0610 O.2   511  GLY511     -0.2714
    128  N         67.0460   50.3260   67.6950 N.am  512  TYR512     -0.1973
    129  CA        65.7010   50.3120   68.2440 C.3   512  TYR512      0.1639
    130  C         65.5950   51.3180   69.3720 C.2   512  TYR512      0.2290
    131  O         64.5370   51.9110   69.6320 O.2   512  TYR512     -0.2864
    132  CB        65.3620   48.9220   68.7740 C.3   512  TYR512      0.0560
    133  CG        64.5700   48.0800   67.8120 C.ar  512  TYR512     -0.0198
    134  CD1       63.2780   48.4530   67.4260 C.ar  512  TYR512     -0.0009
    135  CD2       65.0840   46.9140   67.3000 C.ar  512  TYR512     -0.0009
    136  CE1       62.5250   47.6850   66.5500 C.ar  512  TYR512      0.0417
    137  CE2       64.3430   46.1380   66.4300 C.ar  512  TYR512      0.0417
    138  CZ        63.0630   46.5200   66.0580 C.ar  512  TYR512      0.1957
    139  OH        62.3190   45.7450   65.1770 O.3   512  TYR512     -0.2866
@<TRIPOS>BOND
     1    59    60    1
     2    61    62    2
     3    61    60    1
     4    60    63    1
     5    63    64    1
     6    63    65    1
     7    46    45    2
     8   122   123   ar
     9   122   120   ar
    10    66    67    1
    11   123   121   ar
    12    45    44    1
    13   120   117   ar
    14    33    34    1
    15   106   105    2
    16    43    44    1
    17    43    35   am
    18    34    35    1
    19    34    37    1
    20    44    47    1
    21    24    25    1
    22    67    68    1
    23    67    70    1
    24    27    26    2
    25   121   119   ar
    26    26    25    1
    27    69    68    2
    28    35    36    2
    29    42    40   ar
    30    42    41   ar
    31   105   104    1
    32   105   110   am
    33    40    38   ar
    34   117   119   ar
    35   117   115   ar
    36   104   107    1
    37   104   103    1
    38   107   108    1
    39    25    28    1
    40    72    71    2
    41    31    30    2
    42    41    39   ar
    43    38    39   ar
    44    38    37    1
    45   119   118   ar
    46    71    70    1
    47    71    73   am
    48   108   109    1
    49    97    96    2
    50   114   115    1
    51   114   111    1
    52   110   111    1
    53   115   116   ar
    54   111   112    1
    55   103    96   am
    56   103   109    1
    57    30    29    1
    58    30    32   am
    59    48    49    1
    60    22    21    1
    61    28    29    1
    62    96    95    1
    63   118   116   ar
    64   113   112    2
    65   112   124   am
    66    94    95    1
    67    23    21    1
    68    49    50    1
    69    49    52    1
    70    21    18    1
    71    95    98    1
    72   139   138    1
    73    20    19    2
    74    50    51    2
    75    52    53    1
    76   124   125    1
    77    98    99    1
    78    19    18    1
    79    14    16    1
    80    14    13    1
    81    18    17    1
    82   138   137   ar
    83   138   136   ar
    84    57    56    1
    85    15    13    1
    86    99   100    1
    87   137   135   ar
    88   136   134   ar
    89   125   126    1
    90    13    10    1
    91    53    54    1
    92   127   126    2
    93    10    11    1
    94    10     9    1
    95    12    11    2
    96   126   128   am
    97    56    58    1
    98    56    55    2
    99   135   133   ar
   100    54    55    1
   101   134   133   ar
   102   100   101   ar
   103   100   102   ar
   104   128   129    1
   105   133   132    1
   106     8     7    2
   107     9     7   am
   108   129   132    1
   109   129   130    1
   110     7     6    1
   111     6     5    1
   112   130   131    2
   113     5     3   am
   114    93    92    1
   115    83    82    1
   116     3     4    2
   117     3     2    1
   118    85    86    1
   119    84    82    1
   120    92    91    1
   121    82    81    2
   122    86    87    1
   123    86    89    1
   124    90    91    1
   125    90    89    1
   126     2     1    1
   127    87    88    2
   128    81    80    1
   129    80    79    1
   130    79    78    1
   131    78    75    1
   132    74    75    1
   133    77    76    2
   134    75    76    1
