@<TRIPOS>MOLECULE
tmp/4kqpA00.pdb
 120 114 0 0 0
SMALL
GASTEIGER

@<TRIPOS>ATOM
      1  N         31.1620   -0.2860   30.8490 N.3    13  ASP13      -0.1239
      2  CA        30.2160   -0.9480   31.7330 C.3    13  ASP13       0.1674
      3  C         30.0610   -2.4000   31.2870 C.2    13  ASP13       0.2266
      4  O         30.3460   -2.7490   30.1370 O.2    13  ASP13      -0.2867
      5  CB        28.8700   -0.2000   31.6690 C.3    13  ASP13       0.1410
      6  CG        27.9990   -0.3850   32.9070 C.2    13  ASP13       0.3668
      7  OD1       28.2270   -1.3370   33.6850 O.co2  13  ASP13      -0.2456
      8  OD2       27.0770    0.4430   33.0760 O.co2  13  ASP13      -0.2456
      9  N         24.7420   -2.1980   30.1200 N.3    16  PHE16      -0.1241
     10  CA        24.1590   -0.8750   29.8950 C.3    16  PHE16       0.1605
     11  C         23.5320   -0.8540   28.5040 C.2    16  PHE16       0.2264
     12  O         23.8370    0.0060   27.6820 O.2    16  PHE16      -0.2867
     13  CB        25.2070    0.2300   30.0660 C.3    16  PHE16       0.0534
     14  CG        24.6270    1.5980   30.3460 C.ar   16  PHE16      -0.0203
     15  CD1       23.7950    1.7780   31.4380 C.ar   16  PHE16      -0.0042
     16  CD2       24.9470    2.7050   29.5700 C.ar   16  PHE16      -0.0042
     17  CE1       23.2780    3.0180   31.7520 C.ar   16  PHE16      -0.0003
     18  CE2       24.4240    3.9530   29.8760 C.ar   16  PHE16      -0.0003
     19  CZ        23.5940    4.1110   30.9750 C.ar   16  PHE16      -0.0000
     20  N         30.7210    0.5340   35.4010 N.3    54  PHE54      -0.1241
     21  CA        30.8910    1.9700   35.2450 C.3    54  PHE54       0.1605
     22  C         31.9390    2.5490   36.2100 C.2    54  PHE54       0.2264
     23  O         32.9250    3.1650   35.7830 O.2    54  PHE54      -0.2867
     24  CB        29.5570    2.7300   35.3760 C.3    54  PHE54       0.0534
     25  CG        29.7180    4.2000   35.1500 C.ar   54  PHE54      -0.0203
     26  CD1       29.8760    4.6950   33.8700 C.ar   54  PHE54      -0.0042
     27  CD2       29.7870    5.0790   36.2090 C.ar   54  PHE54      -0.0042
     28  CE1       30.0710    6.0470   33.6540 C.ar   54  PHE54      -0.0003
     29  CE2       29.9910    6.4300   36.0050 C.ar   54  PHE54      -0.0003
     30  CZ        30.1340    6.9120   34.7290 C.ar   54  PHE54      -0.0000
     31  N         31.2130    4.3840   27.7920 N.3    71  SER71      -0.1202
     32  CA        30.3850    3.6800   28.7630 C.3    71  SER71       0.2020
     33  C         29.0850    4.4200   29.0500 C.2    71  SER71       0.2619
     34  O         28.6440    4.4820   30.1980 O.2    71  SER71      -0.2717
     35  CB        31.1790    3.5150   30.0550 C.3    71  SER71       0.2103
     36  OG        30.5400    2.6620   30.9750 O.3    71  SER71      -0.2182
     37  N         28.4810    4.9910   28.0150 N.am   72  GLY72      -0.1942
     38  CA        27.2870    5.7980   28.1990 C.3    72  GLY72       0.2014
     39  C         27.5070    6.8760   29.2470 C.2    72  GLY72       0.2639
     40  O         26.6490    7.1180   30.0950 O.2    72  GLY72      -0.2714
     41  N         28.6600    7.5310   29.1760 N.am   73  MET73      -0.1963
     42  CA        29.1320    8.4060   30.2350 C.3    73  MET73       0.1736
     43  C         28.6420    9.8380   30.0510 C.2    73  MET73       0.2617
     44  O         28.9700   10.5050   29.0640 O.2    73  MET73      -0.2715
     45  CB        30.6610    8.4040   30.2620 C.3    73  MET73       0.0427
     46  CG        31.2580    9.1830   31.4080 C.3    73  MET73       0.0599
     47  SD        33.0440    9.2020   31.1900 S.3    73  MET73      -0.1393
     48  CE        33.5890    9.9510   32.7140 C.3    73  MET73       0.0692
     49  N         27.8790   10.3250   31.0170 N.am   74  SER74      -0.1950
     50  CA        27.4090   11.6950   30.9820 C.3    74  SER74       0.1924
     51  C         28.5740   12.6770   31.1100 C.2    74  SER74       0.2314
     52  O         29.5110   12.4690   31.8970 O.2    74  SER74      -0.2863
     53  CB        26.4040   11.9300   32.1130 C.3    74  SER74       0.2116
     54  OG        25.2600   11.1030   31.9700 O.3    74  SER74      -0.2180
     55  N         33.0010   16.2870   36.3660 N.3    79  ARG79      -0.1245
     56  CA        33.8530   15.2530   35.7990 C.3    79  ARG79       0.1563
     57  C         34.9690   15.8520   34.9460 C.2    79  ARG79       0.2260
     58  O         36.0510   15.2730   34.8460 O.2    79  ARG79      -0.2867
     59  CB        33.0190   14.2590   34.9990 C.3    79  ARG79       0.0307
     60  CG        32.2420   13.3180   35.8970 C.3    79  ARG79       0.0489
     61  CD        31.2150   12.5210   35.1190 C.3    79  ARG79       0.2205
     62  NE        30.4950   11.6050   35.9950 N.pl3  79  ARG79      -0.0865
     63  CZ        29.6090   10.7160   35.5650 C.cat  79  ARG79       0.5346
     64  NH1       29.3180   10.6410   34.2770 N.pl3  79  ARG79       0.1354
     65  NH2       29.0200    9.8960   36.4200 N.pl3  79  ARG79       0.1354
     66  N         23.0880    2.5750   40.4690 N.3   119  LYS119     -0.1245
     67  CA        24.4020    1.9900   40.2360 C.3   119  LYS119      0.1561
     68  C         25.5090    2.8600   40.8180 C.2   119  LYS119      0.2260
     69  O         25.5020    4.0920   40.7100 O.2   119  LYS119     -0.2867
     70  CB        24.6280    1.7990   38.7470 C.3   119  LYS119      0.0271
     71  CG        23.7550    0.7380   38.1530 C.3   119  LYS119      0.0035
     72  CD        23.6210    0.9030   36.6550 C.3   119  LYS119      0.0206
     73  CE        24.9190    0.6660   35.9320 C.3   119  LYS119      0.1093
     74  NZ        24.7720    0.8460   34.4600 N.3   119  LYS119     -0.1314
     75  N         27.2680    6.5520   39.5310 N.3   122  THR122     -0.1203
     76  CA        26.5580    7.1130   38.3860 C.3   122  THR122      0.1994
     77  C         25.8230    8.4100   38.7020 C.2   122  THR122      0.2618
     78  O         25.5940    8.7710   39.8630 O.2   122  THR122     -0.2717
     79  CB        25.5300    6.1110   37.8360 C.3   122  THR122      0.1784
     80  OG1       24.5180    5.8630   38.8270 O.3   122  THR122     -0.2211
     81  CG2       26.2080    4.8200   37.3690 C.3   122  THR122      0.0376
     82  N         25.4050    9.0810   37.6340 N.am  123  ALA123     -0.1965
     83  CA        24.5520   10.2510   37.7430 C.3   123  ALA123      0.1728
     84  C         23.2430    9.9220   38.4750 C.2   123  ALA123      0.2616
     85  O         22.7150   10.7600   39.2070 O.2   123  ALA123     -0.2715
     86  CB        24.2620   10.8040   36.3660 C.3   123  ALA123      0.0334
     87  N         22.7170    8.7140   38.2800 N.am  124  SER124     -0.1950
     88  CA        21.5280    8.2800   39.0020 C.3   124  SER124      0.1924
     89  C         21.7830    8.2100   40.5000 C.2   124  SER124      0.2314
     90  O         20.9650    8.6700   41.2980 O.2   124  SER124     -0.2863
     91  CB        21.0820    6.9000   38.5240 C.3   124  SER124      0.2116
     92  OG        20.4990    6.9430   37.2420 O.3   124  SER124     -0.2180
     93  N         17.8030    5.1650   36.5850 N.3   162  ASP162     -0.1225
     94  CA        18.7860    4.8600   35.5570 C.3   162  ASP162      0.1805
     95  C         18.5450    5.8430   34.4080 C.2   162  ASP162      0.2597
     96  O         17.6040    6.6550   34.4270 O.2   162  ASP162     -0.2718
     97  CB        18.6460    3.3890   35.1020 C.3   162  ASP162      0.1424
     98  CG        19.9240    2.7880   34.4990 C.2   162  ASP162      0.3668
     99  OD1       20.8880    3.5340   34.2030 O.co2 162  ASP162     -0.2456
    100  OD2       19.9150    1.5490   34.3100 O.co2 162  ASP162     -0.2456
    101  N         19.3990    5.7740   33.3960 N.am  163  ASP163     -0.1974
    102  CA        19.2390    6.6510   32.2490 C.3   163  ASP163      0.1709
    103  C         17.9990    6.2620   31.4400 C.2   163  ASP163      0.2293
    104  O         17.7240    5.0810   31.2030 O.2   163  ASP163     -0.2864
    105  CB        20.4800    6.5960   31.3510 C.3   163  ASP163      0.1436
    106  CG        21.6890    7.3390   31.9300 C.2   163  ASP163      0.3671
    107  OD1       21.6280    7.8540   33.0740 O.co2 163  ASP163     -0.2456
    108  OD2       22.6950    7.4140   31.1870 O.co2 163  ASP163     -0.2456
    109  N         26.2050   12.3780   26.3590 N.3   189  TYR189     -0.1241
    110  CA        27.2380   11.3720   26.5780 C.3   189  TYR189      0.1605
    111  C         28.5180   11.7690   25.8460 C.2   189  TYR189      0.2264
    112  O         28.4680   12.3410   24.7520 O.2   189  TYR189     -0.2867
    113  CB        26.8340   10.0110   26.0170 C.3   189  TYR189      0.0534
    114  CG        25.7430    9.2390   26.7310 C.ar  189  TYR189     -0.0201
    115  CD1       25.1990    9.6410   27.9540 C.ar  189  TYR189     -0.0009
    116  CD2       25.2810    8.0550   26.1680 C.ar  189  TYR189     -0.0009
    117  CE1       24.2050    8.8650   28.5820 C.ar  189  TYR189      0.0417
    118  CE2       24.3060    7.2940   26.7780 C.ar  189  TYR189      0.0417
    119  CZ        23.7660    7.6960   27.9790 C.ar  189  TYR189      0.1957
    120  OH        22.7950    6.9000   28.5480 O.3   189  TYR189     -0.2866
@<TRIPOS>BOND
     1   112   111    2
     2   111   110    1
     3   113   110    1
     4   113   114    1
     5   116   114   ar
     6   116   118   ar
     7   109   110    1
     8   114   115   ar
     9   118   119   ar
    10    12    11    2
    11    31    32    1
    12   115   117   ar
    13   119   120    1
    14   119   117   ar
    15    37    38    1
    16    37    33   am
    17    38    39    1
    18    11    10    1
    19    32    33    1
    20    32    35    1
    21    33    34    2
    22    44    43    2
    23    41    39   am
    24    41    42    1
    25    39    40    2
    26    16    18   ar
    27    16    14   ar
    28    18    19   ar
    29    10    13    1
    30    10     9    1
    31    43    42    1
    32    43    49   am
    33    35    36    1
    34    13    14    1
    35     4     3    2
    36    42    45    1
    37    45    46    1
    38    14    15   ar
    39     1     2    1
    40    19    17   ar
    41    50    49    1
    42    50    51    1
    43    50    53    1
    44    51    52    2
    45   108   106   ar
    46    47    46    1
    47    47    48    1
    48   104   103    2
    49     3     2    1
    50   105   106    1
    51   105   102    1
    52    15    17   ar
    53   103   102    1
    54     5     2    1
    55     5     6    1
    56   106   107   ar
    57    54    53    1
    58   102   101    1
    59     6     8   ar
    60     6     7   ar
    61   101    95   am
    62    28    26   ar
    63    28    30   ar
    64    26    25   ar
    65    99    98   ar
    66    64    63    1
    67   100    98   ar
    68    95    96    2
    69    95    94    1
    70    74    73    1
    71    98    97    1
    72    30    29   ar
    73    58    57    2
    74    57    56    1
    75    59    56    1
    76    59    60    1
    77    97    94    1
    78    61    60    1
    79    61    62    1
    80    25    24    1
    81    25    27   ar
    82    21    24    1
    83    21    20    1
    84    21    22    1
    85    94    93    1
    86    63    62    2
    87    63    65    1
    88    23    22    2
    89    56    55    1
    90    73    72    1
    91    29    27   ar
    92    86    83    1
    93    72    71    1
    94    92    91    1
    95    81    79    1
    96    82    83    1
    97    82    77   am
    98    83    84    1
    99    79    76    1
   100    79    80    1
   101    71    70    1
   102    87    84   am
   103    87    88    1
   104    76    77    1
   105    76    75    1
   106    84    85    2
   107    91    88    1
   108    77    78    2
   109    70    67    1
   110    88    89    1
   111    67    66    1
   112    67    68    1
   113    89    90    2
   114    69    68    2
