@<TRIPOS>MOLECULE
tmp/4kqrA00.pdb
 223 214 0 0 0
SMALL
GASTEIGER

@<TRIPOS>ATOM
      1  N         -0.9470    2.0070   20.4240 N.3   244  SER244     -0.1217
      2  CA        -1.6690    0.9250   21.0820 C.3   244  SER244      0.1889
      3  C         -2.1010   -0.1740   20.1200 C.2   244  SER244      0.2288
      4  O         -2.5450   -1.2300   20.5710 O.2   244  SER244     -0.2866
      5  CB        -2.8550    1.4560   21.8950 C.3   244  SER244      0.2089
      6  OG        -3.8430    2.0400   21.0790 O.3   244  SER244     -0.2183
      7  N         -0.5480   -3.4340   21.0850 N.3   247  LYS247     -0.1245
      8  CA        -0.9040   -4.0880   22.3490 C.3   247  LYS247      0.1561
      9  C         -1.3680   -5.5510   22.1790 C.2   247  LYS247      0.2260
     10  O         -1.0580   -6.3950   23.0070 O.2   247  LYS247     -0.2867
     11  CB        -1.9540   -3.2860   23.1110 C.3   247  LYS247      0.0271
     12  CG        -1.3960   -2.0150   23.7270 C.3   247  LYS247      0.0035
     13  CD        -2.4400   -1.2350   24.5190 C.3   247  LYS247      0.0206
     14  CE        -1.8590    0.0820   24.9940 C.3   247  LYS247      0.1093
     15  NZ        -2.8880    0.9610   25.5870 N.3   247  LYS247     -0.1314
     16  N          6.5810    9.5900   33.0950 N.3   279  THR279     -0.1203
     17  CA         5.2240    9.2990   33.5410 C.3   279  THR279      0.1994
     18  C          4.3880    8.6650   32.4280 C.2   279  THR279      0.2618
     19  O          4.0490    9.3130   31.4460 O.2   279  THR279     -0.2717
     20  CB         4.5130   10.5730   34.0260 C.3   279  THR279      0.1784
     21  OG1        5.2830   11.1780   35.0680 O.3   279  THR279     -0.2211
     22  CG2        3.1310   10.2590   34.5720 C.3   279  THR279      0.0376
     23  N          4.0480    7.3970   32.6110 N.am  280  ILE280     -0.1965
     24  CA         3.1320    6.7000   31.7250 C.3   280  ILE280      0.1727
     25  C          1.7160    7.1210   32.0950 C.2   280  ILE280      0.2616
     26  O          1.3650    7.1480   33.2750 O.2   280  ILE280     -0.2715
     27  CB         3.2850    5.1740   31.8750 C.3   280  ILE280      0.0290
     28  CG1        4.7140    4.7570   31.5070 C.3   280  ILE280      0.0022
     29  CG2        2.2660    4.4440   31.0170 C.3   280  ILE280      0.0023
     30  CD1        5.1020    3.3730   31.9910 C.3   280  ILE280      0.0001
     31  N          0.9100    7.4540   31.0930 N.am  281  ARG281     -0.1977
     32  CA        -0.4400    7.9620   31.3170 C.3   281  ARG281      0.1597
     33  C         -1.4700    7.2330   30.4750 C.2   281  ARG281      0.2287
     34  O         -1.2400    6.9730   29.2920 O.2   281  ARG281     -0.2864
     35  CB        -0.5130    9.4420   30.9720 C.3   281  ARG281      0.0334
     36  CG         0.4370   10.3220   31.7580 C.3   281  ARG281      0.0492
     37  CD         0.2360   11.7850   31.3860 C.3   281  ARG281      0.2205
     38  NE         0.8970   12.6600   32.3410 N.pl3 281  ARG281     -0.0865
     39  CZ         2.1410   13.1250   32.2280 C.cat 281  ARG281      0.5346
     40  NH1        2.6230   13.9160   33.1820 N.pl3 281  ARG281      0.1354
     41  NH2        2.9060   12.8170   31.1790 N.pl3 281  ARG281      0.1354
     42  N         -5.2080    7.5770   28.7520 N.3   283  VAL283     -0.1231
     43  CA        -6.1570    8.5990   28.3040 C.3   283  VAL283      0.1692
     44  C         -7.4610    8.5110   29.0970 C.2   283  VAL283      0.2592
     45  O         -7.9150    9.5100   29.6390 O.2   283  VAL283     -0.2718
     46  CB        -6.4620    8.4770   26.7930 C.3   283  VAL283      0.0266
     47  CG1       -7.6550    9.3420   26.3970 C.3   283  VAL283      0.0020
     48  CG2       -5.2440    8.8810   25.9900 C.3   283  VAL283      0.0020
     49  N         -8.0700    7.3290   29.1600 N.am  284  SER284     -0.1952
     50  CA        -9.3230    7.1710   29.9080 C.3   284  SER284      0.1924
     51  C         -9.0360    6.6020   31.2920 C.2   284  SER284      0.2314
     52  O         -8.2870    5.6300   31.4230 O.2   284  SER284     -0.2863
     53  CB       -10.3090    6.2810   29.1560 C.3   284  SER284      0.2116
     54  OG       -10.0550    4.9080   29.3810 O.3   284  SER284     -0.2180
     55  N         -9.6950   -3.0400   25.7580 N.3   297  ILE297     -0.1231
     56  CA       -10.9230   -2.2580   25.5160 C.3   297  ILE297      0.1692
     57  C        -10.7110   -0.8210   25.9410 C.2   297  ILE297      0.2592
     58  O        -11.0540    0.1020   25.2030 O.2   297  ILE297     -0.2718
     59  CB       -12.1530   -2.8440   26.2630 C.3   297  ILE297      0.0266
     60  CG1      -12.5370   -4.1980   25.6670 C.3   297  ILE297      0.0019
     61  CG2      -13.3590   -1.9170   26.1760 C.3   297  ILE297      0.0020
     62  CD1      -13.5440   -4.9660   26.4940 C.3   297  ILE297      0.0001
     63  N        -10.1630   -0.6280   27.1350 N.am  298  LYS298     -0.1966
     64  CA        -9.9160    0.7130   27.6530 C.3   298  LYS298      0.1728
     65  C         -8.5760    1.2640   27.1620 C.2   298  LYS298      0.2616
     66  O         -8.2680    2.4360   27.3740 O.2   298  LYS298     -0.2715
     67  CB        -9.9780    0.7160   29.1890 C.3   298  LYS298      0.0311
     68  CG       -11.3190    0.2450   29.7680 C.3   298  LYS298      0.0038
     69  CD       -12.5400    1.0300   29.3060 C.3   298  LYS298      0.0206
     70  CE       -12.5870    2.4270   29.8950 C.3   298  LYS298      0.1093
     71  NZ       -13.6250    2.6380   30.9580 N.3   298  LYS298     -0.1314
     72  N         -7.7960    0.4130   26.4990 N.am  299  SER299     -0.1950
     73  CA        -6.4860    0.7650   25.9660 C.3   299  SER299      0.1924
     74  C         -5.6130    1.3820   27.0450 C.2   299  SER299      0.2314
     75  O         -5.2010    2.5260   26.9420 O.2   299  SER299     -0.2863
     76  CB        -6.6240    1.7020   24.7600 C.3   299  SER299      0.2116
     77  OG        -5.4400    1.6870   23.9880 O.3   299  SER299     -0.2180
     78  N         -2.3690    2.0480   28.8160 N.3   301  ASN301     -0.1240
     79  CA        -0.9150    2.0590   28.7550 C.3   301  ASN301      0.1653
     80  C         -0.3040    1.5710   30.0720 C.2   301  ASN301      0.2266
     81  O          0.6930    0.8590   30.0680 O.2   301  ASN301     -0.2867
     82  CB        -0.4010    3.4660   28.4450 C.3   301  ASN301      0.1155
     83  CG        -0.6860    3.8910   27.0220 C.2   301  ASN301      0.2627
     84  OD1       -0.8510    3.0600   26.1220 O.2   301  ASN301     -0.2716
     85  ND2       -0.7610    5.1920   26.8120 N.am  301  ASN301     -0.0877
     86  N          7.3510    1.4550   27.0330 N.3   354  THR354     -0.1218
     87  CA         6.9940    2.1360   25.7880 C.3   354  THR354      0.1862
     88  C          6.9410    1.1880   24.5860 C.2   354  THR354      0.2287
     89  O          6.0550    1.3020   23.7530 O.2   354  THR354     -0.2866
     90  CB         7.9080    3.3320   25.4630 C.3   354  THR354      0.1770
     91  OG1        9.2670    2.8960   25.3310 O.3   354  THR354     -0.2211
     92  CG2        7.7970    4.3780   26.5420 C.3   354  THR354      0.0375
     93  N          3.5130   -0.6230   24.6930 N.3   357  TYR357     -0.1241
     94  CA         2.3800    0.1670   24.2040 C.3   357  TYR357      0.1605
     95  C          2.6490    1.0050   22.9380 C.2   357  TYR357      0.2264
     96  O          1.8700    1.8960   22.6050 O.2   357  TYR357     -0.2867
     97  CB         1.7020    0.9680   25.3250 C.3   357  TYR357      0.0534
     98  CG         2.4750    2.0850   25.9800 C.ar  357  TYR357     -0.0201
     99  CD1        3.1490    1.8790   27.1800 C.ar  357  TYR357     -0.0009
    100  CD2        2.4480    3.3680   25.4610 C.ar  357  TYR357     -0.0009
    101  CE1        3.8320    2.9090   27.8100 C.ar  357  TYR357      0.0417
    102  CE2        3.1220    4.4080   26.0800 C.ar  357  TYR357      0.0417
    103  CZ         3.8030    4.1790   27.2580 C.ar  357  TYR357      0.1957
    104  OH         4.4640    5.2230   27.8620 O.3   357  TYR357     -0.2866
    105  N          5.5510    2.7030   21.3190 N.3   359  TYR359     -0.1241
    106  CA         6.4540    3.7900   21.0140 C.3   359  TYR359      0.1605
    107  C          7.9160    3.3110   21.1010 C.2   359  TYR359      0.2264
    108  O          8.2260    2.3010   21.7430 O.2   359  TYR359     -0.2867
    109  CB         6.1580    4.9980   21.9270 C.3   359  TYR359      0.0534
    110  CG         4.7650    5.5140   21.6690 C.ar  359  TYR359     -0.0201
    111  CD1        4.5140    6.4030   20.6390 C.ar  359  TYR359     -0.0009
    112  CD2        3.6820    5.0470   22.4100 C.ar  359  TYR359     -0.0009
    113  CE1        3.2280    6.8470   20.3710 C.ar  359  TYR359      0.0417
    114  CE2        2.3940    5.4720   22.1400 C.ar  359  TYR359      0.0417
    115  CZ         2.1720    6.3720   21.1200 C.ar  359  TYR359      0.1957
    116  OH         0.8980    6.7970   20.8620 O.3   359  TYR359     -0.2866
    117  N        -14.9420    0.2820   20.7360 N.3   421  VAL421     -0.1245
    118  CA       -14.8180    1.0980   19.5270 C.3   421  VAL421      0.1561
    119  C        -15.9980    0.7840   18.6030 C.2   421  VAL421      0.2260
    120  O        -15.8530    0.0450   17.6140 O.2   421  VAL421     -0.2867
    121  CB       -13.4620    0.8060   18.8200 C.3   421  VAL421      0.0252
    122  CG1      -13.2190    1.7750   17.6730 C.3   421  VAL421      0.0019
    123  CG2      -12.3240    0.9180   19.8180 C.3   421  VAL421      0.0019
    124  N         -8.3530   -3.0020   16.7810 N.3   434  LYS434     -0.1231
    125  CA        -7.8060   -2.1410   17.7920 C.3   434  LYS434      0.1693
    126  C         -7.5860   -0.7760   17.1740 C.2   434  LYS434      0.2593
    127  O         -6.9260   -0.6540   16.1420 O.2   434  LYS434     -0.2718
    128  CB        -6.4840   -2.7330   18.3120 C.3   434  LYS434      0.0285
    129  CG        -5.8430   -1.9790   19.4730 C.3   434  LYS434      0.0035
    130  CD        -6.6440   -2.1170   20.7590 C.3   434  LYS434      0.0206
    131  CE        -6.1020   -1.2450   21.8790 C.3   434  LYS434      0.1093
    132  NZ        -6.3350    0.2030   21.6430 N.3   434  LYS434     -0.1314
    133  N         -8.1360    0.2550   17.8070 N.am  435  SER435     -0.1938
    134  CA        -7.8370    1.6250   17.4120 C.3   435  SER435      0.2055
    135  C         -6.5850    2.1010   18.1280 C.2   435  SER435      0.2644
    136  O         -6.1210    1.4800   19.0690 O.2   435  SER435     -0.2714
    137  CB        -9.0040    2.5710   17.7200 C.3   435  SER435      0.2130
    138  OG        -9.0330    2.9530   19.0880 O.3   435  SER435     -0.2179
    139  N         -6.0430    3.2160   17.6540 N.am  436  GLY436     -0.1939
    140  CA        -4.9050    3.8510   18.2840 C.3   436  GLY436      0.2014
    141  C         -4.8390    5.3190   17.9430 C.2   436  GLY436      0.2639
    142  O         -5.3800    5.7640   16.9310 O.2   436  GLY436     -0.2714
    143  N         -4.1930    6.0800   18.8120 N.am  437  THR437     -0.1950
    144  CA        -3.9230    7.4840   18.5530 C.3   437  THR437      0.1897
    145  C         -2.5040    7.7840   19.0360 C.2   437  THR437      0.2313
    146  O         -2.1510    7.4350   20.1510 O.2   437  THR437     -0.2863
    147  CB        -4.9120    8.3930   19.2970 C.3   437  THR437      0.1794
    148  OG1       -6.2430    7.8720   19.1480 O.3   437  THR437     -0.2208
    149  CG2       -4.8500    9.8040   18.7660 C.3   437  THR437      0.0378
    150  N          0.4920   10.8870   19.3330 N.3   439  ARG439     -0.1245
    151  CA         1.0470   12.2160   19.1510 C.3   439  ARG439      0.1563
    152  C          2.1930   12.1270   18.1540 C.2   439  ARG439      0.2260
    153  O          3.0130   11.2030   18.2050 O.2   439  ARG439     -0.2867
    154  CB         1.5910   12.7840   20.4570 C.3   439  ARG439      0.0307
    155  CG         0.5380   13.0830   21.4920 C.3   439  ARG439      0.0489
    156  CD         1.2030   13.7220   22.6910 C.3   439  ARG439      0.2205
    157  NE         0.2430   14.0090   23.7460 N.pl3 439  ARG439     -0.0865
    158  CZ        -0.6080   15.0330   23.7420 C.cat 439  ARG439      0.5346
    159  NH1       -1.4390   15.2000   24.7680 N.pl3 439  ARG439      0.1354
    160  NH2       -0.6410   15.8870   22.7300 N.pl3 439  ARG439      0.1354
    161  N          7.3430   15.0210   21.6790 N.3   448  TYR448     -0.1241
    162  CA         6.0700   14.8380   21.0010 C.3   448  TYR448      0.1605
    163  C          5.2530   16.1080   20.9720 C.2   448  TYR448      0.2264
    164  O          5.3620   16.9540   21.8370 O.2   448  TYR448     -0.2867
    165  CB         5.3050   13.7060   21.6510 C.3   448  TYR448      0.0534
    166  CG         5.9920   12.3800   21.4350 C.ar  448  TYR448     -0.0201
    167  CD1        7.0420   11.9640   22.2640 C.ar  448  TYR448     -0.0009
    168  CD2        5.6100   11.5480   20.3920 C.ar  448  TYR448     -0.0009
    169  CE1        7.6730   10.7470   22.0680 C.ar  448  TYR448      0.0417
    170  CE2        6.2250   10.3330   20.1900 C.ar  448  TYR448      0.0417
    171  CZ         7.2520    9.9300   21.0290 C.ar  448  TYR448      0.1957
    172  OH         7.8730    8.7220   20.7990 O.3   448  TYR448     -0.2866
    173  N         -1.6350   14.8150   15.6810 N.3   453  TYR453     -0.1241
    174  CA        -1.9260   13.4430   15.9880 C.3   453  TYR453      0.1605
    175  C         -1.9690   12.5940   14.7400 C.2   453  TYR453      0.2264
    176  O         -2.2200   13.0870   13.6370 O.2   453  TYR453     -0.2867
    177  CB        -3.2990   13.3200   16.6810 C.3   453  TYR453      0.0534
    178  CG        -3.4530   14.1560   17.9120 C.ar  453  TYR453     -0.0201
    179  CD1       -2.9240   13.7400   19.1300 C.ar  453  TYR453     -0.0009
    180  CD2       -4.0820   15.3980   17.8540 C.ar  453  TYR453     -0.0009
    181  CE1       -3.0600   14.5180   20.2680 C.ar  453  TYR453      0.0417
    182  CE2       -4.2260   16.1770   18.9840 C.ar  453  TYR453      0.0417
    183  CZ        -3.7090   15.7300   20.1840 C.ar  453  TYR453      0.1957
    184  OH        -3.8270   16.5150   21.3010 O.3   453  TYR453     -0.2866
    185  N         -9.6920   13.5560   16.8310 N.3   482  TYR482     -0.1227
    186  CA        -8.3970   12.9730   16.4780 C.3   482  TYR482      0.1736
    187  C         -8.1600   11.5600   16.9870 C.2   482  TYR482      0.2595
    188  O         -7.2790   10.8840   16.4860 O.2   482  TYR482     -0.2718
    189  CB        -7.2560   13.8820   16.9320 C.3   482  TYR482      0.0548
    190  CG        -7.3590   14.3190   18.3710 C.ar  482  TYR482     -0.0200
    191  CD1       -6.8600   13.5300   19.3950 C.ar  482  TYR482     -0.0009
    192  CD2       -7.9430   15.5360   18.7050 C.ar  482  TYR482     -0.0009
    193  CE1       -6.9470   13.9350   20.7170 C.ar  482  TYR482      0.0417
    194  CE2       -8.0340   15.9520   20.0220 C.ar  482  TYR482      0.0417
    195  CZ        -7.5340   15.1410   21.0160 C.ar  482  TYR482      0.1957
    196  OH        -7.6180   15.5370   22.3060 O.3   482  TYR482     -0.2866
    197  N         -8.9360   11.1050   17.9570 N.am  483  PHE483     -0.1962
    198  CA        -8.7640    9.7510   18.4590 C.3   483  PHE483      0.1771
    199  C         -9.0600    8.7340   17.3710 C.2   483  PHE483      0.2620
    200  O        -10.0020    8.8940   16.6160 O.2   483  PHE483     -0.2715
    201  CB        -9.6510    9.4940   19.6800 C.3   483  PHE483      0.0574
    202  CG        -9.1890   10.1950   20.9210 C.ar  483  PHE483     -0.0200
    203  CD1      -10.0460   11.0360   21.6160 C.ar  483  PHE483     -0.0042
    204  CD2       -7.9020   10.0030   21.4090 C.ar  483  PHE483     -0.0042
    205  CE1       -9.6230   11.6880   22.7650 C.ar  483  PHE483     -0.0003
    206  CE2       -7.4670   10.6500   22.5580 C.ar  483  PHE483     -0.0003
    207  CZ        -8.3320   11.4940   23.2390 C.ar  483  PHE483     -0.0000
    208  N         -8.2430    7.6880   17.3030 N.am  484  GLY484     -0.1940
    209  CA        -8.4010    6.6370   16.2880 C.3   484  GLY484      0.2014
    210  C         -9.7840    6.0290   16.2320 C.2   484  GLY484      0.2639
    211  O        -10.3040    5.7510   15.1620 O.2   484  GLY484     -0.2714
    212  N        -10.3970    5.8430   17.3970 N.am  485  GLY485     -0.1939
    213  CA       -11.7150    5.2390   17.4720 C.3   485  GLY485      0.2014
    214  C        -12.8190    6.1480   16.9800 C.2   485  GLY485      0.2638
    215  O        -13.9130    5.6760   16.6930 O.2   485  GLY485     -0.2714
    216  N        -12.5310    7.4540   16.8880 N.am  486  LEU486     -0.1977
    217  CA       -13.4390    8.4280   16.2860 C.3   486  LEU486      0.1596
    218  C        -13.1640    8.6560   14.7910 C.2   486  LEU486      0.2287
    219  O        -14.0910    8.8350   14.0080 O.2   486  LEU486     -0.2864
    220  CB       -13.3360    9.7650   17.0340 C.3   486  LEU486      0.0297
    221  CG       -13.4750    9.6640   18.5450 C.3   486  LEU486      0.0022
    222  CD1      -13.2940   11.0300   19.1870 C.3   486  LEU486      0.0001
    223  CD2      -14.8340    9.0940   18.9250 C.3   486  LEU486      0.0001
@<TRIPOS>BOND
     1   176   175    2
     2   219   218    2
     3   175   174    1
     4   218   217    1
     5   211   210    2
     6   173   174    1
     7   174   177    1
     8   127   126    2
     9   210   209    1
    10   210   212   am
    11   217   216    1
    12   217   220    1
    13   209   208    1
    14   186   185    1
    15   186   189    1
    16   186   187    1
    17   188   187    2
    18   200   199    2
    19   177   178    1
    20   215   214    2
    21   124   125    1
    22   216   214   am
    23   142   141    2
    24   189   190    1
    25   214   213    1
    26   187   197   am
    27   220   221    1
    28   126   125    1
    29   126   133   am
    30   208   199   am
    31   199   198    1
    32   212   213    1
    33   134   137    1
    34   134   133    1
    35   134   135    1
    36   120   119    2
    37   139   135   am
    38   139   140    1
    39   122   121    1
    40   137   138    1
    41   125   128    1
    42   180   178   ar
    43   180   182   ar
    44   178   179   ar
    45   141   140    1
    46   141   143   am
    47   197   198    1
    48   135   136    2
    49   152   153    2
    50   152   151    1
    51   128   129    1
    52   190   192   ar
    53   190   191   ar
    54   198   201    1
    55   221   223    1
    56   221   222    1
    57   144   143    1
    58   144   145    1
    59   144   147    1
    60   119   118    1
    61   192   194   ar
    62   149   147    1
    63   121   118    1
    64   121   123    1
    65   182   183   ar
    66   145   146    2
    67   179   181   ar
    68   148   147    1
    69   151   150    1
    70   151   154    1
    71   191   193   ar
    72   129   130    1
    73   118   117    1
    74   201   202    1
    75   194   195   ar
    76     3     4    2
    77     3     2    1
    78   183   181   ar
    79   183   184    1
    80   170   168   ar
    81   170   171   ar
    82   113   111   ar
    83   113   115   ar
    84   168   166   ar
    85     1     2    1
    86   154   155    1
    87   111   110   ar
    88   193   195   ar
    89   130   131    1
    90   172   171    1
    91   116   115    1
    92   202   204   ar
    93   202   203   ar
    94   163   162    1
    95   163   164    2
    96   162   165    1
    97   162   161    1
    98   106   107    1
    99   106   105    1
   100   106   109    1
   101   195   196    1
   102   171   169   ar
   103     6     5    1
   104     2     5    1
   105     7     8    1
   106   107   108    2
   107   115   114   ar
   108   204   206   ar
   109   166   165    1
   110   166   167   ar
   111   155   156    1
   112   203   205   ar
   113   132   131    1
   114   110   109    1
   115   110   112   ar
   116   169   167   ar
   117   114   112   ar
   118     9     8    1
   119     9    10    2
   120     8    11    1
   121   206   207   ar
   122    96    95    2
   123   156   157    1
   124   160   158    1
   125   205   207   ar
   126    95    94    1
   127    11    12    1
   128    12    13    1
   129   158   157    2
   130   158   159    1
   131    89    88    2
   132    77    76    1
   133    94    93    1
   134    94    97    1
   135    13    14    1
   136    88    87    1
   137    76    73    1
   138    14    15    1
   139    58    57    2
   140    97    98    1
   141    91    90    1
   142   100    98   ar
   143   100   102   ar
   144    90    87    1
   145    90    92    1
   146    56    55    1
   147    56    57    1
   148    56    59    1
   149    60    59    1
   150    60    62    1
   151    87    86    1
   152    57    63   am
   153    73    72    1
   154    73    74    1
   155    98    99   ar
   156    48    46    1
   157   102   103   ar
   158    84    83    2
   159    61    59    1
   160    47    46    1
   161    72    65   am
   162    46    43    1
   163    85    83   am
   164    75    74    2
   165    83    82    1
   166    63    64    1
   167    65    66    2
   168    65    64    1
   169    99   101   ar
   170   103   101   ar
   171   103   104    1
   172    64    67    1
   173    43    42    1
   174    43    44    1
   175    82    79    1
   176    79    78    1
   177    79    80    1
   178    44    49   am
   179    44    45    2
   180    53    54    1
   181    53    50    1
   182    49    50    1
   183    67    68    1
   184    34    33    2
   185    69    68    1
   186    69    70    1
   187    70    71    1
   188    50    51    1
   189    81    80    2
   190    33    32    1
   191    35    32    1
   192    35    36    1
   193    29    27    1
   194    31    32    1
   195    31    25   am
   196    41    39    1
   197    51    52    2
   198    37    36    1
   199    37    38    1
   200    19    18    2
   201    28    27    1
   202    28    30    1
   203    24    27    1
   204    24    25    1
   205    24    23    1
   206    25    26    2
   207    39    38    2
   208    39    40    1
   209    18    23   am
   210    18    17    1
   211    16    17    1
   212    17    20    1
   213    20    22    1
   214    20    21    1
