@<TRIPOS>MOLECULE
tmp/4kqtA02.pdb
 82 77 0 0 0
SMALL
GASTEIGER

@<TRIPOS>ATOM
      1  N         25.2100   74.8570   41.4810 N.3    51  ARG51      -0.1245
      2  CA        24.1790   75.4600   40.6390 C.3    51  ARG51       0.1563
      3  C         24.7170   76.6270   39.8150 C.2    51  ARG51       0.2260
      4  O         24.3970   76.7540   38.6350 O.2    51  ARG51      -0.2867
      5  CB        22.9980   75.9490   41.4730 C.3    51  ARG51       0.0307
      6  CG        21.7570   76.1130   40.6410 C.3    51  ARG51       0.0489
      7  CD        21.0100   77.3840   40.9290 C.3    51  ARG51       0.2205
      8  NE        19.9980   77.5560   39.8910 N.pl3  51  ARG51      -0.0865
      9  CZ        18.7880   76.9980   39.8970 C.cat  51  ARG51       0.5346
     10  NH1       18.3790   76.2340   40.9140 N.pl3  51  ARG51       0.1354
     11  NH2       17.9710   77.2190   38.8720 N.pl3  51  ARG51       0.1354
     12  N         26.3320   75.3380   36.8480 N.3    54  LEU54      -0.1231
     13  CA        25.3430   74.8480   35.8870 C.3    54  LEU54       0.1693
     14  C         24.7270   75.9930   35.0960 C.2    54  LEU54       0.2592
     15  O         24.6530   75.9330   33.8650 O.2    54  LEU54      -0.2718
     16  CB        24.2460   74.0460   36.5910 C.3    54  LEU54       0.0284
     17  CG        24.6850   72.7510   37.2750 C.3    54  LEU54       0.0019
     18  CD1       23.5570   72.1880   38.1080 C.3    54  LEU54       0.0001
     19  CD2       25.1530   71.7310   36.2560 C.3    54  LEU54       0.0001
     20  N         24.3090   77.0410   35.7990 N.am   55  ASP55      -0.1974
     21  CA        23.7390   78.2120   35.1380 C.3    55  ASP55       0.1709
     22  C         24.7490   78.8430   34.1750 C.2    55  ASP55       0.2293
     23  O         24.3700   79.2820   33.0880 O.2    55  ASP55      -0.2864
     24  CB        23.2300   79.2240   36.1660 C.3    55  ASP55       0.1436
     25  CG        22.0480   78.6930   36.9670 C.2    55  ASP55       0.3671
     26  OD1       21.2480   77.8970   36.4240 O.co2  55  ASP55      -0.2456
     27  OD2       21.9180   79.0700   38.1470 O.co2  55  ASP55      -0.2456
     28  N         24.8380   76.7160   31.0890 N.3    58  ALA58      -0.1245
     29  CA        23.6090   76.9430   30.3290 C.3    58  ALA58       0.1562
     30  C         23.6820   78.2320   29.5110 C.2    58  ALA58       0.2260
     31  O         23.3330   78.2330   28.3280 O.2    58  ALA58      -0.2867
     32  CB        22.4140   76.9800   31.2570 C.3    58  ALA58       0.0290
     33  N         23.4640   69.7100   25.5180 N.3    77  ALA77      -0.1245
     34  CA        22.2480   70.0020   26.2690 C.3    77  ALA77       0.1562
     35  C         21.7840   68.7790   27.0480 C.2    77  ALA77       0.2260
     36  O         21.3270   68.9070   28.1810 O.2    77  ALA77      -0.2867
     37  CB        21.1570   70.4770   25.3420 C.3    77  ALA77       0.0290
     38  N         24.1200   68.4410   30.0670 N.3    80  LEU80      -0.1231
     39  CA        23.7730   69.4820   31.0300 C.3    80  LEU80       0.1693
     40  C         22.4450   69.1880   31.7180 C.2    80  LEU80       0.2591
     41  O         22.2890   69.4430   32.9100 O.2    80  LEU80      -0.2718
     42  CB        23.7010   70.8200   30.3050 C.3    80  LEU80       0.0284
     43  CG        23.6790   72.0880   31.1350 C.3    80  LEU80       0.0019
     44  CD1       24.8890   72.1650   32.0650 C.3    80  LEU80       0.0001
     45  CD2       23.6390   73.2870   30.1940 C.3    80  LEU80       0.0001
     46  N         21.4990   68.6380   30.9600 N.am   81  GLN81      -0.1979
     47  CA        20.2010   68.2500   31.4900 C.3    81  GLN81       0.1601
     48  C         20.3330   67.1270   32.5210 C.2    81  GLN81       0.2287
     49  O         19.5790   67.0850   33.4880 O.2    81  GLN81      -0.2864
     50  CB        19.2730   67.8240   30.3410 C.3    81  GLN81       0.0394
     51  CG        17.8810   67.3760   30.7660 C.3    81  GLN81       0.0908
     52  CD        17.1700   68.4270   31.5910 C.2    81  GLN81       0.2608
     53  OE1       16.6370   69.3880   31.0490 O.2    81  GLN81      -0.2717
     54  NE2       17.1700   68.2570   32.9100 N.am   81  GLN81      -0.0878
     55  N         21.8620   68.5210   35.7610 N.3    84  ALA84      -0.1245
     56  CA        20.8120   69.2440   36.4560 C.3    84  ALA84       0.1562
     57  C         19.9480   68.2980   37.2790 C.2    84  ALA84       0.2260
     58  O         19.6260   68.5870   38.4260 O.2    84  ALA84      -0.2867
     59  CB        19.9640   70.0070   35.4670 C.3    84  ALA84       0.0290
     60  N         21.7220   67.0050   40.3080 N.3    87  TRP87      -0.1227
     61  CA        21.7980   68.0750   41.2970 C.3    87  TRP87       0.1737
     62  C         20.5430   68.0690   42.1540 C.2    87  TRP87       0.2595
     63  O         20.6310   68.1520   43.3790 O.2    87  TRP87      -0.2718
     64  CB        21.9630   69.4210   40.6000 C.3    87  TRP87       0.0564
     65  CG        22.0320   70.5820   41.5180 C.ar   87  TRP87       0.0003
     66  CD1       23.1400   71.0780   42.1280 C.ar   87  TRP87       0.0946
     67  CD2       20.9460   71.4120   41.9200 C.ar   87  TRP87       0.0152
     68  NE1       22.8140   72.1670   42.8920 N.ar   87  TRP87      -0.2442
     69  CE2       21.4690   72.3930   42.7810 C.ar   87  TRP87       0.0810
     70  CE3       19.5750   71.4220   41.6380 C.ar   87  TRP87       0.0012
     71  CZ2       20.6720   73.3790   43.3610 C.ar   87  TRP87       0.0191
     72  CZ3       18.7820   72.4020   42.2170 C.ar   87  TRP87       0.0001
     73  CH2       19.3320   73.3640   43.0690 C.ar   87  TRP87       0.0015
     74  N         19.3800   67.9760   41.5090 N.am   88  GLN88      -0.1979
     75  CA        18.1180   67.8380   42.2380 C.3    88  GLN88       0.1601
     76  C         18.1200   66.5890   43.0960 C.2    88  GLN88       0.2287
     77  O         17.6900   66.6380   44.2430 O.2    88  GLN88      -0.2864
     78  CB        16.9060   67.8060   41.3050 C.3    88  GLN88       0.0394
     79  CG        16.2640   69.1650   41.0830 C.3    88  GLN88       0.0908
     80  CD        15.2170   69.1330   39.9890 C.2    88  GLN88       0.2608
     81  OE1       15.1970   69.9990   39.1120 O.2    88  GLN88      -0.2717
     82  NE2       14.3530   68.1200   40.0170 N.am   88  GLN88      -0.0878
@<TRIPOS>BOND
     1    37    34    1
     2    33    34    1
     3    34    35    1
     4    35    36    2
     5    31    30    2
     6    30    29    1
     7    38    39    1
     8    45    43    1
     9    42    39    1
    10    42    43    1
    11    29    28    1
    12    29    32    1
    13    50    51    1
    14    50    47    1
    15    51    52    1
    16    46    47    1
    17    46    40   am
    18    39    40    1
    19    53    52    2
    20    43    44    1
    21    47    48    1
    22    52    54   am
    23    40    41    2
    24    48    49    2
    25    23    22    2
    26    15    14    2
    27    22    21    1
    28    14    20   am
    29    14    13    1
    30    21    20    1
    31    21    24    1
    32    59    56    1
    33    55    56    1
    34    13    16    1
    35    13    12    1
    36    24    25    1
    37    19    17    1
    38    26    25   ar
    39    56    57    1
    40    16    17    1
    41    25    27   ar
    42    17    18    1
    43    57    58    2
    44     4     3    2
    45    11     9    1
    46    81    80    2
    47     3     2    1
    48     8     9    2
    49     8     7    1
    50     9    10    1
    51    80    82   am
    52    80    79    1
    53    60    61    1
    54    64    61    1
    55    64    65    1
    56     2     5    1
    57     2     1    1
    58     6     7    1
    59     6     5    1
    60    79    78    1
    61    61    62    1
    62    78    75    1
    63    74    62   am
    64    74    75    1
    65    65    67   ar
    66    65    66   ar
    67    70    67   ar
    68    70    72   ar
    69    67    69   ar
    70    66    68   ar
    71    62    63    2
    72    72    73   ar
    73    75    76    1
    74    69    68   ar
    75    69    71   ar
    76    73    71   ar
    77    76    77    2
