@<TRIPOS>MOLECULE
tmp/4kquA01.pdb
 174 158 0 0 0
SMALL
GASTEIGER

@<TRIPOS>ATOM
      1  N         26.4870  -10.2640   15.6150 N.3    83  GLN83      -0.1245
      2  CA        27.8050  -10.6360   15.1180 C.3    83  GLN83       0.1566
      3  C         28.3980  -11.7620   15.9950 C.2    83  GLN83       0.2260
      4  O         28.8770  -12.7530   15.4590 O.2    83  GLN83      -0.2867
      5  CB        28.7270   -9.3880   15.0930 C.3    83  GLN83       0.0367
      6  CG        30.2200   -9.6990   14.9190 C.3    83  GLN83       0.0905
      7  CD        30.6420   -9.9370   13.4880 C.2    83  GLN83       0.2608
      8  OE1       29.8530  -10.3530   12.6150 O.2    83  GLN83      -0.2717
      9  NE2       31.9130   -9.6540   13.2140 N.am   83  GLN83      -0.0878
     10  N         26.7640  -15.2360   15.3160 N.3    86  PHE86      -0.1227
     11  CA        27.1890  -15.8240   14.0550 C.3    86  PHE86       0.1736
     12  C         28.6380  -16.2880   14.0940 C.2    86  PHE86       0.2595
     13  O         28.9260  -17.3490   13.5490 O.2    86  PHE86      -0.2718
     14  CB        26.9400  -14.8510   12.8820 C.3    86  PHE86       0.0547
     15  CG        25.4870  -14.8560   12.4450 C.ar   86  PHE86      -0.0202
     16  CD1       24.8920  -16.0170   11.9590 C.ar   86  PHE86      -0.0042
     17  CD2       24.7110  -13.7030   12.5290 C.ar   86  PHE86      -0.0042
     18  CE1       23.5400  -16.0300   11.5940 C.ar   86  PHE86      -0.0003
     19  CE2       23.3710  -13.7160   12.1520 C.ar   86  PHE86      -0.0003
     20  CZ        22.7890  -14.8800   11.7080 C.ar   86  PHE86      -0.0000
     21  N         29.5330  -15.5440   14.7870 N.am   87  LEU87      -0.1980
     22  CA        30.9540  -15.8810   14.8480 C.3    87  LEU87       0.1596
     23  C         31.2000  -17.1450   15.6690 C.2    87  LEU87       0.2287
     24  O         32.0260  -17.9600   15.2690 O.2    87  LEU87      -0.2864
     25  CB        31.7880  -14.7140   15.4050 C.3    87  LEU87       0.0297
     26  CG        31.8760  -13.4100   14.5510 C.3    87  LEU87       0.0022
     27  CD1       32.9910  -12.4970   15.0640 C.3    87  LEU87       0.0001
     28  CD2       32.0430  -13.6980   13.0370 C.3    87  LEU87       0.0001
     29  N         29.9300  -19.8700   13.4060 N.3    90  ASP90      -0.1225
     30  CA        30.7890  -19.9450   12.2200 C.3    90  ASP90       0.1805
     31  C         32.1470  -20.5770   12.5720 C.2    90  ASP90       0.2597
     32  O         32.6960  -21.3050   11.7450 O.2    90  ASP90      -0.2718
     33  CB        30.9940  -18.5370   11.6090 C.3    90  ASP90       0.1424
     34  CG        31.9390  -18.4880   10.4180 C.2    90  ASP90       0.3668
     35  OD1       31.4920  -18.8280    9.2800 O.co2  90  ASP90      -0.2456
     36  OD2       33.1260  -18.1030   10.6140 O.co2  90  ASP90      -0.2456
     37  N         32.6870  -20.3140   13.8010 N.am   91  ASP91      -0.1974
     38  CA        34.0030  -20.8540   14.1900 C.3    91  ASP91       0.1709
     39  C         33.9380  -22.3540   14.3690 C.2    91  ASP91       0.2293
     40  O         34.8990  -23.0330   14.0250 O.2    91  ASP91      -0.2864
     41  CB        34.5810  -20.1680   15.4380 C.3    91  ASP91       0.1436
     42  CG        35.1590  -18.7920   15.1630 C.2    91  ASP91       0.3671
     43  OD1       35.5290  -18.5150   13.9840 O.co2  91  ASP91      -0.2456
     44  OD2       35.2560  -17.9960   16.1120 O.co2  91  ASP91      -0.2456
     45  N         33.5930  -23.7840   10.6590 N.3    94  ASP94      -0.1239
     46  CA        34.8120  -23.5850    9.8810 C.3    94  ASP94       0.1674
     47  C         36.0160  -24.2710   10.5230 C.2    94  ASP94       0.2266
     48  O         37.1130  -24.1980    9.9510 O.2    94  ASP94      -0.2867
     49  CB        35.0860  -22.0810    9.6640 C.3    94  ASP94       0.1410
     50  CG        34.0180  -21.4210    8.7900 C.2    94  ASP94       0.3668
     51  OD1       33.2100  -22.1500    8.1860 O.co2  94  ASP94      -0.2456
     52  OD2       34.0110  -20.1930    8.6960 O.co2  94  ASP94      -0.2456
     53  N         37.6720  -23.4060   13.1500 N.3    96  SER96      -0.1217
     54  CA        38.6480  -22.3500   13.3980 C.3    96  SER96       0.1889
     55  C         39.3480  -22.5560   14.7380 C.2    96  SER96       0.2288
     56  O         38.8330  -23.2760   15.6070 O.2    96  SER96      -0.2866
     57  CB        37.9630  -20.9900   13.3150 C.3    96  SER96       0.2089
     58  OG        37.5490  -20.7790   11.9740 O.3    96  SER96      -0.2183
     59  N         40.0270  -16.5090   17.4670 N.3    99  ARG99      -0.1245
     60  CA        39.1230  -15.4070   17.1700 C.3    99  ARG99       0.1563
     61  C         39.4200  -14.2620   18.1080 C.2    99  ARG99       0.2260
     62  O         39.4690  -14.4680   19.3320 O.2    99  ARG99      -0.2867
     63  CB        37.6620  -15.8730   17.3110 C.3    99  ARG99       0.0307
     64  CG        36.5970  -14.7550   17.2920 C.3    99  ARG99       0.0489
     65  CD        36.3710  -14.1840   15.9060 C.3    99  ARG99       0.2205
     66  NE        35.8620  -15.2000   14.9790 N.pl3  99  ARG99      -0.0865
     67  CZ        35.6300  -14.9760   13.6920 C.cat  99  ARG99       0.5346
     68  NH1       35.8320  -13.7720   13.1750 N.pl3  99  ARG99       0.1354
     69  NH2       35.1720  -15.9470   12.9160 N.pl3  99  ARG99       0.1354
     70  N         21.7960  -13.7060    6.6330 N.3   154  THR154     -0.1218
     71  CA        23.1270  -14.2150    6.9950 C.3   154  THR154      0.1862
     72  C         23.1480  -15.7620    6.9090 C.2   154  THR154      0.2287
     73  O         24.0830  -16.3210    6.3380 O.2   154  THR154     -0.2866
     74  CB        23.5710  -13.7110    8.3880 C.3   154  THR154      0.1770
     75  OG1       23.5540  -12.2850    8.3870 O.3   154  THR154     -0.2211
     76  CG2       24.9610  -14.2050    8.7700 C.3   154  THR154      0.0375
     77  N         25.3840  -18.2260    4.7760 N.3   158  GLN158     -0.1245
     78  CA        26.1800  -19.2960    5.4000 C.3   158  GLN158      0.1566
     79  C         25.8770  -20.6530    4.7120 C.2   158  GLN158      0.2260
     80  O         26.8010  -21.4230    4.4620 O.2   158  GLN158     -0.2867
     81  CB        25.9090  -19.3850    6.9210 C.3   158  GLN158      0.0367
     82  CG        26.4090  -18.1780    7.7400 C.3   158  GLN158      0.0905
     83  CD        27.9180  -18.1180    7.8240 C.2   158  GLN158      0.2608
     84  OE1       28.6060  -17.8770    6.8210 O.2   158  GLN158     -0.2717
     85  NE2       28.4650  -18.3140    9.0250 N.am  158  GLN158     -0.0878
     86  N         27.6510  -20.6210    1.3430 N.3   161  ASP161     -0.1239
     87  CA        29.0700  -20.7220    1.6830 C.3   161  ASP161      0.1674
     88  C         29.4400  -22.1880    1.9510 C.2   161  ASP161      0.2266
     89  O         30.4410  -22.6650    1.4270 O.2   161  ASP161     -0.2867
     90  CB        29.3750  -19.8470    2.9230 C.3   161  ASP161      0.1410
     91  CG        30.8290  -19.8440    3.3650 C.2   161  ASP161      0.3668
     92  OD1       31.1990  -20.6940    4.2050 O.co2 161  ASP161     -0.2456
     93  OD2       31.5750  -18.9770    2.9160 O.co2 161  ASP161     -0.2456
     94  N         25.9170  -13.6020    3.3370 N.3   187  LYS187     -0.1231
     95  CA        26.6550  -13.9640    4.5570 C.3   187  LYS187      0.1693
     96  C         27.3340  -12.7840    5.2620 C.2   187  LYS187      0.2592
     97  O         27.5720  -12.8870    6.4600 O.2   187  LYS187     -0.2718
     98  CB        27.6750  -15.0970    4.3160 C.3   187  LYS187      0.0285
     99  CG        29.0020  -14.6880    3.6750 C.3   187  LYS187      0.0035
    100  CD        30.0760  -15.7300    3.9500 C.3   187  LYS187      0.0206
    101  CE        31.4010  -15.3360    3.3250 C.3   187  LYS187      0.1093
    102  NZ        32.4490  -16.3680    3.5570 N.3   187  LYS187     -0.1314
    103  N         27.6200  -11.6820    4.5560 N.am  188  THR188     -0.1953
    104  CA        28.3060  -10.5520    5.1720 C.3   188  THR188      0.1897
    105  C         27.5920   -9.2200    5.0040 C.2   188  THR188      0.2313
    106  O         27.3850   -8.5330    6.0080 O.2   188  THR188     -0.2863
    107  CB        29.7430  -10.4440    4.5930 C.3   188  THR188      0.1794
    108  OG1       30.4600  -11.5660    5.0580 O.3   188  THR188     -0.2208
    109  CG2       30.4940   -9.1600    5.0170 C.3   188  THR188      0.0378
    110  N         26.3560   -6.9860    8.2680 N.3   192  SER192     -0.1217
    111  CA        27.4870   -6.1900    8.7460 C.3   192  SER192      0.1889
    112  C         27.4360   -4.7540    8.2500 C.2   192  SER192      0.2288
    113  O         28.0250   -3.9050    8.8920 O.2   192  SER192     -0.2866
    114  CB        28.8250   -6.8110    8.3450 C.3   192  SER192      0.2089
    115  OG        28.9780   -8.1160    8.8820 O.3   192  SER192     -0.2183
    116  N         34.1660   -8.2050    2.4980 N.3   227  GLN227     -0.1245
    117  CA        34.3730   -9.6560    2.5100 C.3   227  GLN227      0.1566
    118  C         35.5710  -10.0430    1.6320 C.2   227  GLN227      0.2260
    119  O         36.2670  -11.0010    1.9630 O.2   227  GLN227     -0.2867
    120  CB        33.1190  -10.4240    2.0830 C.3   227  GLN227      0.0367
    121  CG        33.2070  -11.9440    2.3230 C.3   227  GLN227      0.0905
    122  CD        33.5750  -12.3310    3.7300 C.2   227  GLN227      0.2608
    123  OE1       33.0230  -11.8310    4.7110 O.2   227  GLN227     -0.2717
    124  NE2       34.5140  -13.2400    3.8540 N.am  227  GLN227     -0.0878
    125  N         38.4510   -9.4640    3.8040 N.3   230  ASP230     -0.1225
    126  CA        38.4430  -10.5500    4.7840 C.3   230  ASP230      0.1805
    127  C         39.0700  -11.8060    4.1760 C.2   230  ASP230      0.2597
    128  O         39.8950  -12.4330    4.8350 O.2   230  ASP230     -0.2718
    129  CB        37.0190  -10.8470    5.2970 C.3   230  ASP230      0.1424
    130  CG        36.9760  -11.9330    6.3720 C.2   230  ASP230      0.3668
    131  OD1       37.4550  -11.6790    7.4880 O.co2 230  ASP230     -0.2456
    132  OD2       36.4660  -13.0300    6.0860 O.co2 230  ASP230     -0.2456
    133  N         38.7300  -12.1350    2.9030 N.am  231  ASP231     -0.1974
    134  CA        39.3050  -13.2950    2.2050 C.3   231  ASP231      0.1709
    135  C         40.7960  -13.1100    1.9270 C.2   231  ASP231      0.2293
    136  O         41.5420  -14.0760    2.0240 O.2   231  ASP231     -0.2864
    137  CB        38.5760  -13.5910    0.8950 C.3   231  ASP231      0.1436
    138  CG        37.1220  -13.9730    1.0340 C.2   231  ASP231      0.3671
    139  OD1       36.7060  -14.3630    2.1520 O.co2 231  ASP231     -0.2456
    140  OD2       36.4180  -13.9410    0.0230 O.co2 231  ASP231     -0.2456
    141  N         42.6310  -13.5670    5.2780 N.3   234  ASP234     -0.1239
    142  CA        42.6100  -14.9610    5.7270 C.3   234  ASP234      0.1674
    143  C         43.9530  -15.6320    5.4330 C.2   234  ASP234      0.2266
    144  O         44.4480  -16.3980    6.2520 O.2   234  ASP234     -0.2867
    145  CB        41.4880  -15.7330    5.0350 C.3   234  ASP234      0.1410
    146  CG        41.2470  -17.0840    5.6570 C.2   234  ASP234      0.3668
    147  OD1       40.5970  -17.1380    6.7160 O.co2 234  ASP234     -0.2456
    148  OD2       41.7540  -18.0760    5.1220 O.co2 234  ASP234     -0.2456
    149  N         42.8320  -13.7580   14.2630 N.3   244  LYS244     -0.1245
    150  CA        42.3300  -15.0710   13.8540 C.3   244  LYS244      0.1561
    151  C         43.2840  -15.7340   12.8380 C.2   244  LYS244      0.2260
    152  O         44.0580  -15.0570   12.1400 O.2   244  LYS244     -0.2867
    153  CB        40.8780  -14.9650   13.2950 C.3   244  LYS244      0.0271
    154  CG        40.7040  -14.0700   12.0560 C.3   244  LYS244      0.0035
    155  CD        39.2200  -13.7880   11.7090 C.3   244  LYS244      0.0206
    156  CE        39.0910  -12.9130   10.4720 C.3   244  LYS244      0.1093
    157  NZ        37.6860  -12.4850   10.1750 N.3   244  LYS244     -0.1314
    158  N         40.4570  -20.8230    4.9710 N.3   248  ASP248     -0.1239
    159  CA        39.7350  -20.8640    3.6940 C.3   248  ASP248      0.1674
    160  C         40.2560  -21.9210    2.7190 C.2   248  ASP248      0.2266
    161  O         39.4370  -22.5690    2.0520 O.2   248  ASP248     -0.2867
    162  CB        39.7250  -19.4940    3.0050 C.3   248  ASP248      0.1410
    163  CG        38.8660  -18.4320    3.6860 C.2   248  ASP248      0.3668
    164  OD1       38.0680  -18.7920    4.5960 O.co2 248  ASP248     -0.2456
    165  OD2       39.0010  -17.2400    3.3250 O.co2 248  ASP248     -0.2456
    166  N         36.9950  -23.2950    0.6330 N.3   253  LYS253     -0.1245
    167  CA        36.1030  -22.1440    0.5240 C.3   253  LYS253      0.1561
    168  C         36.1590  -21.4350   -0.8200 C.2   253  LYS253      0.2260
    169  O         37.2320  -21.3040   -1.4210 O.2   253  LYS253     -0.2867
    170  CB        36.4110  -21.1230    1.6390 C.3   253  LYS253      0.0271
    171  CG        35.9970  -21.5740    3.0500 C.3   253  LYS253      0.0035
    172  CD        34.4760  -21.7620    3.1730 C.3   253  LYS253      0.0206
    173  CE        34.0840  -22.7160    4.2730 C.3   253  LYS253      0.1093
    174  NZ        34.3320  -22.1470    5.6180 N.3   253  LYS253     -0.1314
@<TRIPOS>BOND
     1   169   168    2
     2   168   167    1
     3   140   138   ar
     4   167   166    1
     5   167   170    1
     6   137   138    1
     7   137   134    1
     8   138   139   ar
     9    86    87    1
    10    89    88    2
    11   118   119    2
    12   118   117    1
    13   170   171    1
    14    87    88    1
    15    87    90    1
    16   135   136    2
    17   135   134    1
    18   161   160    2
    19   120   121    1
    20   120   117    1
    21   134   133    1
    22   121   122    1
    23   116   117    1
    24   160   159    1
    25   133   127   am
    26    93    91   ar
    27    90    91    1
    28   162   163    1
    29   162   159    1
    30   171   172    1
    31   172   173    1
    32   101   102    1
    33   101   100    1
    34   165   163   ar
    35    94    95    1
    36    91    92   ar
    37    99   100    1
    38    99    98    1
    39   163   164   ar
    40   159   158    1
    41   122   124   am
    42   122   123    2
    43   125   126    1
    44   127   126    1
    45   127   128    2
    46   173   174    1
    47    98    95    1
    48    80    79    2
    49   103   104    1
    50   103    96   am
    51    95    96    1
    52   107   109    1
    53   107   108    1
    54   107   104    1
    55    79    78    1
    56    77    78    1
    57   126   129    1
    58   105   104    1
    59   105   106    2
    60   145   146    1
    61   145   142    1
    62   148   146   ar
    63    96    97    2
    64   141   142    1
    65   129   130    1
    66    78    81    1
    67   143   142    1
    68   143   144    2
    69   146   147   ar
    70   132   130   ar
    71    73    72    2
    72   130   131   ar
    73    70    71    1
    74    84    83    2
    75    72    71    1
    76    81    82    1
    77    71    74    1
    78    82    83    1
    79    83    85   am
    80    51    50   ar
    81   112   111    1
    82   112   113    2
    83   110   111    1
    84   114   111    1
    85   114   115    1
    86    75    74    1
    87    74    76    1
    88    52    50   ar
    89    50    49    1
    90    35    34   ar
    91    49    46    1
    92    46    47    1
    93    46    45    1
    94    48    47    2
    95   157   156    1
    96    34    36   ar
    97    34    33    1
    98   156   155    1
    99    18    20   ar
   100    18    16   ar
   101    33    30    1
   102    20    19   ar
   103   155   154    1
   104    32    31    2
   105    16    15   ar
   106    58    57    1
   107   154   153    1
   108   152   151    2
   109    19    17   ar
   110    30    31    1
   111    30    29    1
   112    15    17   ar
   113    15    14    1
   114    31    37   am
   115     8     7    2
   116   151   150    1
   117    14    11    1
   118    69    67    1
   119    28    26    1
   120    53    54    1
   121    68    67    1
   122     9     7   am
   123   153   150    1
   124    57    54    1
   125    54    55    1
   126     7     6    1
   127    13    12    2
   128    67    66    2
   129    37    38    1
   130   150   149    1
   131    43    42   ar
   132    40    39    2
   133    11    12    1
   134    11    10    1
   135    12    21   am
   136    38    39    1
   137    38    41    1
   138    26    27    1
   139    26    25    1
   140    55    56    2
   141    21    22    1
   142    22    25    1
   143    22    23    1
   144     6     5    1
   145    66    65    1
   146     5     2    1
   147     2     1    1
   148     2     3    1
   149    42    41    1
   150    42    44   ar
   151    24    23    2
   152     4     3    2
   153    65    64    1
   154    60    63    1
   155    60    59    1
   156    60    61    1
   157    64    63    1
   158    61    62    2
