@<TRIPOS>MOLECULE
tmp/4kquA00.pdb
 160 151 0 0 0
SMALL
GASTEIGER

@<TRIPOS>ATOM
      1  N         36.6210   -7.3080   19.4720 N.3    43  GLY43      -0.1210
      2  CA        36.5290   -6.8800   18.0800 C.3    43  GLY43       0.1956
      3  C         36.7890   -5.3920   17.9200 C.2    43  GLY43       0.2612
      4  O         37.2270   -4.7310   18.8610 O.2    43  GLY43      -0.2717
      5  N         36.5120   -4.8500   16.7310 N.am   44  LYS44      -0.1965
      6  CA        36.7360   -3.4260   16.4310 C.3    44  LYS44       0.1728
      7  C         35.4920   -2.5790   16.7580 C.2    44  LYS44       0.2616
      8  O         35.5820   -1.3560   16.7680 O.2    44  LYS44      -0.2715
      9  CB        37.1260   -3.2370   14.9480 C.3    44  LYS44       0.0311
     10  CG        38.3640   -4.0250   14.4870 C.3    44  LYS44       0.0038
     11  CD        38.5950   -3.9470   12.9610 C.3    44  LYS44       0.0206
     12  CE        37.6440   -4.7790   12.1090 C.3    44  LYS44       0.1093
     13  NZ        37.7730   -6.2490   12.3620 N.3    44  LYS44      -0.1314
     14  N         34.3470   -3.2310   17.0300 N.am   45  TYR45      -0.1960
     15  CA        33.0400   -2.6250   17.3410 C.3    45  TYR45       0.1771
     16  C         32.5400   -1.6950   16.2240 C.2    45  TYR45       0.2620
     17  O         31.7130   -0.8420   16.5010 O.2    45  TYR45      -0.2715
     18  CB        33.0520   -1.8720   18.6850 C.3    45  TYR45       0.0574
     19  CG        33.6920   -2.6710   19.7930 C.ar   45  TYR45      -0.0198
     20  CD1       33.0640   -3.7980   20.3160 C.ar   45  TYR45      -0.0009
     21  CD2       34.9510   -2.3320   20.2910 C.ar   45  TYR45      -0.0009
     22  CE1       33.6610   -4.5650   21.3070 C.ar   45  TYR45       0.0417
     23  CE2       35.5710   -3.1110   21.2710 C.ar   45  TYR45       0.0417
     24  CZ        34.9120   -4.2200   21.7840 C.ar   45  TYR45       0.1957
     25  OH        35.4560   -4.9950   22.7780 O.3    45  TYR45      -0.2866
     26  N         32.9950   -1.8900   14.9620 N.am   46  ASN46      -0.1958
     27  CA        32.5740   -1.0660   13.8160 C.3    46  ASN46       0.1819
     28  C         31.0640   -1.0070   13.6260 C.2    46  ASN46       0.2621
     29  O         30.5590    0.0550   13.2890 O.2    46  ASN46      -0.2715
     30  CB        33.1730   -1.5750   12.5110 C.3    46  ASN46       0.1195
     31  CG        34.6260   -1.2770   12.2840 C.2    46  ASN46       0.2630
     32  OD1       35.2260   -0.3890   12.9070 O.2    46  ASN46      -0.2716
     33  ND2       35.1990   -1.9950   11.3290 N.am   46  ASN46      -0.0877
     34  N         30.3530   -2.1430   13.7990 N.am   47  ARG47      -0.1977
     35  CA        28.8970   -2.2130   13.5960 C.3    47  ARG47       0.1597
     36  C         28.1510   -1.4590   14.7010 C.2    47  ARG47       0.2287
     37  O         27.2560   -0.6660   14.4110 O.2    47  ARG47      -0.2864
     38  CB        28.4240   -3.6770   13.5430 C.3    47  ARG47       0.0334
     39  CG        28.9930   -4.5080   12.3970 C.3    47  ARG47       0.0492
     40  CD        28.9110   -5.9930   12.7750 C.3    47  ARG47       0.2205
     41  NE        29.4860   -6.8610   11.7450 N.pl3  47  ARG47      -0.0865
     42  CZ        30.7850   -7.1130   11.6240 C.cat  47  ARG47       0.5346
     43  NH1       31.6460   -6.6190   12.4980 N.pl3  47  ARG47       0.1354
     44  NH2       31.2250   -7.9040   10.6600 N.pl3  47  ARG47       0.1354
     45  N         26.2520   -5.9160   17.7350 N.3    80  GLU80      -0.1245
     46  CA        27.4670   -6.6240   18.1770 C.3    80  GLU80       0.1567
     47  C         27.1170   -8.0440   18.6540 C.2    80  GLU80       0.2260
     48  O         27.8740   -8.9810   18.4140 O.2    80  GLU80      -0.2867
     49  CB        28.1850   -5.8560   19.3070 C.3    80  GLU80       0.0388
     50  CG        28.9520   -4.6090   18.8580 C.3    80  GLU80       0.1160
     51  CD        30.0310   -4.8030   17.8080 C.2    80  GLU80       0.3649
     52  OE1       30.7950   -5.7910   17.9030 O.co2  80  GLU80      -0.2457
     53  OE2       30.0820   -3.9890   16.8610 O.co2  80  GLU80      -0.2457
     54  N         26.4870  -10.2640   15.6150 N.3    83  GLN83      -0.1245
     55  CA        27.8050  -10.6360   15.1180 C.3    83  GLN83       0.1566
     56  C         28.3980  -11.7620   15.9950 C.2    83  GLN83       0.2260
     57  O         28.8770  -12.7530   15.4590 O.2    83  GLN83      -0.2867
     58  CB        28.7270   -9.3880   15.0930 C.3    83  GLN83       0.0367
     59  CG        30.2200   -9.6990   14.9190 C.3    83  GLN83       0.0905
     60  CD        30.6420   -9.9370   13.4880 C.2    83  GLN83       0.2608
     61  OE1       29.8530  -10.3530   12.6150 O.2    83  GLN83      -0.2717
     62  NE2       31.9130   -9.6540   13.2140 N.am   83  GLN83      -0.0878
     63  N         29.5330  -15.5440   14.7870 N.3    87  LEU87      -0.1245
     64  CA        30.9540  -15.8810   14.8480 C.3    87  LEU87       0.1561
     65  C         31.2000  -17.1450   15.6690 C.2    87  LEU87       0.2260
     66  O         32.0260  -17.9600   15.2690 O.2    87  LEU87      -0.2867
     67  CB        31.7880  -14.7140   15.4050 C.3    87  LEU87       0.0270
     68  CG        31.8760  -13.4100   14.5510 C.3    87  LEU87       0.0019
     69  CD1       32.9910  -12.4970   15.0640 C.3    87  LEU87       0.0001
     70  CD2       32.0430  -13.6980   13.0370 C.3    87  LEU87       0.0001
     71  N         40.0270  -16.5090   17.4670 N.3    99  ARG99      -0.1231
     72  CA        39.1230  -15.4070   17.1700 C.3    99  ARG99       0.1694
     73  C         39.4200  -14.2620   18.1080 C.2    99  ARG99       0.2591
     74  O         39.4690  -14.4680   19.3320 O.2    99  ARG99      -0.2718
     75  CB        37.6620  -15.8730   17.3110 C.3    99  ARG99       0.0321
     76  CG        36.5970  -14.7550   17.2920 C.3    99  ARG99       0.0489
     77  CD        36.3710  -14.1840   15.9060 C.3    99  ARG99       0.2205
     78  NE        35.8620  -15.2000   14.9790 N.pl3  99  ARG99      -0.0865
     79  CZ        35.6300  -14.9760   13.6920 C.cat  99  ARG99       0.5346
     80  NH1       35.8320  -13.7720   13.1750 N.pl3  99  ARG99       0.1354
     81  NH2       35.1720  -15.9470   12.9160 N.pl3  99  ARG99       0.1354
     82  N         39.5830  -13.0380   17.5330 N.am  100  ARG100     -0.1980
     83  CA        39.8410  -11.7880   18.2610 C.3   100  ARG100      0.1597
     84  C         41.0040  -11.9550   19.2640 C.2   100  ARG100      0.2287
     85  O         40.8910  -11.5860   20.4370 O.2   100  ARG100     -0.2864
     86  CB        38.5500  -11.2900   18.9580 C.3   100  ARG100      0.0334
     87  CG        37.5040  -10.7550   17.9780 C.3   100  ARG100      0.0492
     88  CD        36.1170  -10.7790   18.5780 C.3   100  ARG100      0.2205
     89  NE        35.1130  -10.2410   17.6660 N.pl3 100  ARG100     -0.0865
     90  CZ        33.8380  -10.0410   17.9820 C.cat 100  ARG100      0.5346
     91  NH1       33.3950  -10.3240   19.2000 N.pl3 100  ARG100      0.1354
     92  NH2       33.0050   -9.5220   17.0970 N.pl3 100  ARG100      0.1354
     93  N         25.9170  -13.6020    3.3370 N.3   187  LYS187     -0.1231
     94  CA        26.6550  -13.9640    4.5570 C.3   187  LYS187      0.1693
     95  C         27.3340  -12.7840    5.2620 C.2   187  LYS187      0.2592
     96  O         27.5720  -12.8870    6.4600 O.2   187  LYS187     -0.2718
     97  CB        27.6750  -15.0970    4.3160 C.3   187  LYS187      0.0285
     98  CG        29.0020  -14.6880    3.6750 C.3   187  LYS187      0.0035
     99  CD        30.0760  -15.7300    3.9500 C.3   187  LYS187      0.0206
    100  CE        31.4010  -15.3360    3.3250 C.3   187  LYS187      0.1093
    101  NZ        32.4490  -16.3680    3.5570 N.3   187  LYS187     -0.1314
    102  N         27.6200  -11.6820    4.5560 N.am  188  THR188     -0.1953
    103  CA        28.3060  -10.5520    5.1720 C.3   188  THR188      0.1897
    104  C         27.5920   -9.2200    5.0040 C.2   188  THR188      0.2313
    105  O         27.3850   -8.5330    6.0080 O.2   188  THR188     -0.2863
    106  CB        29.7430  -10.4440    4.5930 C.3   188  THR188      0.1794
    107  OG1       30.4600  -11.5660    5.0580 O.3   188  THR188     -0.2208
    108  CG2       30.4940   -9.1600    5.0170 C.3   188  THR188      0.0378
    109  N         26.3560   -6.9860    8.2680 N.3   192  SER192     -0.1217
    110  CA        27.4870   -6.1900    8.7460 C.3   192  SER192      0.1889
    111  C         27.4360   -4.7540    8.2500 C.2   192  SER192      0.2288
    112  O         28.0250   -3.9050    8.8920 O.2   192  SER192     -0.2866
    113  CB        28.8250   -6.8110    8.3450 C.3   192  SER192      0.2089
    114  OG        28.9780   -8.1160    8.8820 O.3   192  SER192     -0.2183
    115  N         34.3120   -5.4540    1.7530 N.3   226  PHE226     -0.1227
    116  CA        34.7370   -5.8660    3.0810 C.3   226  PHE226      0.1736
    117  C         35.0060   -7.3740    3.1570 C.2   226  PHE226      0.2595
    118  O         35.9650   -7.7750    3.8110 O.2   226  PHE226     -0.2718
    119  CB        33.6840   -5.4840    4.1110 C.3   226  PHE226      0.0547
    120  CG        34.1510   -5.6440    5.5370 C.ar  226  PHE226     -0.0202
    121  CD1       35.0640   -4.7550    6.0900 C.ar  226  PHE226     -0.0042
    122  CD2       33.6910   -6.6940    6.3220 C.ar  226  PHE226     -0.0042
    123  CE1       35.5110   -4.9150    7.4010 C.ar  226  PHE226     -0.0003
    124  CE2       34.1280   -6.8430    7.6350 C.ar  226  PHE226     -0.0003
    125  CZ        35.0370   -5.9560    8.1660 C.ar  226  PHE226     -0.0000
    126  N         34.1660   -8.2050    2.4980 N.am  227  GLN227     -0.1979
    127  CA        34.3730   -9.6560    2.5100 C.3   227  GLN227      0.1601
    128  C         35.5710  -10.0430    1.6320 C.2   227  GLN227      0.2287
    129  O         36.2670  -11.0010    1.9630 O.2   227  GLN227     -0.2864
    130  CB        33.1190  -10.4240    2.0830 C.3   227  GLN227      0.0394
    131  CG        33.2070  -11.9440    2.3230 C.3   227  GLN227      0.0908
    132  CD        33.5750  -12.3310    3.7300 C.2   227  GLN227      0.2608
    133  OE1       33.0230  -11.8310    4.7110 O.2   227  GLN227     -0.2717
    134  NE2       34.5140  -13.2400    3.8540 N.am  227  GLN227     -0.0878
    135  N         38.4510   -9.4640    3.8040 N.3   230  ASP230     -0.1239
    136  CA        38.4430  -10.5500    4.7840 C.3   230  ASP230      0.1674
    137  C         39.0700  -11.8060    4.1760 C.2   230  ASP230      0.2266
    138  O         39.8950  -12.4330    4.8350 O.2   230  ASP230     -0.2867
    139  CB        37.0190  -10.8470    5.2970 C.3   230  ASP230      0.1410
    140  CG        36.9760  -11.9330    6.3720 C.2   230  ASP230      0.3668
    141  OD1       37.4550  -11.6790    7.4880 O.co2 230  ASP230     -0.2456
    142  OD2       36.4660  -13.0300    6.0860 O.co2 230  ASP230     -0.2456
    143  N         42.8320  -13.7580   14.2630 N.3   244  LYS244     -0.1245
    144  CA        42.3300  -15.0710   13.8540 C.3   244  LYS244      0.1561
    145  C         43.2840  -15.7340   12.8380 C.2   244  LYS244      0.2260
    146  O         44.0580  -15.0570   12.1400 O.2   244  LYS244     -0.2867
    147  CB        40.8780  -14.9650   13.2950 C.3   244  LYS244      0.0271
    148  CG        40.7040  -14.0700   12.0560 C.3   244  LYS244      0.0035
    149  CD        39.2200  -13.7880   11.7090 C.3   244  LYS244      0.0206
    150  CE        39.0910  -12.9130   10.4720 C.3   244  LYS244      0.1093
    151  NZ        37.6860  -12.4850   10.1750 N.3   244  LYS244     -0.1314
    152  N         43.1160   -5.3340    9.5470 N.3   340  LYS340     -0.1245
    153  CA        42.5170   -5.9230   10.7480 C.3   340  LYS340      0.1561
    154  C         41.0010   -6.1000   10.5460 C.2   340  LYS340      0.2260
    155  O         40.4580   -7.1310   10.9920 O.2   340  LYS340     -0.2867
    156  CB        42.8050   -4.9950   11.9510 C.3   340  LYS340      0.0271
    157  CG        42.3890   -5.5280   13.3090 C.3   340  LYS340      0.0035
    158  CD        42.5650   -4.4770   14.3930 C.3   340  LYS340      0.0206
    159  CE        42.0360   -4.9440   15.7280 C.3   340  LYS340      0.1093
    160  NZ        42.0170   -3.8450   16.7290 N.3   340  LYS340     -0.1314
@<TRIPOS>BOND
     1   128   129    2
     2   128   127    1
     3   115   116    1
     4   130   131    1
     5   130   127    1
     6   131   132    1
     7   126   127    1
     8   126   117   am
     9   116   117    1
    10   116   119    1
    11   117   118    2
    12   100   101    1
    13   100    99    1
    14    93    94    1
    15    98    99    1
    16    98    97    1
    17   132   134   am
    18   132   133    2
    19   135   136    1
    20   119   120    1
    21   137   136    1
    22   137   138    2
    23    97    94    1
    24   102   103    1
    25   102    95   am
    26    94    95    1
    27   106   108    1
    28   106   107    1
    29   106   103    1
    30   136   139    1
    31   104   103    1
    32   104   105    2
    33    95    96    2
    34   139   140    1
    35   120   121   ar
    36   120   122   ar
    37   142   140   ar
    38   121   123   ar
    39   122   124   ar
    40   140   141   ar
    41   123   125   ar
    42   124   125   ar
    43   111   110    1
    44   111   112    2
    45   109   110    1
    46   113   110    1
    47   113   114    1
    48   152   153    1
    49   151   150    1
    50   150   149    1
    51   154   153    1
    52   154   155    2
    53    44    42    1
    54   153   156    1
    55    33    31   am
    56    42    41    2
    57    42    43    1
    58   149   148    1
    59    41    40    1
    60   156   157    1
    61   148   147    1
    62    12    13    1
    63    12    11    1
    64   146   145    2
    65    31    30    1
    66    31    32    2
    67    39    40    1
    68    39    38    1
    69    30    27    1
    70    61    60    2
    71   145   144    1
    72    81    79    1
    73    11    10    1
    74    70    68    1
    75    80    79    1
    76    62    60   am
    77    29    28    2
    78   147   144    1
    79   157   158    1
    80    60    59    1
    81    38    35    1
    82    35    34    1
    83    35    36    1
    84    28    34   am
    85    28    27    1
    86    79    78    2
    87    27    26    1
    88   144   143    1
    89   158   159    1
    90    37    36    2
    91    10     9    1
    92    68    69    1
    93    68    67    1
    94    63    64    1
    95    64    67    1
    96    64    65    1
    97    59    58    1
    98     9     6    1
    99    26    16   am
   100    78    77    1
   101    58    55    1
   102    55    54    1
   103    55    56    1
   104    66    65    2
   105    57    56    2
   106   159   160    1
   107    77    76    1
   108    16    17    2
   109    16    15    1
   110     6     5    1
   111     6     7    1
   112     5     3   am
   113     7     8    2
   114     7    14   am
   115    53    51   ar
   116    14    15    1
   117    92    90    1
   118    72    75    1
   119    72    71    1
   120    72    73    1
   121    76    75    1
   122    15    18    1
   123    82    73   am
   124    82    83    1
   125    89    90    2
   126    89    88    1
   127    45    46    1
   128    51    52   ar
   129    51    50    1
   130     3     2    1
   131     3     4    2
   132    87    88    1
   133    87    86    1
   134    90    91    1
   135     2     1    1
   136    73    74    2
   137    46    47    1
   138    46    49    1
   139    83    86    1
   140    83    84    1
   141    48    47    2
   142    18    19    1
   143    50    49    1
   144    84    85    2
   145    19    21   ar
   146    19    20   ar
   147    21    23   ar
   148    20    22   ar
   149    23    24   ar
   150    22    24   ar
   151    24    25    1
