@<TRIPOS>MOLECULE
tmp/4kqvA00.pdb
 138 129 0 0 0
SMALL
GASTEIGER

@<TRIPOS>ATOM
      1  N         12.3040   15.7640    0.4930 N.3    32  ILE32      -0.1245
      2  CA        11.8540   17.0400   -0.0490 C.3    32  ILE32       0.1561
      3  C         11.0050   17.8250    0.9500 C.2    32  ILE32       0.2260
      4  O         11.2140   19.0200    1.1240 O.2    32  ILE32      -0.2867
      5  CB        11.1360   16.8860   -1.4150 C.3    32  ILE32       0.0252
      6  CG1       12.0220   16.0890   -2.3810 C.3    32  ILE32       0.0019
      7  CG2       10.8050   18.2520   -1.9920 C.3    32  ILE32       0.0019
      8  CD1       13.2380   16.8520   -2.8790 C.3    32  ILE32       0.0001
      9  N         13.1500   19.6430    3.7120 N.3    35  ASN35      -0.1225
     10  CA        13.8090   20.8640    3.2990 C.3    35  ASN35       0.1785
     11  C         12.8430   22.0420    3.3270 C.2    35  ASN35       0.2597
     12  O         13.1620   23.1550    3.8000 O.2    35  ASN35      -0.2718
     13  CB        14.3880   20.6860    1.8810 C.3    35  ASN35       0.1169
     14  CG        15.6740   19.8990    1.8860 C.2    35  ASN35       0.2627
     15  OD1       16.7460   20.4730    1.8570 O.2    35  ASN35      -0.2716
     16  ND2       15.5710   18.5760    1.9800 N.am   35  ASN35      -0.0877
     17  N         11.6530   21.7830    2.8040 N.am   36  SER36      -0.1952
     18  CA        10.5960   22.7650    2.7730 C.3    36  SER36       0.1924
     19  C         10.1460   23.0630    4.2260 C.2    36  SER36       0.2314
     20  O          9.8340   24.2060    4.5720 O.2    36  SER36      -0.2863
     21  CB         9.4670   22.2300    1.8850 C.3    36  SER36       0.2116
     22  OG         8.3950   23.1230    1.8410 O.3    36  SER36      -0.2180
     23  N         12.2510   23.0160    6.8440 N.3    38  ASP38      -0.1225
     24  CA        13.2960   23.9240    7.3320 C.3    38  ASP38       0.1805
     25  C         13.0440   25.3900    6.9580 C.2    38  ASP38       0.2597
     26  O         13.3780   26.2910    7.7130 O.2    38  ASP38      -0.2718
     27  CB        14.6850   23.4780    6.8680 C.3    38  ASP38       0.1424
     28  CG        15.3090   22.4520    7.8010 C.2    38  ASP38       0.3668
     29  OD1       15.2280   22.6360    9.0380 O.co2  38  ASP38      -0.2456
     30  OD2       15.8900   21.4600    7.3030 O.co2  38  ASP38      -0.2456
     31  N         12.4360   25.6190    5.7970 N.am   39  GLU39      -0.1979
     32  CA        12.0770   26.9580    5.3880 C.3    39  GLU39       0.1602
     33  C         10.8450   27.4930    6.1400 C.2    39  GLU39       0.2287
     34  O         10.7610   28.6920    6.4050 O.2    39  GLU39      -0.2864
     35  CB        11.9330   27.0390    3.8570 C.3    39  GLU39       0.0415
     36  CG        11.8220   28.4570    3.2960 C.3    39  GLU39       0.1163
     37  CD        13.0760   29.3150    3.4400 C.2    39  GLU39       0.3649
     38  OE1       13.0250   30.4690    2.9670 O.co2  39  GLU39      -0.2457
     39  OE2       14.1170   28.8670    3.9910 O.co2  39  GLU39      -0.2457
     40  N          6.4240   18.8450   -4.8850 N.3    60  VAL60      -0.1231
     41  CA         6.3020   19.5550   -3.6060 C.3    60  VAL60       0.1692
     42  C          6.6430   21.0410   -3.8200 C.2    60  VAL60       0.2592
     43  O          7.6890   21.3550   -4.3890 O.2    60  VAL60      -0.2718
     44  CB         7.2410   18.9690   -2.5110 C.3    60  VAL60       0.0266
     45  CG1        6.9540   19.6210   -1.1670 C.3    60  VAL60       0.0020
     46  CG2        7.1210   17.4400   -2.3960 C.3    60  VAL60       0.0020
     47  N          5.7790   21.9410   -3.3560 N.am   61  ALA61      -0.1966
     48  CA         6.0060   23.3680   -3.5080 C.3    61  ALA61       0.1728
     49  C          5.8620   24.1470   -2.2090 C.2    61  ALA61       0.2616
     50  O          4.9770   23.8760   -1.3990 O.2    61  ALA61      -0.2715
     51  CB         5.0520   23.9490   -4.5550 C.3    61  ALA61       0.0334
     52  N          6.7160   25.1450   -2.0200 N.am   62  ASP62      -0.1971
     53  CA         6.5460   26.0330   -0.8750 C.3    62  ASP62       0.1709
     54  C          6.5480   27.5080   -1.3100 C.2    62  ASP62       0.2293
     55  O          6.8140   27.8070   -2.4750 O.2    62  ASP62      -0.2864
     56  CB         7.5740   25.7170    0.2200 C.3    62  ASP62       0.1436
     57  CG         8.9750   26.0890   -0.1790 C.2    62  ASP62       0.3671
     58  OD1        9.1780   27.2460   -0.5870 O.co2  62  ASP62      -0.2456
     59  OD2        9.8800   25.2330   -0.0980 O.co2  62  ASP62      -0.2456
     60  N         11.6910   31.5330    0.5830 N.3    65  ARG65      -0.1231
     61  CA        12.5370   32.5190   -0.1280 C.3    65  ARG65       0.1694
     62  C         12.9940   32.0490   -1.5030 C.2    65  ARG65       0.2593
     63  O         13.3890   32.8730   -2.3300 O.2    65  ARG65      -0.2718
     64  CB        13.7640   32.9370    0.7030 C.3    65  ARG65       0.0321
     65  CG        13.4340   33.6660    2.0020 C.3    65  ARG65       0.0489
     66  CD        14.6200   33.6720    2.9540 C.3    65  ARG65       0.2205
     67  NE        14.9210   32.3500    3.4970 N.pl3  65  ARG65      -0.0865
     68  CZ        15.8450   32.1020    4.4270 C.cat  65  ARG65       0.5346
     69  NH1       16.5790   33.0800    4.9310 N.pl3  65  ARG65       0.1354
     70  NH2       16.0420   30.8670    4.8590 N.pl3  65  ARG65       0.1354
     71  N         12.9450   30.7370   -1.7320 N.am   66  GLY66      -0.1942
     72  CA        13.4540   30.1260   -2.9540 C.3    66  GLY66       0.2014
     73  C         14.8930   29.6730   -2.7720 C.2    66  GLY66       0.2639
     74  O         15.7230   30.4270   -2.2340 O.2    66  GLY66      -0.2714
     75  N         15.1690   28.4420   -3.2050 N.am   67  MET67      -0.1963
     76  CA        16.5160   27.8730   -3.1510 C.3    67  MET67       0.1722
     77  C         17.5020   28.7940   -3.8750 C.2    67  MET67       0.2458
     78  O         17.2690   29.1850   -5.0280 O.2    67  MET67      -0.2730
     79  CB        16.5410   26.4500   -3.7420 C.3    67  MET67       0.0427
     80  CG        17.9350   25.8640   -3.9570 C.3    67  MET67       0.0599
     81  SD        18.8360   25.4610   -2.4410 S.3    67  MET67      -0.1393
     82  CE        20.5230   25.5730   -3.0260 C.3    67  MET67       0.0692
     83  N         18.6020   29.1680   -3.1970 N.am   68  PRO68      -0.2727
     84  CA        19.5270   30.1450   -3.8040 C.3    68  PRO68       0.1402
     85  C         20.0980   29.6580   -5.1270 C.2    68  PRO68       0.2269
     86  O         20.3320   28.4680   -5.2810 O.2    68  PRO68      -0.2865
     87  CB        20.6490   30.2470   -2.7670 C.3    68  PRO68       0.0296
     88  CG        20.0030   29.8660   -1.4860 C.3    68  PRO68       0.0237
     89  CD        19.0820   28.7420   -1.8690 C.3    68  PRO68       0.0939
     90  N         23.5830   21.7100   -4.9280 N.3    83  ILE83      -0.1231
     91  CA        22.8930   20.9090   -3.9230 C.3    83  ILE83       0.1692
     92  C         22.2390   19.6590   -4.5350 C.2    83  ILE83       0.2591
     93  O         22.1410   18.6180   -3.8820 O.2    83  ILE83      -0.2718
     94  CB        21.9330   21.7690   -3.0560 C.3    83  ILE83       0.0266
     95  CG1       21.8560   21.2010   -1.6290 C.3    83  ILE83       0.0019
     96  CG2       20.5850   21.9550   -3.7390 C.3    83  ILE83       0.0020
     97  CD1       20.8040   21.8310   -0.7340 C.3    83  ILE83       0.0001
     98  N         21.8570   19.7380   -5.8130 N.am   84  MET84      -0.1979
     99  CA        21.1940   18.6160   -6.4700 C.3    84  MET84       0.1605
    100  C         22.1240   17.5120   -6.9530 C.2    84  MET84       0.2287
    101  O         21.6800   16.3660   -7.1150 O.2    84  MET84      -0.2864
    102  CB        20.3510   19.1040   -7.6530 C.3    84  MET84       0.0413
    103  CG        18.9870   19.6680   -7.2670 C.3    84  MET84       0.0598
    104  SD        18.0530   18.4290   -6.3480 S.3    84  MET84      -0.1393
    105  CE        16.6310   19.3800   -5.8050 C.3    84  MET84       0.0692
    106  N         18.8020   16.4930   -0.6720 N.3    99  VAL99      -0.1245
    107  CA        17.9580   16.3250   -1.8620 C.3    99  VAL99       0.1561
    108  C         18.6780   15.6430   -3.0360 C.2    99  VAL99       0.2260
    109  O         18.0260   15.1110   -3.9270 O.2    99  VAL99      -0.2867
    110  CB        17.3140   17.6700   -2.3140 C.3    99  VAL99       0.0252
    111  CG1       16.3670   18.2050   -1.2410 C.3    99  VAL99       0.0019
    112  CG2       18.3610   18.7190   -2.6740 C.3    99  VAL99       0.0019
    113  N         12.4980   33.7630   -7.1770 N.3   115  ARG115     -0.1245
    114  CA        13.1870   34.7380   -6.3170 C.3   115  ARG115      0.1563
    115  C         13.4710   35.9820   -7.1290 C.2   115  ARG115      0.2260
    116  O         13.6770   35.9030   -8.3550 O.2   115  ARG115     -0.2867
    117  CB        14.5820   34.2850   -5.8670 C.3   115  ARG115      0.0307
    118  CG        14.7650   32.9620   -5.1730 C.3   115  ARG115      0.0489
    119  CD        16.2590   32.6190   -5.1300 C.3   115  ARG115      0.2205
    120  NE        17.0720   33.6810   -4.5340 N.pl3 115  ARG115     -0.0865
    121  CZ        17.3410   33.7900   -3.2270 C.cat 115  ARG115      0.5346
    122  NH1       16.8500   32.9160   -2.3560 N.pl3 115  ARG115      0.1354
    123  NH2       18.0920   34.7870   -2.7760 N.pl3 115  ARG115      0.1354
    124  N          9.9890   27.5990   -3.9310 N.3   146  THR146     -0.1218
    125  CA        10.7190   26.4900   -4.5050 C.3   146  THR146      0.1862
    126  C          9.7000   25.4040   -4.8160 C.2   146  THR146      0.2287
    127  O          8.8170   25.1140   -3.9960 O.2   146  THR146     -0.2866
    128  CB        11.7350   25.8910   -3.5020 C.3   146  THR146      0.1770
    129  OG1       12.5860   26.9130   -2.9640 O.3   146  THR146     -0.2211
    130  CG2       12.5800   24.8160   -4.1620 C.3   146  THR146      0.0375
    131  N          9.6250   21.4420   -6.6510 N.3   148  ILE148     -0.1245
    132  CA        10.4240   20.3250   -7.1230 C.3   148  ILE148      0.1561
    133  C          9.4640   19.2590   -7.5920 C.2   148  ILE148      0.2260
    134  O          8.5670   18.8740   -6.8400 O.2   148  ILE148     -0.2867
    135  CB        11.2720   19.6890   -5.9870 C.3   148  ILE148      0.0252
    136  CG1       12.2120   20.7090   -5.3170 C.3   148  ILE148      0.0019
    137  CG2       11.9990   18.4410   -6.4830 C.3   148  ILE148      0.0019
    138  CD1       13.2090   21.4090   -6.2230 C.3   148  ILE148      0.0001
@<TRIPOS>BOND
     1   116   115    2
     2   102   103    1
     3   102    99    1
     4   133   132    1
     5   133   134    2
     6   103   104    1
     7   113   114    1
     8   115   114    1
     9   132   131    1
    10   132   135    1
    11   101   100    2
    12   100    99    1
    13   137   135    1
    14    99    98    1
    15   104   105    1
    16   114   117    1
    17   138   136    1
    18   135   136    1
    19   117   118    1
    20    98    92   am
    21    86    85    2
    22   118   119    1
    23   119   120    1
    24    85    84    1
    25    78    77    2
    26    90    91    1
    27    40    41    1
    28   126   125    1
    29   126   127    2
    30    51    48    1
    31    92    91    1
    32    92    93    2
    33   120   121    2
    34   125   124    1
    35   125   128    1
    36    43    42    2
    37   130   128    1
    38    80    79    1
    39    80    81    1
    40   109   108    2
    41    91    94    1
    42    77    83   am
    43    77    76    1
    44    42    41    1
    45    42    47   am
    46    84    83    1
    47    84    87    1
    48    79    76    1
    49    96    94    1
    50    41    44    1
    51    48    47    1
    52    48    49    1
    53   128   129    1
    54   121   123    1
    55   121   122    1
    56    75    76    1
    57    75    73   am
    58    83    89    1
    59    94    95    1
    60   108   107    1
    61    82    81    1
    62    72    73    1
    63    72    71    1
    64     8     6    1
    65    73    74    2
    66    87    88    1
    67   112   110    1
    68    44    46    1
    69    44    45    1
    70    55    54    2
    71     6     5    1
    72    63    62    2
    73   110   107    1
    74   110   111    1
    75    49    52   am
    76    49    50    2
    77    52    53    1
    78     7     5    1
    79    89    88    1
    80   107   106    1
    81    71    62   am
    82    95    97    1
    83    62    61    1
    84     5     2    1
    85    54    53    1
    86    53    56    1
    87    58    57   ar
    88    57    59   ar
    89    57    56    1
    90    61    60    1
    91    61    64    1
    92     2     1    1
    93     2     3    1
    94    64    65    1
    95     3     4    2
    96    22    21    1
    97    15    14    2
    98    13    14    1
    99    13    10    1
   100    21    18    1
   101    14    16   am
   102    65    66    1
   103    18    17    1
   104    18    19    1
   105    17    11   am
   106    66    67    1
   107    38    37   ar
   108    36    37    1
   109    36    35    1
   110    10    11    1
   111    10     9    1
   112    11    12    2
   113    37    39   ar
   114    67    68    2
   115    35    32    1
   116    19    20    2
   117    68    70    1
   118    68    69    1
   119    32    31    1
   120    32    33    1
   121    31    25   am
   122    33    34    2
   123    23    24    1
   124    27    24    1
   125    27    28    1
   126    25    24    1
   127    25    26    2
   128    30    28   ar
   129    28    29   ar
