@<TRIPOS>MOLECULE
tmp/4kqxB01.pdb
 85 81 0 0 0
SMALL
GASTEIGER

@<TRIPOS>ATOM
      1  N         15.2830   26.7810  -17.8600 N.3    29  GLN29      -0.1245
      2  CA        15.4060   26.8470  -19.3050 C.3    29  GLN29       0.1566
      3  C         16.7690   27.3910  -19.7660 C.2    29  GLN29       0.2260
      4  O         17.2750   26.8830  -20.7590 O.2    29  GLN29      -0.2867
      5  CB        14.3010   27.7090  -19.8550 C.3    29  GLN29       0.0367
      6  CG        12.9480   26.9810  -19.7820 C.3    29  GLN29       0.0905
      7  CD        12.8390   25.6560  -20.5550 C.2    29  GLN29       0.2608
      8  OE1       13.1090   25.5900  -21.7260 O.2    29  GLN29      -0.2717
      9  NE2       12.3440   24.6140  -19.8990 N.am   29  GLN29      -0.0878
     10  N          9.0070   35.1090  -15.7970 N.3    84  ASP84      -0.1239
     11  CA         8.0880   35.8360  -16.6530 C.3    84  ASP84       0.1674
     12  C          7.8350   37.2080  -16.0670 C.2    84  ASP84       0.2266
     13  O          7.7930   38.2100  -16.7940 O.2    84  ASP84      -0.2867
     14  CB         6.7830   35.0460  -16.8110 C.3    84  ASP84       0.1410
     15  CG         6.9790   33.8350  -17.6930 C.2    84  ASP84       0.3668
     16  OD1        7.3150   34.0510  -18.8980 O.co2  84  ASP84      -0.2456
     17  OD2        6.8890   32.6770  -17.2200 O.co2  84  ASP84      -0.2456
     18  N          8.0920   31.1340  -23.7150 N.3   109  HIS109     -0.1241
     19  CA         6.6350   31.0450  -23.3250 C.3   109  HIS109      0.1621
     20  C          5.9680   32.3220  -23.7630 C.2   109  HIS109      0.2264
     21  O          6.5860   33.3620  -23.7830 O.2   109  HIS109     -0.2867
     22  CB         6.5680   30.8270  -21.7930 C.3   109  HIS109      0.0745
     23  CG         5.1820   30.9340  -21.1490 C.ar  109  HIS109      0.0817
     24  ND1        4.0750   30.2660  -21.6170 N.ar  109  HIS109     -0.2268
     25  CD2        4.8000   31.5130  -19.9330 C.ar  109  HIS109      0.1154
     26  CE1        3.0220   30.4750  -20.7900 C.ar  109  HIS109      0.1986
     27  NE2        3.4290   31.2380  -19.7640 N.ar  109  HIS109     -0.2212
     28  N          9.7890   24.6450  -25.2140 N.3   131  PRO131     -0.2102
     29  CA         9.8130   23.2210  -24.8610 C.3   131  PRO131      0.1504
     30  C          8.6420   22.8630  -23.9100 C.2   131  PRO131      0.2576
     31  O          8.3260   23.6050  -22.9680 O.2   131  PRO131     -0.2718
     32  CB        11.1670   23.0610  -24.1400 C.3   131  PRO131      0.0282
     33  CG        11.9330   24.2110  -24.6960 C.3   131  PRO131      0.0208
     34  CD        10.9970   25.3400  -24.7310 C.3   131  PRO131      0.0893
     35  N          8.0380   21.7300  -24.1800 N.am  132  LYS132     -0.1966
     36  CA         6.9580   21.2060  -23.3590 C.3   132  LYS132      0.1728
     37  C          7.6390   20.2580  -22.3220 C.2   132  LYS132      0.2617
     38  O          7.4640   19.0270  -22.3410 O.2   132  LYS132     -0.2715
     39  CB         5.8970   20.5170  -24.2130 C.3   132  LYS132      0.0311
     40  CG         5.3900   21.3730  -25.3590 C.3   132  LYS132      0.0038
     41  CD         4.3870   22.4470  -24.8550 C.3   132  LYS132      0.0206
     42  CE         5.0800   23.8070  -24.6520 C.3   132  LYS132      0.1093
     43  NZ         4.0910   24.7730  -24.0370 N.3   132  LYS132     -0.1314
     44  N          8.5410   20.8570  -21.5040 N.am  133  GLY133     -0.1941
     45  CA         9.1610   20.1010  -20.4100 C.3   133  GLY133      0.1998
     46  C          9.9780   21.0190  -19.5370 C.2   133  GLY133      0.2480
     47  O         10.3120   22.1250  -19.9610 O.2   133  GLY133     -0.2729
     48  N         10.4190   20.5060  -18.3710 N.am  134  PRO134     -0.2726
     49  CA        11.2660   21.2850  -17.5110 C.3   134  PRO134      0.1402
     50  C         12.7490   21.3470  -17.9880 C.2   134  PRO134      0.2269
     51  O         13.2710   20.4340  -18.6430 O.2   134  PRO134     -0.2865
     52  CB        11.1260   20.5860  -16.1640 C.3   134  PRO134      0.0296
     53  CG        10.9160   19.1610  -16.5130 C.3   134  PRO134      0.0237
     54  CD         9.9510   19.2540  -17.7180 C.3   134  PRO134      0.0939
     55  N         -0.3150   25.9850  -22.3040 N.3   192  ASP192     -0.1239
     56  CA         0.8110   25.8430  -21.3860 C.3   192  ASP192      0.1674
     57  C          0.3720   26.1650  -19.9410 C.2   192  ASP192      0.2266
     58  O          0.7110   25.4220  -19.0020 O.2   192  ASP192     -0.2867
     59  CB         1.9630   26.7510  -21.7900 C.3   192  ASP192      0.1410
     60  CG         3.2590   26.5450  -20.9210 C.2   192  ASP192      0.3668
     61  OD1        4.0040   25.6270  -21.1910 O.co2 192  ASP192     -0.2456
     62  OD2        3.5090   27.2410  -19.9230 O.co2 192  ASP192     -0.2456
     63  N          0.1210   23.1760  -16.8840 N.3   196  GLU196     -0.1245
     64  CA         0.8980   23.2290  -15.6430 C.3   196  GLU196      0.1567
     65  C         -0.0590   23.4280  -14.4960 C.2   196  GLU196      0.2260
     66  O         -0.0230   22.7400  -13.4820 O.2   196  GLU196     -0.2867
     67  CB         1.9380   24.3390  -15.6590 C.3   196  GLU196      0.0388
     68  CG         1.3520   25.7760  -15.7420 C.3   196  GLU196      0.1160
     69  CD         2.3540   26.7380  -16.3840 C.2   196  GLU196      0.3649
     70  OE1        3.0250   26.2980  -17.2680 O.co2 196  GLU196     -0.2457
     71  OE2        2.3470   27.9220  -16.0910 O.co2 196  GLU196     -0.2457
     72  N         -0.1780   18.9410  -14.8280 N.3   200  LEU200     -0.1231
     73  CA         1.2590   18.6300  -14.5400 C.3   200  LEU200      0.1693
     74  C          1.8530   19.0620  -13.1970 C.2   200  LEU200      0.2592
     75  O          2.7590   18.3220  -12.6450 O.2   200  LEU200     -0.2718
     76  CB         2.2050   19.2040  -15.5840 C.3   200  LEU200      0.0284
     77  CG         1.9740   18.8980  -17.0330 C.3   200  LEU200      0.0019
     78  CD1        2.6600   19.9310  -17.9280 C.3   200  LEU200      0.0001
     79  CD2        2.2410   17.4340  -17.3320 C.3   200  LEU200      0.0001
     80  N          1.3940   20.2020  -12.6780 N.am  201  CYS201     -0.1970
     81  CA         1.8850   20.7100  -11.3960 C.3   201  CYS201      0.1712
     82  C          0.8200   20.7920  -10.3060 C.2   201  CYS201      0.2296
     83  O          0.9150   20.0380   -9.3310 O.2   201  CYS201     -0.2864
     84  CB         2.6320   22.0070  -11.5920 C.3   201  CYS201      0.0983
     85  SG         3.8980   21.8690  -12.8770 S.3   201  CYS201     -0.0798
@<TRIPOS>BOND
     1    40    41    1
     2    40    39    1
     3    28    29    1
     4    28    34    1
     5    29    32    1
     6    29    30    1
     7    41    42    1
     8    34    33    1
     9    33    32    1
    10    42    43    1
    11    39    36    1
    12    35    30   am
    13    35    36    1
    14    30    31    2
    15    21    20    2
    16    20    19    1
    17    18    19    1
    18    36    37    1
    19    19    22    1
    20    38    37    2
    21    37    44   am
    22    55    56    1
    23    22    23    1
    24    59    56    1
    25    59    60    1
    26     8     7    2
    27    24    23   ar
    28    24    26   ar
    29    44    45    1
    30    56    57    1
    31    61    60   ar
    32    23    25   ar
    33    60    62   ar
    34    26    27   ar
    35     4     3    2
    36     7     9   am
    37     7     6    1
    38    45    46    1
    39    47    46    2
    40    57    58    2
    41    25    27   ar
    42     5     6    1
    43     5     2    1
    44     3     2    1
    45    46    48   am
    46     2     1    1
    47    16    15   ar
    48    51    50    2
    49    48    54    1
    50    48    49    1
    51    50    49    1
    52    78    77    1
    53    54    53    1
    54    15    17   ar
    55    15    14    1
    56    49    52    1
    57    79    77    1
    58    70    69   ar
    59    77    76    1
    60    63    64    1
    61    14    11    1
    62    13    12    2
    63    11    12    1
    64    11    10    1
    65    53    52    1
    66    69    71   ar
    67    69    68    1
    68    68    67    1
    69    67    64    1
    70    64    65    1
    71    76    73    1
    72    72    73    1
    73    73    74    1
    74    65    66    2
    75    74    80   am
    76    74    75    2
    77    85    84    1
    78    80    81    1
    79    84    81    1
    80    81    82    1
    81    82    83    2
