@<TRIPOS>MOLECULE
tmp/4kr2A00.pdb
 137 131 0 0 0
SMALL
GASTEIGER

@<TRIPOS>ATOM
      1  N         -8.7990   40.8200   25.6470 N.3   133  ARG133     -0.1245
      2  CA        -9.6850   40.2930   24.6180 C.3   133  ARG133      0.1563
      3  C        -10.1530   41.3980   23.6850 C.2   133  ARG133      0.2260
      4  O        -10.6980   42.4070   24.1280 O.2   133  ARG133     -0.2867
      5  CB       -10.8980   39.6100   25.2470 C.3   133  ARG133      0.0307
      6  CG       -10.5480   38.4270   26.1230 C.3   133  ARG133      0.0489
      7  CD       -11.7630   37.9080   26.8690 C.3   133  ARG133      0.2205
      8  NE       -11.3850   36.9460   27.9000 N.pl3 133  ARG133     -0.0865
      9  CZ       -11.1510   35.6590   27.6710 C.cat 133  ARG133      0.5346
     10  NH1      -11.2550   35.1740   26.4400 N.pl3 133  ARG133      0.1354
     11  NH2      -10.8110   34.8560   28.6720 N.pl3 133  ARG133      0.1354
     12  N        -12.7470   42.2470   22.1640 N.3   135  GLU135     -0.1245
     13  CA       -14.1900   42.1430   22.0170 C.3   135  GLU135      0.1567
     14  C        -14.6410   43.1520   20.9690 C.2   135  GLU135      0.2260
     15  O        -13.9930   44.1790   20.7730 O.2   135  GLU135     -0.2867
     16  CB       -14.8820   42.4200   23.3490 C.3   135  GLU135      0.0388
     17  CG       -14.3360   41.6210   24.5240 C.3   135  GLU135      0.1160
     18  CD       -14.9690   40.2490   24.6610 C.2   135  GLU135      0.3649
     19  OE1      -15.4700   39.7080   23.6520 O.co2 135  GLU135     -0.2457
     20  OE2      -14.9660   39.7110   25.7880 O.co2 135  GLU135     -0.2457
     21  N        -17.8470   47.5630   33.1300 N.3   142  LEU142     -0.1231
     22  CA       -16.8120   46.6230   33.5490 C.3   142  LEU142      0.1693
     23  C        -17.1390   45.1750   33.1910 C.2   142  LEU142      0.2592
     24  O        -16.2410   44.3400   33.0890 O.2   142  LEU142     -0.2718
     25  CB       -16.5600   46.7270   35.0560 C.3   142  LEU142      0.0284
     26  CG       -16.1230   48.0760   35.6260 C.3   142  LEU142      0.0019
     27  CD1      -15.6060   47.9100   37.0480 C.3   142  LEU142      0.0001
     28  CD2      -15.0740   48.7220   34.7400 C.3   142  LEU142      0.0001
     29  N        -18.4230   44.8820   33.0070 N.am  143  ILE143     -0.1966
     30  CA       -18.8740   43.5180   32.7340 C.3   143  ILE143      0.1727
     31  C        -18.2050   42.9190   31.4940 C.2   143  ILE143      0.2616
     32  O        -17.7600   41.7700   31.5090 O.2   143  ILE143     -0.2715
     33  CB       -20.4030   43.4540   32.5770 C.3   143  ILE143      0.0290
     34  CG1      -21.0890   44.1110   33.7780 C.3   143  ILE143      0.0022
     35  CG2      -20.8690   42.0140   32.4190 C.3   143  ILE143      0.0023
     36  CD1      -20.9580   43.3250   35.0630 C.3   143  ILE143      0.0001
     37  N        -18.1300   43.7020   30.4240 N.am  144  ARG144     -0.1963
     38  CA       -17.4260   43.2620   29.2280 C.3   144  ARG144      0.1729
     39  C        -16.4500   44.3260   28.7410 C.2   144  ARG144      0.2616
     40  O        -16.8350   45.2720   28.0510 O.2   144  ARG144     -0.2715
     41  CB       -18.4120   42.8770   28.1230 C.3   144  ARG144      0.0348
     42  CG       -17.7610   42.2450   26.9050 C.3   144  ARG144      0.0492
     43  CD       -18.8030   41.8060   25.8910 C.3   144  ARG144      0.2205
     44  NE       -19.5620   40.6480   26.3540 N.pl3 144  ARG144     -0.0865
     45  CZ       -19.1670   39.3890   26.1970 C.cat 144  ARG144      0.5346
     46  NH1      -19.9190   38.3940   26.6490 N.pl3 144  ARG144      0.1354
     47  NH2      -18.0180   39.1280   25.5890 N.pl3 144  ARG144      0.1354
     48  N        -15.1850   44.1660   29.1200 N.am  145  VAL145     -0.1977
     49  CA       -14.1250   45.0720   28.6970 C.3   145  VAL145      0.1596
     50  C        -13.1220   44.3330   27.8140 C.2   145  VAL145      0.2287
     51  O        -13.3430   43.1780   27.4490 O.2   145  VAL145     -0.2864
     52  CB       -13.3900   45.6830   29.9070 C.3   145  VAL145      0.0276
     53  CG1      -14.3410   46.5550   30.7180 C.3   145  VAL145      0.0022
     54  CG2      -12.7890   44.5890   30.7710 C.3   145  VAL145      0.0022
     55  N         -8.3930   43.3990   31.4320 N.3   148  PHE148     -0.1241
     56  CA        -8.9040   43.2560   32.7910 C.3   148  PHE148      0.1605
     57  C         -8.0410   42.3890   33.6880 C.2   148  PHE148      0.2264
     58  O         -7.2970   41.5370   33.2210 O.2   148  PHE148     -0.2867
     59  CB       -10.3310   42.7060   32.7640 C.3   148  PHE148      0.0534
     60  CG       -10.4770   41.4350   31.9800 C.ar  148  PHE148     -0.0203
     61  CD1      -10.6170   41.4700   30.6030 C.ar  148  PHE148     -0.0042
     62  CD2      -10.4860   40.2060   32.6170 C.ar  148  PHE148     -0.0042
     63  CE1      -10.7510   40.3060   29.8750 C.ar  148  PHE148     -0.0003
     64  CE2      -10.6250   39.0380   31.8940 C.ar  148  PHE148     -0.0003
     65  CZ       -10.7570   39.0880   30.5220 C.ar  148  PHE148     -0.0000
     66  N         -7.4550   39.4890   36.2500 N.3   150  MET150     -0.1245
     67  CA        -7.9650   38.2400   36.7880 C.3   150  MET150      0.1570
     68  C         -6.9210   37.5790   37.6790 C.2   150  MET150      0.2261
     69  O         -5.7120   37.7300   37.4650 O.2   150  MET150     -0.2867
     70  CB        -8.3980   37.2860   35.6700 C.3   150  MET150      0.0387
     71  CG        -7.2490   36.6000   34.9500 C.3   150  MET150      0.0595
     72  SD        -7.7990   35.3090   33.8190 S.3   150  MET150     -0.1393
     73  CE        -8.6650   36.2780   32.5900 C.3   150  MET150      0.0692
     74  N        -21.3860   35.7710   35.5950 N.3   252  GLU252     -0.1231
     75  CA       -20.3410   34.8970   36.0980 C.3   252  GLU252      0.1699
     76  C        -19.1830   35.7630   36.5690 C.2   252  GLU252      0.2592
     77  O        -18.6930   36.6170   35.8290 O.2   252  GLU252     -0.2718
     78  CB       -19.8840   33.9390   34.9970 C.3   252  GLU252      0.0402
     79  CG       -19.0660   32.7570   35.4760 C.3   252  GLU252      0.1161
     80  CD       -17.8610   32.5120   34.5960 C.2   252  GLU252      0.3649
     81  OE1      -17.9650   32.7170   33.3620 O.co2 252  GLU252     -0.2457
     82  OE2      -16.8030   32.1390   35.1460 O.co2 252  GLU252     -0.2457
     83  N        -18.7580   35.5670   37.8130 N.am  253  ILE253     -0.1966
     84  CA       -17.6540   36.3660   38.3340 C.3   253  ILE253      0.1727
     85  C        -16.4410   35.5160   38.7150 C.2   253  ILE253      0.2616
     86  O        -15.3140   36.0180   38.7820 O.2   253  ILE253     -0.2715
     87  CB       -18.0930   37.2600   39.5140 C.3   253  ILE253      0.0290
     88  CG1      -18.6270   36.4170   40.6720 C.3   253  ILE253      0.0022
     89  CG2      -19.1480   38.2570   39.0610 C.3   253  ILE253      0.0023
     90  CD1      -19.2110   37.2400   41.8010 C.3   253  ILE253      0.0001
     91  N        -16.6760   34.2310   38.9660 N.am  254  VAL254     -0.1963
     92  CA       -15.5910   33.2750   39.1680 C.3   254  VAL254      0.1727
     93  C        -15.8510   31.9960   38.3750 C.2   254  VAL254      0.2616
     94  O        -16.9840   31.5160   38.3120 O.2   254  VAL254     -0.2715
     95  CB       -15.4130   32.8950   40.6530 C.3   254  VAL254      0.0290
     96  CG1      -14.0340   32.2990   40.8750 C.3   254  VAL254      0.0023
     97  CG2      -15.6180   34.1010   41.5600 C.3   254  VAL254      0.0023
     98  N        -14.7950   31.4450   37.7840 N.am  255  GLY255     -0.1955
     99  CA       -14.8910   30.2110   37.0280 C.3   255  GLY255      0.1869
    100  C        -14.0790   29.0650   37.6020 C.2   255  GLY255      0.2309
    101  O        -12.8600   29.0300   37.4650 O.2   255  GLY255     -0.2863
    102  N        -10.7100   30.6750   38.5120 N.3   306  SER306     -0.1202
    103  CA       -10.2530   31.9600   37.9870 C.3   306  SER306      0.2020
    104  C        -11.2320   33.0830   38.3470 C.2   306  SER306      0.2619
    105  O        -12.4170   33.0080   38.0350 O.2   306  SER306     -0.2717
    106  CB       -10.0530   31.8820   36.4710 C.3   306  SER306      0.2103
    107  OG       -11.2860   31.7130   35.7920 O.3   306  SER306     -0.2182
    108  N        -10.7170   34.1240   38.9930 N.am  307  PHE307     -0.1961
    109  CA       -11.5260   35.2210   39.5190 C.3   307  PHE307      0.1771
    110  C        -11.4420   36.4270   38.6010 C.2   307  PHE307      0.2620
    111  O        -10.3420   36.8840   38.2760 O.2   307  PHE307     -0.2715
    112  CB       -11.0110   35.6490   40.8960 C.3   307  PHE307      0.0574
    113  CG       -10.9670   34.5420   41.9100 C.ar  307  PHE307     -0.0200
    114  CD1      -11.8190   34.5590   42.9980 C.ar  307  PHE307     -0.0042
    115  CD2      -10.0650   33.4940   41.7910 C.ar  307  PHE307     -0.0042
    116  CE1      -11.7810   33.5530   43.9380 C.ar  307  PHE307     -0.0003
    117  CE2      -10.0250   32.4820   42.7230 C.ar  307  PHE307     -0.0003
    118  CZ       -10.8830   32.5120   43.8020 C.ar  307  PHE307     -0.0000
    119  N        -12.5950   36.9520   38.1950 N.am  308  GLY308     -0.1954
    120  CA       -12.6250   38.1700   37.4070 C.3   308  GLY308      0.1869
    121  C        -12.8350   39.3810   38.2920 C.2   308  GLY308      0.2309
    122  O        -13.9400   39.6270   38.7680 O.2   308  GLY308     -0.2863
    123  N        -12.7800   42.7280   37.8600 N.3   310  GLY310     -0.1210
    124  CA       -13.6270   43.8250   37.4220 C.3   310  GLY310      0.1956
    125  C        -15.0660   43.5730   37.8290 C.2   310  GLY310      0.2611
    126  O        -15.7700   44.4720   38.3040 O.2   310  GLY310     -0.2717
    127  N        -15.4860   42.3220   37.6740 N.am  311  ARG311     -0.1979
    128  CA       -16.8560   41.9190   37.9610 C.3   311  ARG311      0.1597
    129  C        -17.1310   41.7600   39.4510 C.2   311  ARG311      0.2287
    130  O        -18.2080   42.1180   39.9240 O.2   311  ARG311     -0.2864
    131  CB       -17.1930   40.6270   37.2220 C.3   311  ARG311      0.0334
    132  CG       -17.2360   40.7860   35.7190 C.3   311  ARG311      0.0492
    133  CD       -18.0410   39.6730   35.0910 C.3   311  ARG311      0.2205
    134  NE       -18.0280   39.7420   33.6360 N.pl3 311  ARG311     -0.0865
    135  CZ       -18.0200   38.6770   32.8430 C.cat 311  ARG311      0.5346
    136  NH1      -18.0200   37.4590   33.3680 N.pl3 311  ARG311      0.1354
    137  NH2      -18.0080   38.8290   31.5270 N.pl3 311  ARG311      0.1354
@<TRIPOS>BOND
     1    15    14    2
     2    14    13    1
     3    13    12    1
     4    13    16    1
     5    16    17    1
     6    19    18   ar
     7     3     4    2
     8     3     2    1
     9    17    18    1
    10     2     5    1
    11     2     1    1
    12    18    20   ar
    13     5     6    1
    14    47    45    1
    15    43    44    1
    16    43    42    1
    17     6     7    1
    18    45    44    2
    19    45    46    1
    20    10     9    1
    21     7     8    1
    22    42    41    1
    23    51    50    2
    24     9     8    2
    25     9    11    1
    26    50    49    1
    27    40    39    2
    28    41    38    1
    29    49    48    1
    30    49    52    1
    31    39    48   am
    32    39    38    1
    33    38    37    1
    34    63    65   ar
    35    63    61   ar
    36    52    53    1
    37    52    54    1
    38    37    31   am
    39    65    64   ar
    40    61    60   ar
    41    55    56    1
    42    31    32    2
    43    31    30    1
    44   137   135    1
    45    64    62   ar
    46    60    62   ar
    47    60    59    1
    48    35    33    1
    49    33    30    1
    50    33    34    1
    51    73    72    1
    52    30    29    1
    53    59    56    1
    54    56    57    1
    55   135   136    1
    56   135   134    2
    57    29    23   am
    58    24    23    2
    59    21    22    1
    60    23    22    1
    61    58    57    2
    62    81    80   ar
    63    22    25    1
    64   134   133    1
    65    34    36    1
    66    72    71    1
    67    80    82   ar
    68    80    79    1
    69    28    26    1
    70    71    70    1
    71    78    79    1
    72    78    75    1
    73    25    26    1
    74   133   132    1
    75    74    75    1
    76    26    27    1
    77    70    67    1
    78   132   131    1
    79   107   106    1
    80    77    76    2
    81    75    76    1
    82    66    67    1
    83   106   103    1
    84    76    83   am
    85    67    68    1
    86    99   100    1
    87    99    98    1
    88   131   128    1
    89   120   119    1
    90   120   121    1
    91   124   125    1
    92   124   123    1
    93   101   100    2
    94    69    68    2
    95   127   125   am
    96   127   128    1
    97    98    93   am
    98    83    84    1
    99   125   126    2
   100   128   129    1
   101   103   104    1
   102   103   102    1
   103   105   104    2
   104   119   110   am
   105   111   110    2
   106   121   122    2
   107    94    93    2
   108    84    85    1
   109    84    87    1
   110   104   108   am
   111    93    92    1
   112   110   109    1
   113    85    86    2
   114    85    91   am
   115    91    92    1
   116   108   109    1
   117    89    87    1
   118    92    95    1
   119   129   130    2
   120    87    88    1
   121   109   112    1
   122    95    96    1
   123    95    97    1
   124    88    90    1
   125   112   113    1
   126   115   113   ar
   127   115   117   ar
   128   113   114   ar
   129   117   118   ar
   130   114   116   ar
   131   118   116   ar
