@<TRIPOS>MOLECULE
tmp/4kr3A00.pdb
 166 152 0 0 0
SMALL
GASTEIGER

@<TRIPOS>ATOM
      1  N          5.4580   -9.0040   91.9800 N.3   103  GLU103     -0.1245
      2  CA         5.6060   -9.5220   90.6250 C.3   103  GLU103      0.1567
      3  C          4.2120   -9.7130   90.0230 C.2   103  GLU103      0.2260
      4  O          3.2340   -9.8910   90.7530 O.2   103  GLU103     -0.2867
      5  CB         6.3700  -10.8470   90.6390 C.3   103  GLU103      0.0388
      6  CG         5.6290  -11.9610   91.3450 C.3   103  GLU103      0.1160
      7  CD         6.5120  -13.1440   91.6820 C.2   103  GLU103      0.3649
      8  OE1        7.6880  -12.9350   92.0510 O.co2 103  GLU103     -0.2457
      9  OE2        6.0220  -14.2880   91.5780 O.co2 103  GLU103     -0.2457
     10  N          8.8860   -3.6180   95.0840 N.3   135  ARG135     -0.1245
     11  CA         9.7240   -4.1420   96.1530 C.3   135  ARG135      0.1563
     12  C         10.0470   -2.9930   97.0960 C.2   135  ARG135      0.2260
     13  O         10.4010   -1.9080   96.6460 O.2   135  ARG135     -0.2867
     14  CB        11.0260   -4.7030   95.5870 C.3   135  ARG135      0.0307
     15  CG        10.8640   -5.5480   94.3390 C.3   135  ARG135      0.0489
     16  CD        10.3180   -6.9330   94.6510 C.3   135  ARG135      0.2205
     17  NE        10.2650   -7.7740   93.4560 N.pl3 135  ARG135     -0.0865
     18  CZ        11.1700   -8.6960   93.1400 C.cat 135  ARG135      0.5346
     19  NH1       12.2070   -8.9080   93.9380 N.pl3 135  ARG135      0.1354
     20  NH2       11.0330   -9.4090   92.0270 N.pl3 135  ARG135      0.1354
     21  N         12.6450   -2.1360   98.8410 N.3   137  GLU137     -0.1245
     22  CA        14.0780   -2.3470   99.0420 C.3   137  GLU137      0.1567
     23  C         14.6360   -1.4460  100.1420 C.2   137  GLU137      0.2260
     24  O         14.3370   -0.2540  100.1820 O.2   137  GLU137     -0.2867
     25  CB        14.8390   -2.0890   97.7340 C.3   137  GLU137      0.0388
     26  CG        14.2400   -2.7540   96.4920 C.3   137  GLU137      0.1160
     27  CD        14.7080   -4.1850   96.2900 C.2   137  GLU137      0.3649
     28  OE1       15.5030   -4.6800   97.1140 O.co2 137  GLU137     -0.2457
     29  OE2       14.2800   -4.8160   95.2990 O.co2 137  GLU137     -0.2457
     30  N         17.8600    3.3210   87.7650 N.3   144  LEU144     -0.1231
     31  CA        16.8120    2.3530   87.4450 C.3   144  LEU144      0.1693
     32  C         17.2000    0.9050   87.7630 C.2   144  LEU144      0.2592
     33  O         16.3340    0.0290   87.8070 O.2   144  LEU144     -0.2718
     34  CB        16.4200    2.4490   85.9670 C.3   144  LEU144      0.0284
     35  CG        16.0850    3.8120   85.3620 C.3   144  LEU144      0.0019
     36  CD1       15.7370    3.6490   83.8860 C.3   144  LEU144      0.0001
     37  CD2       14.9520    4.4750   86.1270 C.3   144  LEU144      0.0001
     38  N         18.4910    0.6540   87.9730 N.am  145  ILE145     -0.1966
     39  CA        18.9830   -0.7150   88.1530 C.3   145  ILE145      0.1727
     40  C         18.2920   -1.4450   89.3050 C.2   145  ILE145      0.2616
     41  O         17.9160   -2.6090   89.1700 O.2   145  ILE145     -0.2715
     42  CB        20.5130   -0.7670   88.3570 C.3   145  ILE145      0.0290
     43  CG1       21.2380    0.0280   87.2650 C.3   145  ILE145      0.0022
     44  CG2       20.9920   -2.2160   88.3860 C.3   145  ILE145      0.0023
     45  CD1       21.5240   -0.7520   86.0040 C.3   145  ILE145      0.0001
     46  N         18.1230   -0.7590   90.4310 N.am  146  ARG146     -0.1963
     47  CA        17.3500   -1.3080   91.5440 C.3   146  ARG146      0.1729
     48  C         16.4000   -0.2630   92.1210 C.2   146  ARG146      0.2616
     49  O         16.8180    0.6060   92.8820 O.2   146  ARG146     -0.2715
     50  CB        18.2660   -1.8510   92.6450 C.3   146  ARG146      0.0348
     51  CG        17.5310   -2.6520   93.7170 C.3   146  ARG146      0.0492
     52  CD        18.4730   -3.1240   94.8150 C.3   146  ARG146      0.2205
     53  NE        18.8610   -4.5230   94.6560 N.pl3 146  ARG146     -0.0865
     54  CZ        18.5180   -5.4930   95.4980 C.cat 146  ARG146      0.5346
     55  NH1       18.9150   -6.7390   95.2750 N.pl3 146  ARG146      0.1354
     56  NH2       17.7840   -5.2140   96.5670 N.pl3 146  ARG146      0.1354
     57  N         15.1230   -0.3550   91.7610 N.am  147  VAL147     -0.1977
     58  CA        14.1190    0.5990   92.2340 C.3   147  VAL147      0.1596
     59  C         13.0940   -0.0170   93.1990 C.2   147  VAL147      0.2287
     60  O         13.2540   -1.1530   93.6460 O.2   147  VAL147     -0.2864
     61  CB        13.3810    1.2640   91.0560 C.3   147  VAL147      0.0276
     62  CG1       14.3000    2.2570   90.3330 C.3   147  VAL147      0.0022
     63  CG2       12.8220    0.2020   90.1070 C.3   147  VAL147      0.0022
     64  N          8.6180   -0.7670   89.5490 N.3   150  PHE150     -0.1241
     65  CA         9.0950   -0.8790   88.1770 C.3   150  PHE150      0.1605
     66  C          8.0400   -1.5730   87.3330 C.2   150  PHE150      0.2264
     67  O          7.0280   -2.0050   87.8580 O.2   150  PHE150     -0.2867
     68  CB        10.4270   -1.6310   88.1360 C.3   150  PHE150      0.0534
     69  CG        10.3840   -2.9710   88.8080 C.ar  150  PHE150     -0.0203
     70  CD1       10.6930   -3.1060   90.1530 C.ar  150  PHE150     -0.0042
     71  CD2       10.0260   -4.0970   88.0920 C.ar  150  PHE150     -0.0042
     72  CE1       10.6430   -4.3430   90.7660 C.ar  150  PHE150     -0.0003
     73  CE2        9.9750   -5.3290   88.6960 C.ar  150  PHE150     -0.0003
     74  CZ        10.2830   -5.4570   90.0340 C.ar  150  PHE150     -0.0000
     75  N          7.2390   -4.7940   85.0950 N.3   152  MET152     -0.1245
     76  CA         7.6290   -6.1160   84.6220 C.3   152  MET152      0.1570
     77  C          6.7700   -6.4970   83.4220 C.2   152  MET152      0.2261
     78  O          5.6750   -5.9650   83.2370 O.2   152  MET152     -0.2867
     79  CB         7.4830   -7.1670   85.7310 C.3   152  MET152      0.0387
     80  CG         8.6170   -8.1920   85.7740 C.3   152  MET152      0.0595
     81  SD         8.4890   -9.4080   87.1040 S.3   152  MET152     -0.1393
     82  CE         8.3850   -8.3580   88.5470 C.3   152  MET152      0.0692
     83  N         21.6950  -20.5960   85.4310 N.3   236  HIS236     -0.1241
     84  CA        21.8150  -20.5930   86.8760 C.3   236  HIS236      0.1621
     85  C         22.5760  -21.8210   87.3560 C.2   236  HIS236      0.2264
     86  O         22.3700  -22.9280   86.8590 O.2   236  HIS236     -0.2867
     87  CB        20.4490  -20.4480   87.5460 C.3   236  HIS236      0.0745
     88  CG        20.0260  -19.0230   87.7130 C.ar  236  HIS236      0.0817
     89  ND1       19.1210  -18.6180   88.6710 N.ar  236  HIS236     -0.2268
     90  CD2       20.3990  -17.9030   87.0520 C.ar  236  HIS236      0.1154
     91  CE1       18.9520  -17.3100   88.5880 C.ar  236  HIS236      0.1986
     92  NE2       19.7170  -16.8520   87.6130 N.ar  236  HIS236     -0.2212
     93  N         17.0700  -22.0750   85.5610 N.3   243  CYS243     -0.1235
     94  CA        17.0190  -20.7120   85.0600 C.3   243  CYS243      0.1677
     95  C         18.1560  -20.4350   84.0730 C.2   243  CYS243      0.2270
     96  O         19.2120  -21.0680   84.1160 O.2   243  CYS243     -0.2867
     97  CB        17.0540  -19.7150   86.2190 C.3   243  CYS243      0.0956
     98  SG        16.3880  -18.0680   85.8330 S.3   243  CYS243     -0.0801
     99  N         19.2590  -16.6480   82.6570 N.3   245  ASP245     -0.1239
    100  CA        18.8400  -15.2580   82.4830 C.3   245  ASP245      0.1674
    101  C         19.7440  -14.3410   81.6770 C.2   245  ASP245      0.2266
    102  O         20.9650  -14.3750   81.7870 O.2   245  ASP245     -0.2867
    103  CB        18.3290  -14.5910   83.7650 C.3   245  ASP245      0.1410
    104  CG        19.2460  -14.7560   84.9210 C.2   245  ASP245      0.3668
    105  OD1       20.4560  -14.6160   84.7650 O.co2 245  ASP245     -0.2456
    106  OD2       18.7720  -15.0140   86.0320 O.co2 245  ASP245     -0.2456
    107  N         21.2900   -8.3850   85.2650 N.3   256  GLU256     -0.1231
    108  CA        20.0710   -9.1160   84.9930 C.3   256  GLU256      0.1699
    109  C         19.0440   -8.2280   84.3210 C.2   256  GLU256      0.2592
    110  O         18.6060   -7.2530   84.9230 O.2   256  GLU256     -0.2718
    111  CB        19.4810   -9.5170   86.3400 C.3   256  GLU256      0.0402
    112  CG        18.1410  -10.1730   86.2550 C.3   256  GLU256      0.1161
    113  CD        18.2590  -11.6770   86.3710 C.2   256  GLU256      0.3649
    114  OE1       19.4050  -12.1850   86.4700 O.co2 256  GLU256     -0.2457
    115  OE2       17.2080  -12.3580   86.3810 O.co2 256  GLU256     -0.2457
    116  N         18.6330   -8.5530   83.0990 N.am  257  ILE257     -0.1980
    117  CA        17.5060   -7.8280   82.5040 C.3   257  ILE257      0.1595
    118  C         16.2620   -8.6950   82.3040 C.2   257  ILE257      0.2287
    119  O         15.1390   -8.2280   82.4980 O.2   257  ILE257     -0.2864
    120  CB        17.8630   -7.1000   81.1790 C.3   257  ILE257      0.0276
    121  CG1       18.8840   -7.8940   80.3700 C.3   257  ILE257      0.0022
    122  CG2       18.3870   -5.6950   81.4500 C.3   257  ILE257      0.0022
    123  CD1       19.3170   -7.2080   79.0970 C.3   257  ILE257      0.0001
    124  N         14.7310  -12.6080   83.2530 N.3   259  GLY259     -0.1225
    125  CA        14.8460  -13.8630   83.9260 C.3   259  GLY259      0.1811
    126  C         14.0070  -14.9740   83.4540 C.2   259  GLY259      0.2280
    127  O         12.8500  -15.1020   83.8960 O.2   259  GLY259     -0.2866
    128  N         12.9230  -18.5210   83.6200 N.3   261  ALA261     -0.1245
    129  CA        13.0080  -19.5270   84.6780 C.3   261  ALA261      0.1562
    130  C         12.0220  -20.6850   84.5300 C.2   261  ALA261      0.2260
    131  O         10.8330  -20.5430   84.8110 O.2   261  ALA261     -0.2867
    132  CB        12.8320  -18.8660   86.0410 C.3   261  ALA261      0.0290
    133  N          9.1090  -19.3480   82.8330 N.3   310  GLU310     -0.1245
    134  CA         8.7810  -18.0090   83.3050 C.3   310  GLU310      0.1567
    135  C          9.8390  -16.9720   82.9450 C.2   310  GLU310      0.2260
    136  O         10.7150  -16.6700   83.7510 O.2   310  GLU310     -0.2867
    137  CB         8.5620  -18.0070   84.8190 C.3   310  GLU310      0.0388
    138  CG         8.1290  -16.6590   85.3610 C.3   310  GLU310      0.1160
    139  CD         8.7950  -16.3130   86.6770 C.2   310  GLU310      0.3649
    140  OE1       10.0330  -16.4670   86.7870 O.co2 310  GLU310     -0.2457
    141  OE2        8.0710  -15.8970   87.6060 O.co2 310  GLU310     -0.2457
    142  N         10.7880  -13.3300   82.8810 N.3   312  SER312     -0.1217
    143  CA        10.4260  -12.0550   83.5000 C.3   312  SER312      0.1889
    144  C         11.2430  -10.9000   82.9260 C.2   312  SER312      0.2288
    145  O         12.4490  -10.7990   83.1630 O.2   312  SER312     -0.2866
    146  CB        10.6170  -12.1020   85.0200 C.3   312  SER312      0.2089
    147  OG         9.5950  -12.8490   85.6570 O.3   312  SER312     -0.2183
    148  N         12.4390   -7.1820   82.7390 N.3   314  GLY314     -0.1225
    149  CA        12.5820   -5.9760   83.4880 C.3   314  GLY314      0.1811
    150  C         12.6630   -4.7520   82.6750 C.2   314  GLY314      0.2280
    151  O         13.7760   -4.3420   82.2690 O.2   314  GLY314     -0.2866
    152  N         12.4430   -1.5790   83.1160 N.3   316  GLY316     -0.1210
    153  CA        13.3370   -0.5660   83.5680 C.3   316  GLY316      0.1956
    154  C         14.7530   -0.7620   83.2110 C.2   316  GLY316      0.2611
    155  O         15.3820    0.1110   82.5620 O.2   316  GLY316     -0.2717
    156  N         15.2920   -1.9130   83.5960 N.am  317  ARG317     -0.1979
    157  CA        16.6800   -2.2430   83.3040 C.3   317  ARG317      0.1597
    158  C         16.9540   -2.3740   81.8060 C.2   317  ARG317      0.2287
    159  O         18.0160   -1.9710   81.3370 O.2   317  ARG317     -0.2864
    160  CB        17.0980   -3.5190   84.0320 C.3   317  ARG317      0.0334
    161  CG        17.0780   -3.4020   85.5510 C.3   317  ARG317      0.0492
    162  CD        17.9340   -4.4860   86.1940 C.3   317  ARG317      0.2205
    163  NE        17.6880   -4.6180   87.6270 N.pl3 317  ARG317     -0.0865
    164  CZ        18.1600   -5.6070   88.3800 C.cat 317  ARG317      0.5346
    165  NH1       18.9140   -6.5560   87.8440 N.pl3 317  ARG317      0.1354
    166  NH2       17.8800   -5.6480   89.6750 N.pl3 317  ARG317      0.1354
@<TRIPOS>BOND
     1   123   121    1
     2   121   120    1
     3   120   122    1
     4   120   117    1
     5   159   158    2
     6   101   102    2
     7   101   100    1
     8   158   157    1
     9   151   150    2
    10   118   119    2
    11   118   117    1
    12   100    99    1
    13   100   103    1
    14   117   116    1
    15   155   154    2
    16   150   149    1
    17   148   149    1
    18   133   134    1
    19   142   143    1
    20   144   145    2
    21   144   143    1
    22   135   134    1
    23   135   136    2
    24   116   109   am
    25   152   153    1
    26   154   153    1
    27   154   156   am
    28    78    77    2
    29   124   125    1
    30   157   156    1
    31   157   160    1
    32   134   137    1
    33    77    76    1
    34   126   127    2
    35   126   125    1
    36   143   146    1
    37   128   129    1
    38   103   104    1
    39    36    35    1
    40   160   161    1
    41    95    96    2
    42    95    94    1
    43   109   110    2
    44   109   108    1
    45   130   129    1
    46   130   131    2
    47    76    75    1
    48    76    79    1
    49   129   132    1
    50   105   104   ar
    51   137   138    1
    52   104   106   ar
    53   108   107    1
    54   108   111    1
    55   146   147    1
    56    94    93    1
    57    94    97    1
    58   138   139    1
    59    35    34    1
    60    35    37    1
    61    83    84    1
    62   161   162    1
    63    79    80    1
    64    80    81    1
    65    98    97    1
    66    34    31    1
    67    45    43    1
    68   162   163    1
    69   112   111    1
    70   112   113    1
    71   113   115   ar
    72   113   114   ar
    73   139   140   ar
    74   139   141   ar
    75    86    85    2
    76    84    85    1
    77    84    87    1
    78    90    92   ar
    79    90    88   ar
    80    81    82    1
    81    43    42    1
    82    66    67    2
    83    66    65    1
    84    31    32    1
    85    31    30    1
    86    87    88    1
    87    92    91   ar
    88   163   164    2
    89    88    89   ar
    90    32    33    2
    91    32    38   am
    92   165   164    1
    93    38    39    1
    94    71    73   ar
    95    71    69   ar
    96    68    65    1
    97    68    69    1
    98    39    42    1
    99    39    40    1
   100    65    64    1
   101    42    44    1
   102   164   166    1
   103    91    89   ar
   104    73    74   ar
   105    69    70   ar
   106    41    40    2
   107    40    46   am
   108     3     2    1
   109     3     4    2
   110    74    72   ar
   111    63    61    1
   112    70    72   ar
   113    62    61    1
   114    46    47    1
   115     2     5    1
   116     2     1    1
   117     5     6    1
   118    61    58    1
   119     6     7    1
   120    47    48    1
   121    47    50    1
   122     9     7   ar
   123     7     8   ar
   124    57    48   am
   125    57    58    1
   126    20    18    1
   127    48    49    2
   128    58    59    1
   129    50    51    1
   130    18    17    2
   131    18    19    1
   132    59    60    2
   133    17    16    1
   134    51    52    1
   135    15    16    1
   136    15    14    1
   137    53    52    1
   138    53    54    2
   139    10    11    1
   140    55    54    1
   141    29    27   ar
   142    54    56    1
   143    14    11    1
   144    11    12    1
   145    27    26    1
   146    27    28   ar
   147    26    25    1
   148    13    12    2
   149    25    22    1
   150    21    22    1
   151    22    23    1
   152    23    24    2
