@<TRIPOS>MOLECULE
tmp/4krcA00.pdb
 215 201 0 0 0
SMALL
GASTEIGER

@<TRIPOS>ATOM
      1  N         11.0620   11.2700   28.0050 N.3    12  LEU12      -0.1231
      2  CA         9.9510   10.8200   28.8390 C.3    12  LEU12       0.1693
      3  C         10.3570    9.6370   29.7220 C.2    12  LEU12       0.2593
      4  O          9.6860    9.3240   30.7080 O.2    12  LEU12      -0.2718
      5  CB         8.7540   10.4360   27.9740 C.3    12  LEU12       0.0284
      6  CG         7.9930   11.5460   27.2560 C.3    12  LEU12       0.0019
      7  CD1        6.9100   10.9510   26.3420 C.3    12  LEU12       0.0001
      8  CD2        7.3920   12.5050   28.2670 C.3    12  LEU12       0.0001
      9  N         11.4500    8.9750   29.3590 N.am   13  GLY13      -0.1942
     10  CA        11.9580    7.8940   30.1710 C.3    13  GLY13       0.2014
     11  C         12.9620    7.0210   29.4570 C.2    13  GLY13       0.2639
     12  O         13.2830    7.2480   28.2920 O.2    13  GLY13      -0.2714
     13  N         13.4780    6.0280   30.1750 N.am   14  ASN14      -0.1958
     14  CA        14.3140    5.0050   29.5630 C.3    14  ASN14       0.1819
     15  C         14.2420    3.6560   30.2660 C.2    14  ASN14       0.2622
     16  O         13.8260    3.5480   31.4220 O.2    14  ASN14      -0.2715
     17  CB        15.7690    5.4740   29.3950 C.3    14  ASN14       0.1195
     18  CG        16.3990    5.9440   30.6950 C.2    14  ASN14       0.2630
     19  OD1       16.4640    5.1980   31.6710 O.2    14  ASN14      -0.2716
     20  ND2       16.8890    7.1820   30.7050 N.am   14  ASN14      -0.0877
     21  N         14.6270    2.6230   29.5350 N.am   15  GLY15      -0.1940
     22  CA        14.7130    1.2940   30.0910 C.3    15  GLY15       0.2014
     23  C         15.9900    0.6470   29.6050 C.2    15  GLY15       0.2640
     24  O         16.8960    1.3270   29.1170 O.2    15  GLY15      -0.2714
     25  N         16.0500   -0.6730   29.7160 N.am   16  THR16      -0.1936
     26  CA        17.2540   -1.4090   29.3630 C.3    16  THR16       0.2028
     27  C         17.7010   -1.1810   27.9210 C.2    16  THR16       0.2642
     28  O         18.8790   -0.9100   27.6710 O.2    16  THR16      -0.2714
     29  CB        17.0770   -2.9190   29.6060 C.3    16  THR16       0.1808
     30  OG1       16.6880   -3.1400   30.9700 O.3    16  THR16      -0.2208
     31  CG2       18.3830   -3.6570   29.3140 C.3    16  THR16       0.0379
     32  N         16.7620   -1.2810   26.9810 N.am   17  TYR17      -0.1959
     33  CA        17.1090   -1.2830   25.5600 C.3    17  TYR17       0.1771
     34  C         16.8300    0.0210   24.8210 C.2    17  TYR17       0.2619
     35  O         17.4140    0.2730   23.7640 O.2    17  TYR17      -0.2715
     36  CB        16.4150   -2.4460   24.8400 C.3    17  TYR17       0.0574
     37  CG        17.2480   -3.7150   24.7990 C.ar   17  TYR17      -0.0198
     38  CD1       18.3500   -3.8150   23.9510 C.ar   17  TYR17      -0.0009
     39  CD2       16.9360   -4.8100   25.6020 C.ar   17  TYR17      -0.0009
     40  CE1       19.1180   -4.9650   23.9050 C.ar   17  TYR17       0.0417
     41  CE2       17.7010   -5.9660   25.5590 C.ar   17  TYR17       0.0417
     42  CZ        18.7900   -6.0370   24.7080 C.ar   17  TYR17       0.1957
     43  OH        19.5610   -7.1780   24.6570 O.3    17  TYR17      -0.2866
     44  N         15.9470    0.8490   25.3700 N.am   18  ALA18      -0.1977
     45  CA        15.4910    2.0310   24.6510 C.3    18  ALA18       0.1597
     46  C         15.4460    3.3260   25.4800 C.2    18  ALA18       0.2287
     47  O         15.4220    3.3020   26.7100 O.2    18  ALA18      -0.2864
     48  CB        14.1220    1.7540   24.0270 C.3    18  ALA18       0.0319
     49  N         13.0190    6.8510   25.5310 N.3    20  VAL20      -0.1245
     50  CA        11.7680    7.3890   25.0130 C.3    20  VAL20       0.1561
     51  C         11.7000    8.9140   25.1440 C.2    20  VAL20       0.2260
     52  O         11.8900    9.4560   26.2380 O.2    20  VAL20      -0.2867
     53  CB        10.5690    6.7640   25.7490 C.3    20  VAL20       0.0252
     54  CG1        9.2600    7.2990   25.1840 C.3    20  VAL20       0.0019
     55  CG2       10.6310    5.2390   25.6710 C.3    20  VAL20       0.0019
     56  N          4.9720    9.1760   21.2390 N.3    33  ALA33      -0.1245
     57  CA         6.1320    8.7550   22.0300 C.3    33  ALA33       0.1562
     58  C          7.1610    8.1070   21.1150 C.2    33  ALA33       0.2260
     59  O          6.8560    7.1650   20.4020 O.2    33  ALA33      -0.2867
     60  CB         5.7200    7.8110   23.1400 C.3    33  ALA33       0.0290
     61  N         10.1060    5.9400   20.8250 N.3    35  LYS35      -0.1245
     62  CA        10.9520    4.9450   21.4560 C.3    35  LYS35       0.1561
     63  C         12.1680    4.7130   20.5840 C.2    35  LYS35       0.2260
     64  O         12.0770    4.1190   19.5150 O.2    35  LYS35      -0.2867
     65  CB        10.1870    3.6420   21.7020 C.3    35  LYS35       0.0271
     66  CG        10.9990    2.5840   22.4270 C.3    35  LYS35       0.0035
     67  CD        10.1210    1.5020   23.0420 C.3    35  LYS35       0.0206
     68  CE        10.9620    0.4910   23.8050 C.3    35  LYS35       0.1093
     69  NZ        10.1050   -0.4780   24.5460 N.3    35  LYS35      -0.1314
     70  N         14.2480   -7.4570   21.3700 N.3    48  THR48      -0.1218
     71  CA        13.1440   -6.7650   22.0210 C.3    48  THR48       0.1862
     72  C         12.3320   -5.9430   21.0280 C.2    48  THR48       0.2287
     73  O         11.1150   -6.0780   20.9570 O.2    48  THR48      -0.2866
     74  CB        13.6450   -5.8370   23.1400 C.3    48  THR48       0.1770
     75  OG1       14.7220   -5.0400   22.6460 O.3    48  THR48      -0.2211
     76  CG2       14.1350   -6.6470   24.3220 C.3    48  THR48       0.0375
     77  N          8.6370   -6.4300   19.9040 N.3    52  GLU52      -0.1245
     78  CA         7.7200   -5.3210   20.1300 C.3    52  GLU52       0.1567
     79  C          6.9870   -4.9580   18.8520 C.2    52  GLU52       0.2260
     80  O          5.7820   -4.7500   18.8560 O.2    52  GLU52      -0.2867
     81  CB         8.4700   -4.1040   20.6860 C.3    52  GLU52       0.0388
     82  CG         7.5660   -2.9860   21.1820 C.3    52  GLU52       0.1160
     83  CD         8.0840   -2.3310   22.4610 C.2    52  GLU52       0.3649
     84  OE1        9.3200   -2.1340   22.5780 O.co2  52  GLU52      -0.2457
     85  OE2        7.2450   -2.0170   23.3470 O.co2  52  GLU52      -0.2457
     86  N         -1.0330   -0.1270   24.4350 N.3    65  VAL65      -0.1245
     87  CA        -0.4820    1.0110   23.7370 C.3    65  VAL65       0.1561
     88  C         -0.4140    0.6950   22.2480 C.2    65  VAL65       0.2260
     89  O         -0.1310   -0.4360   21.8750 O.2    65  VAL65      -0.2867
     90  CB         0.9240    1.3510   24.2750 C.3    65  VAL65       0.0252
     91  CG1        1.9350    0.3080   23.8100 C.3    65  VAL65       0.0019
     92  CG2        1.3380    2.7260   23.8280 C.3    65  VAL65       0.0019
     93  N          5.0940    5.4810   19.0870 N.3    81  PHE81      -0.1227
     94  CA         3.9270    4.9730   19.7900 C.3    81  PHE81       0.1736
     95  C          2.9510    6.1080   19.9990 C.2    81  PHE81       0.2595
     96  O          3.3120    7.2760   19.8790 O.2    81  PHE81      -0.2718
     97  CB         4.3150    4.4330   21.1690 C.3    81  PHE81       0.0547
     98  CG         4.9680    3.0790   21.1490 C.ar   81  PHE81      -0.0202
     99  CD1        6.3450    2.9580   21.1930 C.ar   81  PHE81      -0.0042
    100  CD2        4.2020    1.9280   21.1280 C.ar   81  PHE81      -0.0042
    101  CE1        6.9410    1.7260   21.1930 C.ar   81  PHE81      -0.0003
    102  CE2        4.7960    0.6880   21.1210 C.ar   81  PHE81      -0.0003
    103  CZ         6.1680    0.5850   21.1590 C.ar   81  PHE81      -0.0000
    104  N          1.7170    5.7630   20.3400 N.am   82  GLU82      -0.1979
    105  CA         0.7780    6.7630   20.8010 C.3    82  GLU82       0.1602
    106  C          1.2950    7.3520   22.0970 C.2    82  GLU82       0.2287
    107  O          1.9740    6.6850   22.8680 O.2    82  GLU82      -0.2864
    108  CB        -0.6180    6.1650   20.9520 C.3    82  GLU82       0.0415
    109  CG        -1.2150    6.1690   22.3310 C.3    82  GLU82       0.1163
    110  CD        -2.1010    4.9470   22.5500 C.2    82  GLU82       0.3649
    111  OE1       -1.7060    3.8440   22.1160 O.co2  82  GLU82      -0.2457
    112  OE2       -3.1870    5.0770   23.1530 O.co2  82  GLU82      -0.2457
    113  N          1.3510    8.7410   25.7900 N.3    84  MET84      -0.1230
    114  CA         0.6830    8.5890   27.0730 C.3    84  MET84       0.1702
    115  C          1.3320    9.5750   28.0200 C.2    84  MET84       0.2592
    116  O          2.5030    9.8860   27.8730 O.2    84  MET84      -0.2718
    117  CB         0.8310    7.1570   27.6040 C.3    84  MET84       0.0401
    118  CG         0.2500    6.0980   26.6860 C.3    84  MET84       0.0596
    119  SD        -1.5310    6.2400   26.4910 S.3    84  MET84      -0.1393
    120  CE        -2.1300    5.6630   28.0760 C.3    84  MET84       0.0692
    121  N          0.5790   10.0760   28.9870 N.am   85  ASP85      -0.1960
    122  CA         1.0770   11.1590   29.8210 C.3    85  ASP85       0.1840
    123  C          1.9870   10.6630   30.9220 C.2    85  ASP85       0.2622
    124  O          2.9910   11.2890   31.2280 O.2    85  ASP85      -0.2715
    125  CB        -0.0950   11.9380   30.3960 C.3    85  ASP85       0.1450
    126  CG        -1.0030   12.4540   29.3150 C.2    85  ASP85       0.3671
    127  OD1       -0.5920   13.4020   28.6260 O.co2  85  ASP85      -0.2456
    128  OD2       -2.1050   11.9020   29.1250 O.co2  85  ASP85      -0.2456
    129  N          1.6370    9.5210   31.5010 N.am   86  ASN86      -0.1958
    130  CA         2.4080    8.9420   32.5850 C.3    86  ASN86       0.1819
    131  C          2.6690    7.4630   32.4040 C.2    86  ASN86       0.2621
    132  O          2.1220    6.8040   31.5110 O.2    86  ASN86      -0.2715
    133  CB         1.6530    9.1160   33.9010 C.3    86  ASN86       0.1195
    134  CG         1.8790   10.4720   34.5260 C.2    86  ASN86       0.2630
    135  OD1        3.0220   10.8610   34.7820 O.2    86  ASN86      -0.2716
    136  ND2        0.7870   11.2040   34.7840 N.am   86  ASN86      -0.0877
    137  N          3.5200    6.9410   33.2730 N.am   87  ASP87      -0.1971
    138  CA         3.4780    5.5350   33.5520 C.3    87  ASP87       0.1709
    139  C          2.9920    5.4340   34.9860 C.2    87  ASP87       0.2293
    140  O          2.8220    6.4500   35.6560 O.2    87  ASP87      -0.2864
    141  CB         4.8170    4.8460   33.2700 C.3    87  ASP87       0.1436
    142  CG         5.8400    5.0530   34.3490 C.2    87  ASP87       0.3671
    143  OD1        5.4790    5.2120   35.5350 O.co2  87  ASP87      -0.2456
    144  OD2        7.0330    5.0110   33.9980 O.co2  87  ASP87      -0.2456
    145  N          5.5980    6.9110   37.8420 N.3    90  LYS90      -0.1245
    146  CA         5.5920    8.3760   37.8160 C.3    90  LYS90       0.1561
    147  C          4.2880    8.9530   38.3200 C.2    90  LYS90       0.2260
    148  O          4.2830    9.9020   39.0850 O.2    90  LYS90      -0.2867
    149  CB         5.8350    8.9050   36.4060 C.3    90  LYS90       0.0271
    150  CG         7.2110    8.5000   35.8330 C.3    90  LYS90       0.0035
    151  CD         7.3090    8.8900   34.3520 C.3    90  LYS90       0.0206
    152  CE         8.7070    8.7090   33.7920 C.3    90  LYS90       0.1093
    153  NZ         9.0590    7.2770   33.7120 N.3    90  LYS90      -0.1314
    154  N          6.6220   -8.9210   31.4410 N.3   128  ASP128     -0.1239
    155  CA         7.2720   -7.7610   32.0590 C.3   128  ASP128      0.1674
    156  C          6.2980   -6.7400   32.6200 C.2   128  ASP128      0.2266
    157  O          6.5210   -5.5390   32.5070 O.2   128  ASP128     -0.2867
    158  CB         8.2450   -7.0710   31.1010 C.3   128  ASP128      0.1410
    159  CG         9.3860   -6.3690   31.8410 C.2   128  ASP128      0.3668
    160  OD1        9.4780   -6.5370   33.0680 O.co2 128  ASP128     -0.2456
    161  OD2       10.1960   -5.6640   31.2030 O.co2 128  ASP128     -0.2456
    162  N          4.8540   -4.4300   35.1720 N.3   130  LYS130     -0.1245
    163  CA         5.2820   -3.6610   36.3350 C.3   130  LYS130      0.1561
    164  C          4.8910   -2.2120   36.0740 C.2   130  LYS130      0.2260
    165  O          4.8170   -1.8000   34.9220 O.2   130  LYS130     -0.2867
    166  CB         6.7910   -3.7630   36.5010 C.3   130  LYS130      0.0271
    167  CG         7.5810   -3.0790   35.4110 C.3   130  LYS130      0.0035
    168  CD         9.0680   -3.2540   35.6350 C.3   130  LYS130      0.0206
    169  CE         9.8640   -2.6730   34.4840 C.3   130  LYS130      0.1093
    170  NZ        11.3280   -2.8940   34.6620 N.3   130  LYS130     -0.1314
    171  N          6.1630    0.6970   35.7590 N.3   132  GLN132     -0.1231
    172  CA         6.8730    1.4640   34.7270 C.3   132  GLN132      0.1698
    173  C          6.3980    1.1290   33.3130 C.2   132  GLN132      0.2592
    174  O          6.4830    1.9590   32.4060 O.2   132  GLN132     -0.2718
    175  CB         8.3880    1.2530   34.8120 C.3   132  GLN132      0.0381
    176  CG         9.0250    1.8710   36.0200 C.3   132  GLN132      0.0905
    177  CD         9.1520    0.9090   37.1960 C.2   132  GLN132      0.2608
    178  OE1        9.8580    1.1980   38.1640 O.2   132  GLN132     -0.2717
    179  NE2        8.4730   -0.2340   37.1230 N.am  132  GLN132     -0.0878
    180  N          5.9120   -0.0930   33.1370 N.am  133  ASN133     -0.1974
    181  CA         5.4230   -0.5730   31.8520 C.3   133  ASN133      0.1688
    182  C          3.9060   -0.4380   31.6810 C.2   133  ASN133      0.2292
    183  O          3.3420   -0.9810   30.7320 O.2   133  ASN133     -0.2864
    184  CB         5.8510   -2.0310   31.6370 C.3   133  ASN133      0.1181
    185  CG         7.3360   -2.1660   31.4010 C.2   133  ASN133      0.2629
    186  OD1        8.0330   -1.1680   31.2450 O.2   133  ASN133     -0.2716
    187  ND2        7.8340   -3.3960   31.3770 N.am  133  ASN133     -0.0877
    188  N          1.1920    2.4360   31.1480 N.3   135  LEU135     -0.1245
    189  CA         1.0810    3.8330   30.8070 C.3   135  LEU135      0.1561
    190  C         -0.3090    4.3650   31.0980 C.2   135  LEU135      0.2260
    191  O         -1.3110    3.6880   30.8780 O.2   135  LEU135     -0.2867
    192  CB         1.4080    4.0080   29.3300 C.3   135  LEU135      0.0270
    193  CG         2.7130    3.3480   28.8910 C.3   135  LEU135      0.0019
    194  CD1        2.7940    3.2900   27.3740 C.3   135  LEU135      0.0001
    195  CD2        3.9080    4.0760   29.4810 C.3   135  LEU135      0.0001
    196  N          5.6390   -1.8050   26.5290 N.3   146  ASP146     -0.1239
    197  CA         6.9060   -2.5230   26.7310 C.3   146  ASP146      0.1674
    198  C          6.7540   -4.0190   26.4720 C.2   146  ASP146      0.2266
    199  O          7.0030   -4.8310   27.3590 O.2   146  ASP146     -0.2867
    200  CB         7.3950   -2.3170   28.1620 C.3   146  ASP146      0.1410
    201  CG         8.9060   -2.4270   28.3040 C.2   146  ASP146      0.3668
    202  OD1        9.5840   -2.9570   27.4030 O.co2 146  ASP146     -0.2456
    203  OD2        9.4140   -1.9650   29.3470 O.co2 146  ASP146     -0.2456
    204  N          8.5890   -5.9030   24.8260 N.3   148  GLY148     -0.1210
    205  CA         9.8700   -6.4590   24.4220 C.3   148  GLY148      0.1956
    206  C         10.1900   -7.8450   24.9600 C.2   148  GLY148      0.2611
    207  O         10.9040   -8.6130   24.3060 O.2   148  GLY148     -0.2717
    208  N          9.6930   -8.1690   26.1540 N.am  149  LEU149     -0.1979
    209  CA         9.9120   -9.5050   26.7210 C.3   149  LEU149      0.1596
    210  C          8.7710  -10.4620   26.3740 C.2   149  LEU149      0.2287
    211  O          8.7920  -11.6220   26.7680 O.2   149  LEU149     -0.2864
    212  CB        10.0990   -9.4590   28.2440 C.3   149  LEU149      0.0297
    213  CG        11.3850   -8.8390   28.8090 C.3   149  LEU149      0.0022
    214  CD1       11.7260   -9.4160   30.1930 C.3   149  LEU149      0.0001
    215  CD2       12.5450   -9.0400   27.8510 C.3   149  LEU149      0.0001
@<TRIPOS>BOND
     1    79    80    2
     2    79    78    1
     3    93    94    1
     4    64    63    2
     5    94    95    1
     6    94    97    1
     7    96    95    2
     8    77    78    1
     9    95   104   am
    10    78    81    1
    11   104   105    1
    12    59    58    2
    13    63    62    1
    14    81    82    1
    15   105   108    1
    16   105   106    1
    17    61    62    1
    18   108   109    1
    19    73    72    2
    20    72    71    1
    21    58    57    1
    22   102   100   ar
    23   102   103   ar
    24   100    98   ar
    25    98    97    1
    26    98    99   ar
    27   103   101   ar
    28    82    83    1
    29   101    99   ar
    30    56    57    1
    31    70    71    1
    32    62    65    1
    33    65    66    1
    34    89    88    2
    35    71    74    1
    36    57    60    1
    37   106   107    2
    38   111   110   ar
    39    88    87    1
    40   109   110    1
    41    66    67    1
    42    83    84   ar
    43    83    85   ar
    44   110   112   ar
    45    75    74    1
    46    67    68    1
    47    74    76    1
    48    87    90    1
    49    87    86    1
    50    35    34    2
    51    68    69    1
    52    91    90    1
    53    92    90    1
    54    40    38   ar
    55    40    42   ar
    56    38    37   ar
    57    48    45    1
    58   207   206    2
    59   205   204    1
    60   205   206    1
    61    45    44    1
    62    45    46    1
    63    43    42    1
    64    42    41   ar
    65    37    36    1
    66    37    39   ar
    67    34    44   am
    68    34    33    1
    69    36    33    1
    70   206   208   am
    71    50    51    1
    72    50    49    1
    73    50    53    1
    74    51    52    2
    75    54    53    1
    76    46    47    2
    77    41    39   ar
    78    33    32    1
    79    55    53    1
    80   113   114    1
    81   208   209    1
    82     7     6    1
    83   210   209    1
    84   210   211    2
    85   198   197    1
    86   198   199    2
    87   119   118    1
    88   119   120    1
    89   196   197    1
    90   118   117    1
    91   209   212    1
    92   197   200    1
    93    32    27   am
    94   114   117    1
    95   114   115    1
    96     6     5    1
    97     6     8    1
    98   194   193    1
    99   202   201   ar
   100    28    27    2
   101   215   213    1
   102   116   115    2
   103    27    26    1
   104     5     2    1
   105     1     2    1
   106   115   121   am
   107   200   201    1
   108   212   213    1
   109    12    11    2
   110   201   203   ar
   111   127   126   ar
   112   213   214    1
   113     2     3    1
   114   193   192    1
   115   193   195    1
   116   121   122    1
   117    24    23    2
   118   128   126   ar
   119    31    29    1
   120   126   125    1
   121   192   189    1
   122     9     3   am
   123     9    10    1
   124    26    29    1
   125    26    25    1
   126    17    14    1
   127    17    18    1
   128    11    10    1
   129    11    13   am
   130    21    22    1
   131    21    15   am
   132    14    13    1
   133    14    15    1
   134    23    25   am
   135    23    22    1
   136    29    30    1
   137     3     4    2
   138   122   125    1
   139   122   123    1
   140    15    16    2
   141    18    20   am
   142    18    19    2
   143   183   182    2
   144   189   190    1
   145   189   188    1
   146   191   190    2
   147   123   124    2
   148   123   129   am
   149   158   159    1
   150   158   155    1
   151   161   159   ar
   152   186   185    2
   153   187   185   am
   154   185   184    1
   155   154   155    1
   156   129   130    1
   157   132   131    2
   158   184   181    1
   159   182   181    1
   160   159   160   ar
   161   181   180    1
   162   155   156    1
   163   131   130    1
   164   131   137   am
   165   174   173    2
   166   157   156    2
   167   130   133    1
   168   180   173   am
   169   141   138    1
   170   141   142    1
   171   137   138    1
   172   173   172    1
   173   138   139    1
   174   153   152    1
   175   152   151    1
   176   133   134    1
   177   144   142   ar
   178   142   143   ar
   179   151   150    1
   180   169   170    1
   181   169   168    1
   182   134   135    2
   183   134   136   am
   184   172   175    1
   185   172   171    1
   186   175   176    1
   187   165   164    2
   188   139   140    2
   189   162   163    1
   190   167   168    1
   191   167   166    1
   192   150   149    1
   193   176   177    1
   194   164   163    1
   195   163   166    1
   196   149   146    1
   197   179   177   am
   198   177   178    2
   199   146   145    1
   200   146   147    1
   201   147   148    2
