@<TRIPOS>MOLECULE
tmp/4krgA00.pdb
 121 119 0 0 0
SMALL
GASTEIGER

@<TRIPOS>ATOM
      1  N         -6.1310   68.7570    6.8800 N.3    19  TRP19      -0.1241
      2  CA        -5.3140   67.9470    5.9910 C.3    19  TRP19       0.1605
      3  C         -4.2110   68.7470    5.3110 C.2    19  TRP19       0.2264
      4  O         -3.1910   68.1860    4.9190 O.2    19  TRP19      -0.2867
      5  CB        -6.1820   67.1680    5.0000 C.3    19  TRP19       0.0550
      6  CG        -6.7070   65.9240    5.6290 C.ar   19  TRP19       0.0003
      7  CD1       -7.9810   65.6820    6.0450 C.ar   19  TRP19       0.0946
      8  CD2       -5.9400   64.7740    5.9630 C.ar   19  TRP19       0.0152
      9  NE1       -8.0610   64.4290    6.6010 N.ar   19  TRP19      -0.2442
     10  CE2       -6.8160   63.8430    6.5680 C.ar   19  TRP19       0.0810
     11  CE3       -4.5970   64.4130    5.8140 C.ar   19  TRP19       0.0012
     12  CZ2       -6.3940   62.5950    7.0140 C.ar   19  TRP19       0.0191
     13  CZ3       -4.1760   63.1780    6.2540 C.ar   19  TRP19       0.0001
     14  CH2       -5.0700   62.2830    6.8500 C.ar   19  TRP19       0.0015
     15  N          1.1460   60.0810    7.1020 N.3    30  SER30      -0.1217
     16  CA        -0.0040   60.9810    7.0580 C.3    30  SER30       0.1889
     17  C         -1.3130   60.2580    6.7560 C.2    30  SER30       0.2288
     18  O         -2.3490   60.5430    7.3680 O.2    30  SER30      -0.2866
     19  CB         0.2180   62.0900    6.0340 C.3    30  SER30       0.2089
     20  OG         1.1590   63.0280    6.5160 O.3    30  SER30      -0.2183
     21  N         -2.0570   58.5480    9.7840 N.3    31  LEU31      -0.1245
     22  CA        -1.8710   59.3980   10.9660 C.3    31  LEU31       0.1561
     23  C         -1.1700   58.6350   12.0920 C.2    31  LEU31       0.2260
     24  O         -1.6310   58.6020   13.2330 O.2    31  LEU31      -0.2867
     25  CB        -3.1970   60.0170   11.4310 C.3    31  LEU31       0.0270
     26  CG        -3.7510   61.0390   10.4290 C.3    31  LEU31       0.0019
     27  CD1       -5.1140   61.5670   10.8510 C.3    31  LEU31       0.0001
     28  CD2       -2.7740   62.1910   10.2540 C.3    31  LEU31       0.0001
     29  N        -11.2720   55.3150    5.3970 N.3   124  TRP124     -0.1241
     30  CA       -11.1270   56.5060    6.2510 C.3   124  TRP124      0.1605
     31  C        -11.6460   57.8080    5.6020 C.2   124  TRP124      0.2264
     32  O        -10.8610   58.7140    5.3320 O.2   124  TRP124     -0.2867
     33  CB        -9.6650   56.7260    6.6680 C.3   124  TRP124      0.0550
     34  CG        -9.0880   55.7710    7.6710 C.ar  124  TRP124      0.0003
     35  CD1       -9.6880   55.2810    8.8010 C.ar  124  TRP124      0.0946
     36  CD2       -7.7750   55.2140    7.6340 C.ar  124  TRP124      0.0152
     37  NE1       -8.8170   54.4490    9.4740 N.ar  124  TRP124     -0.2442
     38  CE2       -7.6360   54.3880    8.7780 C.ar  124  TRP124      0.0810
     39  CE3       -6.6940   55.3250    6.7540 C.ar  124  TRP124      0.0012
     40  CZ2       -6.4650   53.6880    9.0530 C.ar  124  TRP124      0.0191
     41  CZ3       -5.5360   54.6300    7.0260 C.ar  124  TRP124      0.0001
     42  CH2       -5.4280   53.8210    8.1680 C.ar  124  TRP124      0.0015
     43  N        -14.5450   62.1710    8.1300 N.3   126  TYR126     -0.1241
     44  CA       -14.1600   63.5380    7.7780 C.3   126  TYR126      0.1605
     45  C        -15.3010   64.2960    7.0910 C.2   126  TYR126      0.2264
     46  O        -15.0820   65.3500    6.4910 O.2   126  TYR126     -0.2867
     47  CB       -12.8960   63.5490    6.9050 C.3   126  TYR126      0.0534
     48  CG       -11.7050   62.8680    7.5420 C.ar  126  TYR126     -0.0201
     49  CD1      -11.1270   63.3780    8.6960 C.ar  126  TYR126     -0.0009
     50  CD2      -11.1500   61.7210    6.9830 C.ar  126  TYR126     -0.0009
     51  CE1      -10.0380   62.7550    9.2850 C.ar  126  TYR126      0.0417
     52  CE2      -10.0550   61.0930    7.5650 C.ar  126  TYR126      0.0417
     53  CZ        -9.5070   61.6180    8.7160 C.ar  126  TYR126      0.1957
     54  OH        -8.4330   61.0020    9.3100 O.3   126  TYR126     -0.2866
     55  N        -12.7310   54.8090   11.3930 N.3   153  SER153     -0.1217
     56  CA       -12.3350   54.7550   12.7890 C.3   153  SER153      0.1889
     57  C        -13.5970   54.9840   13.5930 C.2   153  SER153      0.2288
     58  O        -14.1620   56.0850   13.5840 O.2   153  SER153     -0.2866
     59  CB       -11.3210   55.8450   13.1180 C.3   153  SER153      0.2089
     60  OG       -10.1450   55.6730   12.3590 O.3   153  SER153     -0.2183
     61  N         -9.9350   57.3070   17.8590 N.3   157  PRO157     -0.2102
     62  CA        -8.9630   57.2980   16.7630 C.3   157  PRO157      0.1504
     63  C         -8.3180   55.9290   16.5990 C.2   157  PRO157      0.2576
     64  O         -8.2890   55.1430   17.5460 O.2   157  PRO157     -0.2718
     65  CB        -7.9130   58.3200   17.2160 C.3   157  PRO157      0.0282
     66  CG        -8.6260   59.1920   18.1990 C.3   157  PRO157      0.0208
     67  CD        -9.5600   58.2630   18.9170 C.3   157  PRO157      0.0893
     68  N         -7.7980   55.6600   15.4090 N.am  158  SER158     -0.1938
     69  CA        -7.1470   54.3890   15.1250 C.3   158  SER158      0.2055
     70  C         -6.0950   54.0700   16.1680 C.2   158  SER158      0.2643
     71  O         -5.9520   52.9250   16.5860 O.2   158  SER158     -0.2714
     72  CB        -6.4960   54.4240   13.7490 C.3   158  SER158      0.2130
     73  OG        -5.4320   55.3500   13.7210 O.3   158  SER158     -0.2179
     74  N         -5.3710   55.1030   16.5900 N.am  159  THR159     -0.1950
     75  CA        -4.3150   54.9710   17.5840 C.3   159  THR159      0.1897
     76  C         -4.8160   55.1540   19.0200 C.2   159  THR159      0.2313
     77  O         -4.0320   55.4260   19.9190 O.2   159  THR159     -0.2863
     78  CB        -3.1640   55.9620   17.3130 C.3   159  THR159      0.1794
     79  OG1       -3.6970   57.2850   17.1550 O.3   159  THR159     -0.2208
     80  CG2       -2.4060   55.5660   16.0580 C.3   159  THR159      0.0378
     81  N         -1.6060   62.9980   15.2860 N.3   167  HIS167     -0.1241
     82  CA        -2.4710   64.0850   15.7080 C.3   167  HIS167      0.1621
     83  C         -1.7050   65.0340   16.6110 C.2   167  HIS167      0.2264
     84  O         -0.7230   64.6470   17.2460 O.2   167  HIS167     -0.2867
     85  CB        -3.6890   63.5470   16.4520 C.3   167  HIS167      0.0745
     86  CG        -4.7480   63.0000   15.5470 C.ar  167  HIS167      0.0817
     87  ND1       -5.4870   63.7970   14.7110 N.ar  167  HIS167     -0.2268
     88  CD2       -5.1880   61.7310   15.3610 C.ar  167  HIS167      0.1154
     89  CE1       -6.3440   63.0460   14.0380 C.ar  167  HIS167      0.1986
     90  NE2       -6.1830   61.7930   14.4110 N.ar  167  HIS167     -0.2212
     91  N        -12.1830   65.3080   13.7140 N.3   175  THR175     -0.1218
     92  CA       -12.6710   64.0330   13.2070 C.3   175  THR175      0.1862
     93  C        -13.9490   63.5570   13.9100 C.2   175  THR175      0.2287
     94  O        -14.1100   63.7340   15.1190 O.2   175  THR175     -0.2866
     95  CB       -11.5760   62.9660   13.3340 C.3   175  THR175      0.1770
     96  OG1      -10.3480   63.4940   12.8170 O.3   175  THR175     -0.2211
     97  CG2      -11.9520   61.7140   12.5770 C.3   175  THR175      0.0375
     98  N        -15.6760   60.5000   15.1590 N.3   177  TYR177     -0.1241
     99  CA       -15.5300   59.0850   15.5000 C.3   177  TYR177      0.1605
    100  C        -16.8790   58.5170   15.9160 C.2   177  TYR177      0.2264
    101  O        -17.2430   58.5410   17.0910 O.2   177  TYR177     -0.2867
    102  CB       -14.4880   58.9040   16.6070 C.3   177  TYR177      0.0534
    103  CG       -13.1350   59.4450   16.2240 C.ar  177  TYR177     -0.0201
    104  CD1      -12.3370   58.7770   15.3100 C.ar  177  TYR177     -0.0009
    105  CD2      -12.6640   60.6330   16.7630 C.ar  177  TYR177     -0.0009
    106  CE1      -11.1030   59.2740   14.9440 C.ar  177  TYR177      0.0417
    107  CE2      -11.4280   61.1350   16.4080 C.ar  177  TYR177      0.0417
    108  CZ       -10.6550   60.4510   15.5010 C.ar  177  TYR177      0.1957
    109  OH        -9.4300   60.9450   15.1380 O.3   177  TYR177     -0.2866
    110  N         -5.1440   46.1110   12.9060 N.3   212  TYR212     -0.1241
    111  CA        -5.3590   47.0260   14.0210 C.3   212  TYR212      0.1605
    112  C         -5.6820   46.3220   15.3290 C.2   212  TYR212      0.2264
    113  O         -5.4560   46.8690   16.4050 O.2   212  TYR212     -0.2867
    114  CB        -6.3770   48.1070   13.6650 C.3   212  TYR212      0.0534
    115  CG        -5.6970   49.2620   12.9820 C.ar  212  TYR212     -0.0201
    116  CD1       -5.2250   50.3360   13.7150 C.ar  212  TYR212     -0.0009
    117  CD2       -5.4700   49.2530   11.6140 C.ar  212  TYR212     -0.0009
    118  CE1       -4.5730   51.3850   13.1100 C.ar  212  TYR212      0.0417
    119  CE2       -4.8150   50.3040   10.9900 C.ar  212  TYR212      0.0417
    120  CZ        -4.3720   51.3680   11.7460 C.ar  212  TYR212      0.1957
    121  OH        -3.7240   52.4180   11.1480 O.3   212  TYR212     -0.2866
@<TRIPOS>BOND
     1     4     3    2
     2     5     6    1
     3     5     2    1
     4     3     2    1
     5    32    31    2
     6    29    30    1
     7    31    30    1
     8     6     8   ar
     9     6     7   ar
    10    11     8   ar
    11    11    13   ar
    12     8    10   ar
    13     2     1    1
    14    19    20    1
    15    19    16    1
    16     7     9   ar
    17    30    33    1
    18    13    14   ar
    19    46    45    2
    20    10     9   ar
    21    10    12   ar
    22    33    34    1
    23    39    41   ar
    24    39    36   ar
    25    17    16    1
    26    17    18    2
    27    14    12   ar
    28    47    48    1
    29    47    44    1
    30    50    48   ar
    31    50    52   ar
    32    41    42   ar
    33    16    15    1
    34    45    44    1
    35    48    49   ar
    36    52    53   ar
    37    36    34   ar
    38    36    38   ar
    39    34    35   ar
    40    44    43    1
    41    42    40   ar
    42    49    51   ar
    43    53    51   ar
    44    53    54    1
    45    38    40   ar
    46    38    37   ar
    47    35    37   ar
    48    21    22    1
    49    28    26    1
    50    26    27    1
    51    26    25    1
    52    22    25    1
    53    22    23    1
    54   119   117   ar
    55   119   120   ar
    56   121   120    1
    57    55    56    1
    58   117   115   ar
    59   120   118   ar
    60    23    24    2
    61    60    59    1
    62    97    95    1
    63    56    59    1
    64    56    57    1
    65    96    95    1
    66   110   111    1
    67   115   114    1
    68   115   116   ar
    69   118   116   ar
    70    92    95    1
    71    92    91    1
    72    92    93    1
    73    58    57    2
    74   114   111    1
    75    73    72    1
    76    72    69    1
    77    93    94    2
    78   111   112    1
    79    89    90   ar
    80    89    87   ar
    81    90    88   ar
    82    87    86   ar
    83   106   104   ar
    84   106   108   ar
    85    69    68    1
    86    69    70    1
    87   109   108    1
    88    98    99    1
    89    81    82    1
    90   104   103   ar
    91   112   113    2
    92    88    86   ar
    93    68    63   am
    94    99   100    1
    95    99   102    1
    96   108   107   ar
    97    86    85    1
    98    82    85    1
    99    82    83    1
   100   100   101    2
   101    80    78    1
   102    70    71    2
   103    70    74   am
   104   103   102    1
   105   103   105   ar
   106   107   105   ar
   107    74    75    1
   108    63    62    1
   109    63    64    2
   110    83    84    2
   111    62    65    1
   112    62    61    1
   113    79    78    1
   114    65    66    1
   115    78    75    1
   116    75    76    1
   117    61    67    1
   118    66    67    1
   119    76    77    2
