@<TRIPOS>MOLECULE
tmp/4krgA01.pdb
 213 211 0 0 0
SMALL
GASTEIGER

@<TRIPOS>ATOM
      1  N        -16.6650   72.5050    6.3440 N.3    12  ARG12      -0.1245
      2  CA       -16.0310   71.8370    5.2190 C.3    12  ARG12       0.1563
      3  C        -14.5590   72.2270    5.1850 C.2    12  ARG12       0.2260
      4  O        -13.6800   71.3740    5.0420 O.2    12  ARG12      -0.2867
      5  CB       -16.7120   72.2210    3.9020 C.3    12  ARG12       0.0307
      6  CG       -16.1170   71.5530    2.6710 C.3    12  ARG12       0.0489
      7  CD       -16.8630   70.2730    2.2690 C.3    12  ARG12       0.2205
      8  NE       -17.0050   69.3310    3.3760 N.pl3  12  ARG12      -0.0865
      9  CZ       -16.0610   68.4900    3.7810 C.cat  12  ARG12       0.5346
     10  NH1      -14.8860   68.4510    3.1640 N.pl3  12  ARG12       0.1354
     11  NH2      -16.2970   67.6850    4.8080 N.pl3  12  ARG12       0.1354
     12  N        -11.8210   70.7670    7.6950 N.3    15  PHE15      -0.1241
     13  CA       -11.2250   69.4810    7.3520 C.3    15  PHE15       0.1605
     14  C        -10.1000   69.6440    6.3370 C.2    15  PHE15       0.2264
     15  O         -9.0390   69.0440    6.4820 O.2    15  PHE15      -0.2867
     16  CB       -12.2860   68.5000    6.8500 C.3    15  PHE15       0.0534
     17  CG       -13.1050   67.8800    7.9500 C.ar   15  PHE15      -0.0203
     18  CD1      -12.5140   67.0350    8.8800 C.ar   15  PHE15      -0.0042
     19  CD2      -14.4650   68.1340    8.0530 C.ar   15  PHE15      -0.0042
     20  CE1      -13.2640   66.4630    9.9000 C.ar   15  PHE15      -0.0003
     21  CE2      -15.2210   67.5590    9.0660 C.ar   15  PHE15      -0.0003
     22  CZ       -14.6180   66.7240    9.9900 C.ar   15  PHE15      -0.0000
     23  N         -6.1310   68.7570    6.8800 N.3    19  TRP19      -0.1241
     24  CA        -5.3140   67.9470    5.9910 C.3    19  TRP19       0.1605
     25  C         -4.2110   68.7470    5.3110 C.2    19  TRP19       0.2264
     26  O         -3.1910   68.1860    4.9190 O.2    19  TRP19      -0.2867
     27  CB        -6.1820   67.1680    5.0000 C.3    19  TRP19       0.0550
     28  CG        -6.7070   65.9240    5.6290 C.ar   19  TRP19       0.0003
     29  CD1       -7.9810   65.6820    6.0450 C.ar   19  TRP19       0.0946
     30  CD2       -5.9400   64.7740    5.9630 C.ar   19  TRP19       0.0152
     31  NE1       -8.0610   64.4290    6.6010 N.ar   19  TRP19      -0.2442
     32  CE2       -6.8160   63.8430    6.5680 C.ar   19  TRP19       0.0810
     33  CE3       -4.5970   64.4130    5.8140 C.ar   19  TRP19       0.0012
     34  CZ2       -6.3940   62.5950    7.0140 C.ar   19  TRP19       0.0191
     35  CZ3       -4.1760   63.1780    6.2540 C.ar   19  TRP19       0.0001
     36  CH2       -5.0700   62.2830    6.8500 C.ar   19  TRP19       0.0015
     37  N          1.1460   60.0810    7.1020 N.3    30  SER30      -0.1217
     38  CA        -0.0040   60.9810    7.0580 C.3    30  SER30       0.1889
     39  C         -1.3130   60.2580    6.7560 C.2    30  SER30       0.2288
     40  O         -2.3490   60.5430    7.3680 O.2    30  SER30      -0.2866
     41  CB         0.2180   62.0900    6.0340 C.3    30  SER30       0.2089
     42  OG         1.1590   63.0280    6.5160 O.3    30  SER30      -0.2183
     43  N        -11.9360   55.5190   -6.4110 N.3    60  ASP60      -0.1225
     44  CA       -11.2870   55.5240   -5.0990 C.3    60  ASP60       0.1805
     45  C        -11.2950   56.9550   -4.5970 C.2    60  ASP60       0.2598
     46  O        -10.5110   57.7810   -5.0590 O.2    60  ASP60      -0.2718
     47  CB        -9.8580   54.9760   -5.2070 C.3    60  ASP60       0.1424
     48  CG        -9.0920   55.0240   -3.8860 C.2    60  ASP60       0.3668
     49  OD1       -9.6770   55.3500   -2.8250 O.co2  60  ASP60      -0.2456
     50  OD2       -7.8780   54.7150   -3.9090 O.co2  60  ASP60      -0.2456
     51  N        -12.1950   57.2450   -3.6600 N.am   61  ILE61      -0.1966
     52  CA       -12.4350   58.6150   -3.2080 C.3    61  ILE61       0.1727
     53  C        -11.7350   58.8990   -1.8790 C.2    61  ILE61       0.2617
     54  O        -11.9500   58.1960   -0.8980 O.2    61  ILE61      -0.2715
     55  CB       -13.9390   58.8730   -3.0610 C.3    61  ILE61       0.0290
     56  CG1      -14.6500   58.5260   -4.3670 C.3    61  ILE61       0.0022
     57  CG2      -14.2080   60.3160   -2.6740 C.3    61  ILE61       0.0023
     58  CD1      -16.1460   58.6750   -4.2980 C.3    61  ILE61       0.0001
     59  N        -10.9070   59.9420   -1.8510 N.am   62  GLY62      -0.1940
     60  CA       -10.0730   60.2170   -0.6910 C.3    62  GLY62       0.2014
     61  C         -8.8490   59.3240   -0.7330 C.2    62  GLY62       0.2639
     62  O         -8.3400   58.8840    0.2940 O.2    62  GLY62      -0.2714
     63  N         -8.3780   59.0640   -1.9490 N.am   63  ALA63      -0.1963
     64  CA        -7.3030   58.1050   -2.2000 C.3    63  ALA63       0.1728
     65  C         -5.9450   58.5490   -1.6720 C.2    63  ALA63       0.2617
     66  O         -5.0380   57.7270   -1.5380 O.2    63  ALA63      -0.2715
     67  CB        -7.1950   57.8330   -3.6870 C.3    63  ALA63       0.0334
     68  N         -5.7960   59.8450   -1.4030 N.am   64  GLY64      -0.1940
     69  CA        -4.5200   60.3930   -0.9670 C.3    64  GLY64       0.2014
     70  C         -3.3900   60.0260   -1.9190 C.2    64  GLY64       0.2638
     71  O         -3.5530   60.0870   -3.1370 O.2    64  GLY64      -0.2714
     72  N         -2.2540   59.6090   -1.3650 N.am   65  ILE65      -0.1977
     73  CA        -1.0870   59.2570   -2.1690 C.3    65  ILE65       0.1596
     74  C         -1.2950   57.9620   -2.9530 C.2    65  ILE65       0.2287
     75  O         -0.4070   57.5190   -3.6890 O.2    65  ILE65      -0.2864
     76  CB         0.1850   59.1470   -1.3150 C.3    65  ILE65       0.0276
     77  CG1        0.0610   57.9960   -0.3100 C.3    65  ILE65       0.0022
     78  CG2        0.4780   60.4760   -0.6250 C.3    65  ILE65       0.0022
     79  CD1        1.3330   57.7460    0.4950 C.3    65  ILE65       0.0001
     80  N         -2.1850   54.5710   -2.0760 N.3    67  ARG67      -0.1231
     81  CA        -1.6820   53.2300   -1.7690 C.3    67  ARG67       0.1694
     82  C         -2.6620   52.1070   -2.1420 C.2    67  ARG67       0.2592
     83  O         -2.2460   51.0030   -2.4550 O.2    67  ARG67      -0.2718
     84  CB        -1.2030   53.1220   -0.3190 C.3    67  ARG67       0.0321
     85  CG        -2.2400   53.4550    0.7060 C.3    67  ARG67       0.0489
     86  CD        -1.6530   53.5670    2.1070 C.3    67  ARG67       0.2205
     87  NE        -2.7420   53.5900    3.0700 N.pl3  67  ARG67      -0.0865
     88  CZ        -3.1820   52.5420    3.7570 C.cat  67  ARG67       0.5346
     89  NH1       -2.6150   51.3510    3.6370 N.pl3  67  ARG67       0.1354
     90  NH2       -4.1970   52.6970    4.5780 N.pl3  67  ARG67       0.1354
     91  N         -3.9570   52.3930   -2.1270 N.am   68  PHE68      -0.1976
     92  CA        -4.9360   51.4300   -2.6210 C.3    68  PHE68       0.1639
     93  C         -5.0850   51.5160   -4.1390 C.2    68  PHE68       0.2290
     94  O         -5.1890   50.4910   -4.8160 O.2    68  PHE68      -0.2864
     95  CB        -6.2930   51.6390   -1.9500 C.3    68  PHE68       0.0560
     96  CG        -6.3110   51.2740   -0.4990 C.ar   68  PHE68      -0.0200
     97  CD1       -6.2760   49.9450   -0.1090 C.ar   68  PHE68      -0.0042
     98  CD2       -6.3690   52.2540    0.4760 C.ar   68  PHE68      -0.0042
     99  CE1       -6.2960   49.5960    1.2380 C.ar   68  PHE68      -0.0003
    100  CE2       -6.3910   51.9100    1.8240 C.ar   68  PHE68      -0.0003
    101  CZ        -6.3520   50.5780    2.1990 C.ar   68  PHE68      -0.0000
    102  N         -9.3310   60.1850   -6.5140 N.3    82  THR82      -0.1203
    103  CA        -9.5810   61.5800   -6.1440 C.3    82  THR82       0.1994
    104  C         -9.1380   61.8900   -4.7110 C.2    82  THR82       0.2618
    105  O         -9.1620   61.0210   -3.8420 O.2    82  THR82      -0.2717
    106  CB       -11.0740   61.9450   -6.2620 C.3    82  THR82       0.1784
    107  OG1      -11.7940   61.3980   -5.1490 O.3    82  THR82      -0.2211
    108  CG2      -11.6680   61.4100   -7.5510 C.3    82  THR82       0.0376
    109  N         -8.7450   63.1390   -4.4740 N.am   83  ASP83      -0.1959
    110  CA        -8.4370   63.6250   -3.1300 C.3    83  ASP83       0.1840
    111  C         -8.5050   65.1420   -3.1570 C.2    83  ASP83       0.2622
    112  O         -8.2550   65.7500   -4.1990 O.2    83  ASP83      -0.2715
    113  CB        -7.0440   63.1650   -2.6900 C.3    83  ASP83       0.1450
    114  CG        -6.8800   63.1470   -1.1790 C.2    83  ASP83       0.3671
    115  OD1       -7.1750   62.1000   -0.5630 O.co2  83  ASP83      -0.2456
    116  OD2       -6.4620   64.1770   -0.6020 O.co2  83  ASP83      -0.2456
    117  N         -8.8420   65.7670   -2.0310 N.am   84  PHE84      -0.1960
    118  CA        -8.9210   67.2290   -2.0320 C.3    84  PHE84       0.1771
    119  C         -7.6040   67.9280   -1.6670 C.2    84  PHE84       0.2619
    120  O         -7.5090   69.1520   -1.7100 O.2    84  PHE84      -0.2715
    121  CB       -10.1580   67.7620   -1.2730 C.3    84  PHE84       0.0574
    122  CG       -10.0950   67.6340    0.2320 C.ar   84  PHE84      -0.0200
    123  CD1      -11.0000   68.3290    1.0130 C.ar   84  PHE84      -0.0042
    124  CD2       -9.1590   66.8320    0.8600 C.ar   84  PHE84      -0.0042
    125  CE1      -10.9690   68.2360    2.3820 C.ar   84  PHE84      -0.0003
    126  CE2       -9.1220   66.7380    2.2360 C.ar   84  PHE84      -0.0003
    127  CZ       -10.0290   67.4370    2.9980 C.ar   84  PHE84      -0.0000
    128  N         -6.5830   67.1370   -1.3470 N.am   85  ILE85      -0.1977
    129  CA        -5.2440   67.6820   -1.1500 C.3    85  ILE85       0.1596
    130  C         -4.3800   67.4700   -2.3900 C.2    85  ILE85       0.2287
    131  O         -4.0950   66.3390   -2.7720 O.2    85  ILE85      -0.2864
    132  CB        -4.5410   67.0730    0.0680 C.3    85  ILE85       0.0276
    133  CG1       -5.3160   67.3860    1.3510 C.3    85  ILE85       0.0022
    134  CG2       -3.1290   67.6060    0.1650 C.3    85  ILE85       0.0022
    135  CD1       -5.4740   68.8530    1.6190 C.3    85  ILE85       0.0001
    136  N         -1.0210   65.3990   -2.4260 N.3    88  PHE88      -0.1241
    137  CA        -1.2710   63.9660   -2.2810 C.3    88  PHE88       0.1605
    138  C         -1.5240   63.3460   -3.6500 C.2    88  PHE88       0.2264
    139  O         -0.9260   62.3280   -3.9950 O.2    88  PHE88      -0.2867
    140  CB        -2.4480   63.6940   -1.3320 C.3    88  PHE88       0.0534
    141  CG        -2.1640   64.0320    0.1150 C.ar   88  PHE88      -0.0203
    142  CD1       -0.8850   64.3760    0.5390 C.ar   88  PHE88      -0.0042
    143  CD2       -3.1850   63.9970    1.0550 C.ar   88  PHE88      -0.0042
    144  CE1       -0.6330   64.6780    1.8730 C.ar   88  PHE88      -0.0003
    145  CE2       -2.9390   64.3050    2.3830 C.ar   88  PHE88      -0.0003
    146  CZ        -1.6610   64.6430    2.7890 C.ar   88  PHE88      -0.0000
    147  N        -10.3170   67.3890   -5.8710 N.3   106  GLY106     -0.1210
    148  CA       -11.5920   67.9810   -5.5080 C.3   106  GLY106      0.1956
    149  C        -12.1490   67.3800   -4.2340 C.2   106  GLY106      0.2612
    150  O        -11.6890   66.3380   -3.7630 O.2   106  GLY106     -0.2717
    151  N        -13.1520   68.0400   -3.6710 N.am  107  ASP107     -0.1959
    152  CA       -13.7900   67.5550   -2.4590 C.3   107  ASP107      0.1840
    153  C        -14.8300   66.4980   -2.8210 C.2   107  ASP107      0.2621
    154  O        -15.5830   66.6640   -3.7780 O.2   107  ASP107     -0.2715
    155  CB       -14.4480   68.7250   -1.7240 C.3   107  ASP107      0.1450
    156  CG       -14.8740   68.3680   -0.3180 C.2   107  ASP107      0.3671
    157  OD1      -15.6140   67.3750   -0.1490 O.co2 107  ASP107     -0.2456
    158  OD2      -14.4640   69.0820    0.6250 O.co2 107  ASP107     -0.2456
    159  N        -14.8640   65.4150   -2.0530 N.am  108  ALA108     -0.1977
    160  CA       -15.8250   64.3310   -2.2520 C.3   108  ALA108      0.1597
    161  C        -17.2730   64.8290   -2.1750 C.2   108  ALA108      0.2287
    162  O        -18.1780   64.2640   -2.7950 O.2   108  ALA108     -0.2864
    163  CB       -15.5930   63.2400   -1.2230 C.3   108  ALA108      0.0319
    164  N        -11.6960   54.4590    2.2190 N.3   123  ASN123     -0.1225
    165  CA       -11.0200   53.9450    3.4020 C.3   123  ASN123      0.1785
    166  C        -10.6210   55.1530    4.2420 C.2   123  ASN123      0.2597
    167  O         -9.7640   55.9320    3.8250 O.2   123  ASN123     -0.2718
    168  CB        -9.7960   53.1020    3.0000 C.3   123  ASN123      0.1169
    169  CG        -9.1210   52.4300    4.1920 C.2   123  ASN123      0.2627
    170  OD1       -9.5390   51.3590    4.6390 O.2   123  ASN123     -0.2716
    171  ND2       -8.0720   53.0550    4.7070 N.am  123  ASN123     -0.0877
    172  N        -11.2720   55.3150    5.3970 N.am  124  TRP124     -0.1962
    173  CA       -11.1270   56.5060    6.2510 C.3   124  TRP124      0.1771
    174  C        -11.6460   57.8080    5.6020 C.2   124  TRP124      0.2619
    175  O        -10.8610   58.7140    5.3320 O.2   124  TRP124     -0.2715
    176  CB        -9.6650   56.7260    6.6680 C.3   124  TRP124      0.0590
    177  CG        -9.0880   55.7710    7.6710 C.ar  124  TRP124      0.0006
    178  CD1       -9.6880   55.2810    8.8010 C.ar  124  TRP124      0.0946
    179  CD2       -7.7750   55.2140    7.6340 C.ar  124  TRP124      0.0152
    180  NE1       -8.8170   54.4490    9.4740 N.ar  124  TRP124     -0.2442
    181  CE2       -7.6360   54.3880    8.7780 C.ar  124  TRP124      0.0810
    182  CE3       -6.6940   55.3250    6.7540 C.ar  124  TRP124      0.0012
    183  CZ2       -6.4650   53.6880    9.0530 C.ar  124  TRP124      0.0191
    184  CZ3       -5.5360   54.6300    7.0260 C.ar  124  TRP124      0.0001
    185  CH2       -5.4280   53.8210    8.1680 C.ar  124  TRP124      0.0015
    186  N        -12.9530   57.9180    5.3760 N.am  125  LEU125     -0.1977
    187  CA       -13.4930   59.1200    4.7330 C.3   125  LEU125      0.1596
    188  C        -14.7420   59.7110    5.3980 C.2   125  LEU125      0.2287
    189  O        -14.8200   60.9240    5.5950 O.2   125  LEU125     -0.2864
    190  CB       -13.7570   58.8800    3.2450 C.3   125  LEU125      0.0297
    191  CG       -14.2480   60.1090    2.4700 C.3   125  LEU125      0.0022
    192  CD1      -13.1910   61.2120    2.4650 C.3   125  LEU125      0.0001
    193  CD2      -14.6490   59.7380    1.0490 C.3   125  LEU125      0.0001
    194  N        -14.5450   62.1710    8.1300 N.3   126  TYR126     -0.1227
    195  CA       -14.1600   63.5380    7.7780 C.3   126  TYR126      0.1736
    196  C        -15.3010   64.2960    7.0910 C.2   126  TYR126      0.2595
    197  O        -15.0820   65.3500    6.4910 O.2   126  TYR126     -0.2718
    198  CB       -12.8960   63.5490    6.9050 C.3   126  TYR126      0.0548
    199  CG       -11.7050   62.8680    7.5420 C.ar  126  TYR126     -0.0200
    200  CD1      -11.1270   63.3780    8.6960 C.ar  126  TYR126     -0.0009
    201  CD2      -11.1500   61.7210    6.9830 C.ar  126  TYR126     -0.0009
    202  CE1      -10.0380   62.7550    9.2850 C.ar  126  TYR126      0.0417
    203  CE2      -10.0550   61.0930    7.5650 C.ar  126  TYR126      0.0417
    204  CZ        -9.5070   61.6180    8.7160 C.ar  126  TYR126      0.1957
    205  OH        -8.4330   61.0020    9.3100 O.3   126  TYR126     -0.2866
    206  N        -16.5130   63.7560    7.1900 N.am  127  LEU127     -0.1980
    207  CA       -17.7140   64.4080    6.6680 C.3   127  LEU127      0.1596
    208  C        -18.7210   64.6390    7.7940 C.2   127  LEU127      0.2287
    209  O        -18.7050   63.9240    8.7850 O.2   127  LEU127     -0.2864
    210  CB       -18.3660   63.5500    5.5840 C.3   127  LEU127      0.0297
    211  CG       -17.5380   63.2400    4.3380 C.3   127  LEU127      0.0022
    212  CD1      -18.3230   62.3800    3.3610 C.3   127  LEU127      0.0001
    213  CD2      -17.0960   64.5130    3.6660 C.3   127  LEU127      0.0001
@<TRIPOS>BOND
     1   108   106    1
     2   102   103    1
     3    43    44    1
     4   106   103    1
     5   106   107    1
     6   103   104    1
     7   147   148    1
     8   148   149    1
     9    47    44    1
    10    47    48    1
    11    44    45    1
    12    46    45    2
    13    94    93    2
    14   104   109   am
    15   104   105    2
    16    45    51   am
    17   109   110    1
    18    56    58    1
    19    56    55    1
    20   149   150    2
    21   149   151   am
    22   112   111    2
    23    93    92    1
    24   139   138    2
    25    50    48   ar
    26    48    49   ar
    27   154   153    2
    28    75    74    2
    29    67    64    1
    30   151   152    1
    31    51    52    1
    32   138   137    1
    33    52    55    1
    34    52    53    1
    35   111   110    1
    36   111   117   am
    37    71    70    2
    38   110   113    1
    39    55    57    1
    40    74    73    1
    41   153   152    1
    42   153   159   am
    43   162   161    2
    44   131   130    2
    45   113   114    1
    46    92    91    1
    47    92    95    1
    48   152   155    1
    49    83    82    2
    50   136   137    1
    51   130   129    1
    52   137   140    1
    53   160   161    1
    54   160   159    1
    55   160   163    1
    56    64    63    1
    57    64    65    1
    58    73    72    1
    59    73    76    1
    60    82    91   am
    61    82    81    1
    62    80    81    1
    63   118   117    1
    64   118   119    1
    65   118   121    1
    66    95    96    1
    67    63    61   am
    68    70    72   am
    69    70    69    1
    70    53    59   am
    71    53    54    2
    72    59    60    1
    73    81    84    1
    74   155   156    1
    75   120   119    2
    76    65    66    2
    77    65    68   am
    78   119   128   am
    79    68    69    1
    80   128   129    1
    81   140   141    1
    82    76    78    1
    83    76    77    1
    84   121   122    1
    85   114   116   ar
    86   114   115   ar
    87   129   132    1
    88    61    60    1
    89    61    62    2
    90    96    97   ar
    91    96    98   ar
    92    84    85    1
    93   156   157   ar
    94   156   158   ar
    95    77    79    1
    96    97    99   ar
    97   132   134    1
    98   132   133    1
    99   141   142   ar
   100   141   143   ar
   101   122   124   ar
   102   122   123   ar
   103    98   100   ar
   104   142   144   ar
   105    85    86    1
   106   124   126   ar
   107   123   125   ar
   108   193   191    1
   109   143   145   ar
   110    99   101   ar
   111   133   135    1
   112   100   101   ar
   113   144   146   ar
   114    86    87    1
   115   164   165    1
   116   126   127   ar
   117     7     6    1
   118     7     8    1
   119   125   127   ar
   120   145   146   ar
   121   192   191    1
   122   191   190    1
   123     6     5    1
   124   168   165    1
   125   168   169    1
   126    87    88    2
   127    10     9    1
   128   190   187    1
   129   212   211    1
   130     8     9    2
   131   165   166    1
   132    89    88    1
   133   213   211    1
   134    88    90    1
   135     9    11    1
   136   167   166    2
   137     5     2    1
   138   169   170    2
   139   169   171   am
   140   166   172   am
   141   211   210    1
   142   187   186    1
   143   187   188    1
   144    26    25    2
   145    27    28    1
   146    27    24    1
   147     4     3    2
   148     3     2    1
   149     2     1    1
   150    25    24    1
   151   175   174    2
   152   186   174   am
   153   172   173    1
   154   188   189    2
   155   210   207    1
   156   174   173    1
   157    28    30   ar
   158    28    29   ar
   159    33    30   ar
   160    33    35   ar
   161    30    32   ar
   162    24    23    1
   163    41    42    1
   164    41    38    1
   165    29    31   ar
   166   173   176    1
   167    35    36   ar
   168    14    15    2
   169    14    13    1
   170   197   196    2
   171    32    31   ar
   172    32    34   ar
   173   207   206    1
   174   207   208    1
   175   176   177    1
   176   182   184   ar
   177   182   179   ar
   178    39    38    1
   179    39    40    2
   180    16    13    1
   181    16    17    1
   182    36    34   ar
   183   198   199    1
   184   198   195    1
   185   201   199   ar
   186   201   203   ar
   187   184   185   ar
   188    38    37    1
   189   196   206   am
   190   196   195    1
   191    13    12    1
   192   199   200   ar
   193   203   204   ar
   194   179   177   ar
   195   179   181   ar
   196   177   178   ar
   197   195   194    1
   198   208   209    2
   199    17    19   ar
   200    17    18   ar
   201    19    21   ar
   202   185   183   ar
   203   200   202   ar
   204   204   202   ar
   205   204   205    1
   206   181   183   ar
   207   181   180   ar
   208   178   180   ar
   209    18    20   ar
   210    21    22   ar
   211    20    22   ar
