@<TRIPOS>MOLECULE
tmp/4krgA03.pdb
 109 104 0 0 0
SMALL
GASTEIGER

@<TRIPOS>ATOM
      1  N        -22.8030   31.5010   31.4760 N.3   270  ASP270     -0.1239
      2  CA       -21.5140   30.8920   31.8050 C.3   270  ASP270      0.1674
      3  C        -21.6910   29.6130   32.6050 C.2   270  ASP270      0.2266
      4  O        -21.1370   28.5690   32.2530 O.2   270  ASP270     -0.2867
      5  CB       -20.6390   31.8420   32.6330 C.3   270  ASP270      0.1410
      6  CG       -20.2500   33.0940   31.8800 C.2   270  ASP270      0.3668
      7  OD1      -20.5430   33.1840   30.6780 O.co2 270  ASP270     -0.2456
      8  OD2      -19.6360   33.9860   32.5000 O.co2 270  ASP270     -0.2456
      9  N        -23.2990   26.8080   30.3650 N.3   273  PHE273     -0.1227
     10  CA       -22.3710   26.2750   29.3730 C.3   273  PHE273      0.1736
     11  C        -21.2150   25.5220   30.0200 C.2   273  PHE273      0.2596
     12  O        -20.5520   24.7160   29.3700 O.2   273  PHE273     -0.2718
     13  CB       -21.8090   27.4030   28.5000 C.3   273  PHE273      0.0547
     14  CG       -22.7190   27.8300   27.3670 C.ar  273  PHE273     -0.0202
     15  CD1      -23.0670   26.9400   26.3540 C.ar  273  PHE273     -0.0042
     16  CD2      -23.1860   29.1370   27.2880 C.ar  273  PHE273     -0.0042
     17  CE1      -23.8870   27.3340   25.3060 C.ar  273  PHE273     -0.0003
     18  CE2      -24.0070   29.5360   26.2430 C.ar  273  PHE273     -0.0003
     19  CZ       -24.3530   28.6320   25.2470 C.ar  273  PHE273     -0.0000
     20  N        -20.9660   25.7970   31.2950 N.am  274  SER274     -0.1952
     21  CA       -19.8690   25.1540   32.0150 C.3   274  SER274      0.1924
     22  C        -20.0400   23.6380   32.0960 C.2   274  SER274      0.2314
     23  O        -19.0590   22.8990   32.1800 O.2   274  SER274     -0.2863
     24  CB       -19.7210   25.7440   33.4170 C.3   274  SER274      0.2116
     25  OG       -20.7500   25.2850   34.2700 O.3   274  SER274     -0.2180
     26  N        -19.4900   22.3740   27.8340 N.3   277  ILE277     -0.1231
     27  CA       -18.2740   22.6440   27.0830 C.3   277  ILE277      0.1692
     28  C        -17.0540   22.1770   27.8710 C.2   277  ILE277      0.2592
     29  O        -16.8530   22.5690   29.0220 O.2   277  ILE277     -0.2718
     30  CB       -18.1250   24.1370   26.7330 C.3   277  ILE277      0.0266
     31  CG1      -19.3470   24.6380   25.9610 C.3   277  ILE277      0.0019
     32  CG2      -16.8560   24.3640   25.9270 C.3   277  ILE277      0.0020
     33  CD1      -19.3880   26.1520   25.8200 C.3   277  ILE277      0.0001
     34  N        -16.2560   21.3170   27.2460 N.am  278  ASP278     -0.1960
     35  CA       -15.0200   20.8220   27.8330 C.3   278  ASP278      0.1840
     36  C        -13.9400   20.8930   26.7690 C.2   278  ASP278      0.2622
     37  O        -14.2020   21.3760   25.6720 O.2   278  ASP278     -0.2715
     38  CB       -15.2040   19.3890   28.3360 C.3   278  ASP278      0.1450
     39  CG       -15.8950   18.4920   27.3220 C.2   278  ASP278      0.3671
     40  OD1      -15.5850   18.5920   26.1210 O.co2 278  ASP278     -0.2456
     41  OD2      -16.7560   17.6820   27.7240 O.co2 278  ASP278     -0.2456
     42  N        -12.7410   20.4030   27.0680 N.am  279  ASP279     -0.1971
     43  CA       -11.6480   20.4680   26.0930 C.3   279  ASP279      0.1709
     44  C        -11.7350   19.4020   24.9920 C.2   279  ASP279      0.2293
     45  O        -10.8580   19.3160   24.1370 O.2   279  ASP279     -0.2864
     46  CB       -10.2740   20.4430   26.7770 C.3   279  ASP279      0.1436
     47  CG       -10.0110   19.1480   27.5140 C.2   279  ASP279      0.3671
     48  OD1      -10.9690   18.5740   28.0800 O.co2 279  ASP279     -0.2456
     49  OD2       -8.8390   18.7090   27.5320 O.co2 279  ASP279     -0.2456
     50  N         -7.3640   22.9700   22.9750 N.3   284  LYS284     -0.1245
     51  CA        -6.5000   24.1260   23.1920 C.3   284  LYS284      0.1561
     52  C         -6.0120   24.6970   21.8660 C.2   284  LYS284      0.2260
     53  O         -5.6660   23.9490   20.9500 O.2   284  LYS284     -0.2867
     54  CB        -5.3120   23.7530   24.0700 C.3   284  LYS284      0.0271
     55  CG        -5.7070   23.3190   25.4700 C.3   284  LYS284      0.0035
     56  CD        -4.5090   22.8010   26.2310 C.3   284  LYS284      0.0206
     57  CE        -4.8790   22.4060   27.6370 C.3   284  LYS284      0.1093
     58  NZ        -3.7260   21.7300   28.2850 N.3   284  LYS284     -0.1314
     59  N        -23.1460   34.2930   24.5960 N.3   302  VAL302     -0.1231
     60  CA       -22.0140   33.4770   25.0060 C.3   302  VAL302      0.1692
     61  C        -20.9000   34.4060   25.4490 C.2   302  VAL302      0.2592
     62  O        -20.6170   35.4000   24.7770 O.2   302  VAL302     -0.2718
     63  CB       -21.4980   32.6340   23.8180 C.3   302  VAL302      0.0266
     64  CG1      -20.2080   31.9130   24.1810 C.3   302  VAL302      0.0020
     65  CG2      -22.5550   31.6510   23.3520 C.3   302  VAL302      0.0020
     66  N        -20.2770   34.0960   26.5800 N.am  303  ASN303     -0.1974
     67  CA       -19.1650   34.8940   27.0790 C.3   303  ASN303      0.1688
     68  C        -17.8930   34.4630   26.3620 C.2   303  ASN303      0.2292
     69  O        -17.1250   33.6380   26.8650 O.2   303  ASN303     -0.2864
     70  CB       -19.0240   34.7160   28.5900 C.3   303  ASN303      0.1181
     71  CG       -18.0460   35.6830   29.2070 C.2   303  ASN303      0.2629
     72  OD1      -17.2490   36.3160   28.5100 O.2   303  ASN303     -0.2716
     73  ND2      -18.0970   35.8030   30.5320 N.am  303  ASN303     -0.0877
     74  N        -14.5550   34.7030   28.1720 N.3   306  LEU306     -0.1231
     75  CA       -14.3400   33.6210   29.1240 C.3   306  LEU306      0.1693
     76  C        -14.0340   32.3140   28.3930 C.2   306  LEU306      0.2591
     77  O        -13.2120   31.5130   28.8420 O.2   306  LEU306     -0.2718
     78  CB       -15.5580   33.4570   30.0310 C.3   306  LEU306      0.0284
     79  CG       -15.4290   32.3470   31.0690 C.3   306  LEU306      0.0019
     80  CD1      -14.3240   32.6980   32.0520 C.3   306  LEU306      0.0001
     81  CD2      -16.7430   32.1430   31.7840 C.3   306  LEU306      0.0001
     82  N        -14.6930   32.1070   27.2580 N.am  307  LEU307     -0.1980
     83  CA       -14.4250   30.9420   26.4350 C.3   307  LEU307      0.1596
     84  C        -12.9530   30.9070   26.0430 C.2   307  LEU307      0.2287
     85  O        -12.2580   29.9460   26.3330 O.2   307  LEU307     -0.2864
     86  CB       -15.3040   30.9600   25.1910 C.3   307  LEU307      0.0297
     87  CG       -15.3230   29.6600   24.3960 C.3   307  LEU307      0.0022
     88  CD1      -15.8790   28.5470   25.2460 C.3   307  LEU307      0.0001
     89  CD2      -16.1620   29.8250   23.1390 C.3   307  LEU307      0.0001
     90  N        -10.6440   30.3600   29.2850 N.3   310  LYS310     -0.1231
     91  CA       -10.6840   29.0590   29.9370 C.3   310  LYS310      0.1693
     92  C        -10.2020   27.9150   29.0550 C.2   310  LYS310      0.2592
     93  O         -9.6650   26.9360   29.5570 O.2   310  LYS310     -0.2718
     94  CB       -12.0920   28.7670   30.4620 C.3   310  LYS310      0.0285
     95  CG       -12.4970   29.6010   31.6640 C.3   310  LYS310      0.0035
     96  CD       -11.6280   29.2910   32.8810 C.3   310  LYS310      0.0206
     97  CE       -12.0860   30.0790   34.0930 C.3   310  LYS310      0.1093
     98  NZ       -11.0660   30.0560   35.1730 N.3   310  LYS310     -0.1314
     99  N        -10.3930   28.0260   27.7460 N.am  311  PHE311     -0.1976
    100  CA        -9.9930   26.9360   26.8640 C.3   311  PHE311      0.1639
    101  C         -8.7970   27.2580   25.9750 C.2   311  PHE311      0.2290
    102  O         -8.4380   26.4670   25.1060 O.2   311  PHE311     -0.2864
    103  CB       -11.1870   26.4290   26.0550 C.3   311  PHE311      0.0560
    104  CG       -12.2760   25.8460   26.9120 C.ar  311  PHE311     -0.0200
    105  CD1      -12.1100   24.6040   27.5160 C.ar  311  PHE311     -0.0042
    106  CD2      -13.4520   26.5450   27.1380 C.ar  311  PHE311     -0.0042
    107  CE1      -13.1050   24.0680   28.3190 C.ar  311  PHE311     -0.0003
    108  CE2      -14.4490   26.0160   27.9410 C.ar  311  PHE311     -0.0003
    109  CZ       -14.2750   24.7760   28.5320 C.ar  311  PHE311     -0.0000
@<TRIPOS>BOND
     1    53    52    2
     2    52    51    1
     3    50    51    1
     4    89    87    1
     5    51    54    1
     6    65    63    1
     7    63    64    1
     8    63    60    1
     9    54    55    1
    10    45    44    2
    11    87    86    1
    12    87    88    1
    13    59    60    1
    14    62    61    2
    15    44    43    1
    16    60    61    1
    17   102   101    2
    18    86    83    1
    19    19    17   ar
    20    19    18   ar
    21    17    15   ar
    22    61    66   am
    23    55    56    1
    24    37    36    2
    25    33    31    1
    26    32    30    1
    27    31    30    1
    28   101   100    1
    29    84    85    2
    30    84    83    1
    31   103   100    1
    32   103   104    1
    33    43    46    1
    34    43    42    1
    35    40    39   ar
    36    56    57    1
    37    18    16   ar
    38    15    14   ar
    39    68    69    2
    40    68    67    1
    41    83    82    1
    42    66    67    1
    43    30    27    1
    44    36    42   am
    45    36    35    1
    46    46    47    1
    47   100    99    1
    48   104   106   ar
    49   104   105   ar
    50    67    70    1
    51    27    26    1
    52    27    28    1
    53   106   108   ar
    54    34    35    1
    55    34    28   am
    56    82    76   am
    57    16    14   ar
    58    39    41   ar
    59    39    38    1
    60    14    13    1
    61    47    49   ar
    62    47    48   ar
    63   105   107   ar
    64    57    58    1
    65    99    92   am
    66    35    38    1
    67    28    29    2
    68   108   109   ar
    69    74    75    1
    70   107   109   ar
    71    76    77    2
    72    76    75    1
    73    13    10    1
    74    72    71    2
    75    70    71    1
    76    92    93    2
    77    92    91    1
    78    75    78    1
    79    71    73   am
    80    90    91    1
    81    12    11    2
    82    10    11    1
    83    10     9    1
    84    91    94    1
    85    11    20   am
    86    78    79    1
    87    94    95    1
    88     7     6   ar
    89    79    81    1
    90    79    80    1
    91    20    21    1
    92     1     2    1
    93    95    96    1
    94     2     3    1
    95     2     5    1
    96     6     8   ar
    97     6     5    1
    98    21    22    1
    99    21    24    1
   100    22    23    2
   101     4     3    2
   102    96    97    1
   103    24    25    1
   104    97    98    1
