@<TRIPOS>MOLECULE
tmp/4krgA02.pdb
 133 131 0 0 0
SMALL
GASTEIGER

@<TRIPOS>ATOM
      1  N         -6.0080   26.0220   21.7700 N.3   285  ASN285     -0.1225
      2  CA        -5.5830   26.7360   20.5600 C.3   285  ASN285      0.1785
      3  C         -6.4650   26.4860   19.3210 C.2   285  ASN285      0.2598
      4  O         -6.0500   26.7410   18.1920 O.2   285  ASN285     -0.2718
      5  CB        -4.1000   26.4610   20.2500 C.3   285  ASN285      0.1169
      6  CG        -3.5190   27.4390   19.2370 C.2   285  ASN285      0.2627
      7  OD1       -3.7750   28.6460   19.3000 O.2   285  ASN285     -0.2716
      8  ND2       -2.7610   26.9170   18.2800 N.am  285  ASN285     -0.0877
      9  N         -7.6880   26.0090   19.5300 N.am  286  SER286     -0.1938
     10  CA        -8.6310   25.8570   18.4280 C.3   286  SER286      0.2055
     11  C         -9.3280   27.1910   18.1560 C.2   286  SER286      0.2643
     12  O         -9.1680   28.1410   18.9210 O.2   286  SER286     -0.2714
     13  CB        -9.6530   24.7740   18.7480 C.3   286  SER286      0.2130
     14  OG       -10.3720   25.1030   19.9110 O.3   286  SER286     -0.2179
     15  N        -10.0740   27.2760   17.0560 N.am  287  THR287     -0.1950
     16  CA       -10.9140   28.4420   16.7990 C.3   287  THR287      0.1897
     17  C        -12.3870   28.0420   16.8770 C.2   287  THR287      0.2313
     18  O        -12.8520   27.1990   16.1200 O.2   287  THR287     -0.2863
     19  CB       -10.6070   29.0970   15.4350 C.3   287  THR287      0.1794
     20  OG1       -9.2300   29.4950   15.3930 O.3   287  THR287     -0.2208
     21  CG2      -11.4760   30.3260   15.2350 C.3   287  THR287      0.0378
     22  N         -9.1220   30.5470   20.2180 N.3   314  ASN314     -0.1225
     23  CA        -9.5240   31.7620   19.5310 C.3   314  ASN314      0.1785
     24  C        -11.0200   31.6980   19.2510 C.2   314  ASN314      0.2597
     25  O        -11.5790   30.6130   19.1160 O.2   314  ASN314     -0.2718
     26  CB        -8.7440   31.9150   18.2260 C.3   314  ASN314      0.1169
     27  CG        -7.2450   31.7580   18.4160 C.2   314  ASN314      0.2627
     28  OD1       -6.6660   32.2900   19.3620 O.2   314  ASN314     -0.2716
     29  ND2       -6.6100   31.0130   17.5150 N.am  314  ASN314     -0.0877
     30  N        -11.6780   32.8470   19.1730 N.am  315  VAL315     -0.1966
     31  CA       -13.1270   32.8540   19.0170 C.3   315  VAL315      0.1727
     32  C        -13.5650   33.8790   17.9760 C.2   315  VAL315      0.2616
     33  O        -13.0760   35.0100   17.9700 O.2   315  VAL315     -0.2715
     34  CB       -13.8520   33.1580   20.3610 C.3   315  VAL315      0.0290
     35  CG1      -15.3590   33.2590   20.1520 C.3   315  VAL315      0.0023
     36  CG2      -13.5360   32.1110   21.4130 C.3   315  VAL315      0.0023
     37  N        -14.4590   33.4580   17.0820 N.am  316  TRP316     -0.1974
     38  CA       -15.2010   34.3730   16.2270 C.3   316  TRP316      0.1640
     39  C        -16.6700   34.3400   16.6410 C.2   316  TRP316      0.2290
     40  O        -17.3250   33.3050   16.5500 O.2   316  TRP316     -0.2864
     41  CB       -15.0710   33.9890   14.7540 C.3   316  TRP316      0.0576
     42  CG       -15.8390   34.9120   13.8620 C.ar  316  TRP316      0.0006
     43  CD1      -17.1430   34.7940   13.4860 C.ar  316  TRP316      0.0946
     44  CD2      -15.3400   36.1030   13.2460 C.ar  316  TRP316      0.0152
     45  NE1      -17.4920   35.8430   12.6640 N.ar  316  TRP316     -0.2442
     46  CE2      -16.4080   36.6590   12.5000 C.ar  316  TRP316      0.0810
     47  CE3      -14.1060   36.7510   13.2390 C.ar  316  TRP316      0.0012
     48  CZ2      -16.2630   37.8340   11.7570 C.ar  316  TRP316      0.0191
     49  CZ3      -13.9640   37.9130   12.5020 C.ar  316  TRP316      0.0001
     50  CH2      -15.0390   38.4450   11.7710 C.ar  316  TRP316      0.0015
     51  N         -7.2960   37.0700   20.8220 N.3   339  ARG339     -0.1245
     52  CA        -7.8720   35.8090   20.3880 C.3   339  ARG339      0.1563
     53  C         -9.3710   35.9150   20.1230 C.2   339  ARG339      0.2260
     54  O         -9.9470   35.0430   19.4800 O.2   339  ARG339     -0.2867
     55  CB        -7.6120   34.7280   21.4340 C.3   339  ARG339      0.0307
     56  CG        -6.1440   34.4520   21.7080 C.3   339  ARG339      0.0489
     57  CD        -6.0000   33.5010   22.8680 C.3   339  ARG339      0.2205
     58  NE        -6.5470   34.0900   24.0860 N.pl3 339  ARG339     -0.0865
     59  CZ        -6.5390   33.5120   25.2820 C.cat 339  ARG339      0.5346
     60  NH1       -6.0030   32.3080   25.4490 N.pl3 339  ARG339      0.1354
     61  NH2       -7.0700   34.1470   26.3180 N.pl3 339  ARG339      0.1354
     62  N        -12.6690   37.7500   18.5320 N.3   341  ARG341     -0.1245
     63  CA       -13.0700   38.6150   17.4250 C.3   341  ARG341      0.1563
     64  C        -14.5850   38.5900   17.2750 C.2   341  ARG341      0.2260
     65  O        -15.2240   37.5910   17.5880 O.2   341  ARG341     -0.2867
     66  CB       -12.4200   38.1530   16.1150 C.3   341  ARG341      0.0307
     67  CG       -10.9300   37.9000   16.1880 C.3   341  ARG341      0.0489
     68  CD       -10.1360   39.1660   16.3110 C.3   341  ARG341      0.2205
     69  NE        -8.7260   38.9060   16.5950 N.pl3 341  ARG341     -0.0865
     70  CZ        -7.7790   38.7790   15.6730 C.cat 341  ARG341      0.5346
     71  NH1       -8.0760   38.8930   14.3830 N.pl3 341  ARG341      0.1354
     72  NH2       -6.5290   38.5440   16.0430 N.pl3 341  ARG341      0.1354
     73  N        -17.7330   33.0050    5.3980 N.3   355  TRP355     -0.1241
     74  CA       -16.7180   32.0280    5.7680 C.3   355  TRP355      0.1605
     75  C        -16.5550   30.9320    4.7190 C.2   355  TRP355      0.2264
     76  O        -15.4720   30.3820    4.5480 O.2   355  TRP355     -0.2867
     77  CB       -16.9790   31.4780    7.1730 C.3   355  TRP355      0.0550
     78  CG       -16.7320   32.5080    8.2290 C.ar  355  TRP355      0.0003
     79  CD1      -17.6530   33.0670    9.0690 C.ar  355  TRP355      0.0946
     80  CD2      -15.4740   33.1180    8.5320 C.ar  355  TRP355      0.0152
     81  NE1      -17.0410   33.9830    9.8900 N.ar  355  TRP355     -0.2442
     82  CE2      -15.7040   34.0400    9.5860 C.ar  355  TRP355      0.0810
     83  CE3      -14.1720   32.9890    8.0340 C.ar  355  TRP355      0.0012
     84  CZ2      -14.6820   34.8140   10.1400 C.ar  355  TRP355      0.0191
     85  CZ3      -13.1640   33.7520    8.5760 C.ar  355  TRP355      0.0001
     86  CH2      -13.4240   34.6510    9.6300 C.ar  355  TRP355      0.0015
     87  N        -13.0130   29.6560    2.6840 N.3   359  ASP359     -0.1225
     88  CA       -12.6280   28.2690    2.9510 C.3   359  ASP359      0.1805
     89  C        -12.2610   28.0120    4.4070 C.2   359  ASP359      0.2598
     90  O        -11.2720   27.3370    4.7020 O.2   359  ASP359     -0.2718
     91  CB       -11.4960   27.8040    2.0290 C.3   359  ASP359      0.1424
     92  CG       -11.9820   27.4730    0.6240 C.2   359  ASP359      0.3668
     93  OD1      -12.4700   26.3380    0.3970 O.co2 359  ASP359     -0.2456
     94  OD2      -11.8670   28.3520   -0.2540 O.co2 359  ASP359     -0.2456
     95  N        -13.0810   28.5420    5.3060 N.am  360  ALA360     -0.1966
     96  CA       -12.8980   28.3540    6.7370 C.3   360  ALA360      0.1728
     97  C        -13.4250   27.0000    7.1730 C.2   360  ALA360      0.2617
     98  O        -14.4350   26.5170    6.6670 O.2   360  ALA360     -0.2715
     99  CB       -13.6020   29.4480    7.5080 C.3   360  ALA360      0.0334
    100  N        -12.7270   26.3900    8.1240 N.am  361  SER361     -0.1936
    101  CA       -13.2270   25.2060    8.7990 C.3   361  SER361      0.2055
    102  C        -12.9980   25.3880   10.2990 C.2   361  SER361      0.2643
    103  O        -11.9190   25.1040   10.8140 O.2   361  SER361     -0.2714
    104  CB       -12.5350   23.9520    8.2750 C.3   361  SER361      0.2130
    105  OG       -12.9120   23.6940    6.9300 O.3   361  SER361     -0.2179
    106  N        -14.0120   25.8900   10.9950 N.am  362  PHE362     -0.1959
    107  CA       -13.8970   26.1230   12.4290 C.3   362  PHE362      0.1771
    108  C        -13.8450   24.8000   13.1730 C.2   362  PHE362      0.2619
    109  O        -14.2130   23.7670   12.6210 O.2   362  PHE362     -0.2715
    110  CB       -15.0700   26.9540   12.9300 C.3   362  PHE362      0.0574
    111  CG       -15.0610   28.3680   12.4390 C.ar  362  PHE362     -0.0200
    112  CD1      -14.5120   29.3780   13.2140 C.ar  362  PHE362     -0.0042
    113  CD2      -15.5990   28.6940   11.2040 C.ar  362  PHE362     -0.0042
    114  CE1      -14.5020   30.6880   12.7680 C.ar  362  PHE362     -0.0003
    115  CE2      -15.5890   30.0030   10.7530 C.ar  362  PHE362     -0.0003
    116  CZ       -15.0400   30.9990   11.5390 C.ar  362  PHE362     -0.0000
    117  N        -13.4020   24.8330   14.4270 N.am  363  ASP363     -0.1971
    118  CA       -13.1910   23.6020   15.1940 C.3   363  ASP363      0.1709
    119  C        -14.4020   23.1300   16.0000 C.2   363  ASP363      0.2293
    120  O        -14.4870   21.9620   16.3710 O.2   363  ASP363     -0.2864
    121  CB       -11.9700   23.7450   16.1090 C.3   363  ASP363      0.1436
    122  CG       -10.6650   23.8310   15.3280 C.2   363  ASP363      0.3671
    123  OD1      -10.2300   22.7910   14.7790 O.co2 363  ASP363     -0.2456
    124  OD2      -10.0750   24.9320   15.2630 O.co2 363  ASP363     -0.2456
    125  N        -15.0250   21.8050   10.5650 N.3   385  LYS385     -0.1245
    126  CA       -14.1630   20.6580   10.3090 C.3   385  LYS385      0.1561
    127  C        -14.9880   19.3790   10.4350 C.2   385  LYS385      0.2260
    128  O        -16.0670   19.3980   11.0260 O.2   385  LYS385     -0.2867
    129  CB       -12.9700   20.6400   11.2650 C.3   385  LYS385      0.0271
    130  CG       -12.0110   21.7890   11.0400 C.3   385  LYS385      0.0035
    131  CD       -10.5870   21.4500   11.4470 C.3   385  LYS385      0.0206
    132  CE        -9.7470   22.7140   11.5510 C.3   385  LYS385      0.1093
    133  NZ        -8.4830   22.4690   12.2960 N.3   385  LYS385     -0.1314
@<TRIPOS>BOND
     1    94    92   ar
     2    93    92   ar
     3    92    91    1
     4    91    88    1
     5    87    88    1
     6    88    89    1
     7    89    90    2
     8    89    95   am
     9    76    75    2
    10    75    74    1
    11    95    96    1
    12    73    74    1
    13    74    77    1
    14    98    97    2
    15    96    97    1
    16    96    99    1
    17   105   104    1
    18    97   100   am
    19    77    78    1
    20    83    80   ar
    21    83    85   ar
    22   100   101    1
    23    78    80   ar
    24    78    79   ar
    25   104   101    1
    26    80    82   ar
    27    85    86   ar
    28   101   102    1
    29    79    81   ar
    30    82    81   ar
    31    82    84   ar
    32    86    84   ar
    33   102   103    2
    34   102   106   am
    35   126   127    1
    36   126   125    1
    37   126   129    1
    38   127   128    2
    39   115   113   ar
    40   115   116   ar
    41   106   107    1
    42   130   129    1
    43   130   131    1
    44   113   111   ar
    45   131   132    1
    46   116   114   ar
    47   132   133    1
    48    48    50   ar
    49    48    46   ar
    50    50    49   ar
    51   107   110    1
    52   107   108    1
    53   111   110    1
    54   111   112   ar
    55    46    45   ar
    56    46    44   ar
    57    49    47   ar
    58   109   108    2
    59    45    43   ar
    60   114   112   ar
    61   108   117   am
    62    47    44   ar
    63    44    42   ar
    64    43    42   ar
    65    42    41    1
    66    71    70    1
    67   117   118    1
    68    41    38    1
    69   123   122   ar
    70   118   119    1
    71   118   121    1
    72    21    19    1
    73   124   122   ar
    74   122   121    1
    75    20    19    1
    76    19    16    1
    77    70    72    1
    78    70    69    2
    79   119   120    2
    80    66    67    1
    81    66    63    1
    82    18    17    2
    83    67    68    1
    84    38    39    1
    85    38    37    1
    86    68    69    1
    87    40    39    2
    88    16    17    1
    89    16    15    1
    90    15    11   am
    91    37    32   am
    92    64    63    1
    93    64    65    2
    94    63    62    1
    95    29    27   am
    96    33    32    2
    97    32    31    1
    98    11    10    1
    99    11    12    2
   100     4     3    2
   101    26    27    1
   102    26    23    1
   103     8     6   am
   104    27    28    2
   105    10    13    1
   106    10     9    1
   107    13    14    1
   108    31    30    1
   109    31    34    1
   110    25    24    2
   111    30    24   am
   112     6     7    2
   113     6     5    1
   114    24    23    1
   115     3     9   am
   116     3     2    1
   117    54    53    2
   118    23    22    1
   119    53    52    1
   120    35    34    1
   121     5     2    1
   122    34    36    1
   123    52    51    1
   124    52    55    1
   125     2     1    1
   126    55    56    1
   127    56    57    1
   128    57    58    1
   129    58    59    2
   130    59    60    1
   131    59    61    1
