@<TRIPOS>MOLECULE
tmp/4kriA01.pdb
 146 142 0 0 0
SMALL
GASTEIGER

@<TRIPOS>ATOM
      1  N         -4.1870  -26.6340   22.2990 N.3   180  GLN180     -0.1231
      2  CA        -4.7110  -27.5880   23.2710 C.3   180  GLN180      0.1698
      3  C         -3.6140  -28.1610   24.1660 C.2   180  GLN180      0.2592
      4  O         -3.8140  -28.3580   25.3700 O.2   180  GLN180     -0.2718
      5  CB        -5.4570  -28.7290   22.5660 C.3   180  GLN180      0.0381
      6  CG        -6.1400  -29.6910   23.5350 C.3   180  GLN180      0.0905
      7  CD        -7.0630  -30.6930   22.8530 C.2   180  GLN180      0.2608
      8  OE1       -7.0590  -30.8340   21.6290 O.2   180  GLN180     -0.2717
      9  NE2       -7.8600  -31.3930   23.6490 N.am  180  GLN180     -0.0878
     10  N         -2.4550  -28.4250   23.5790 N.am  181  TYR181     -0.1976
     11  CA        -1.4040  -29.1110   24.3130 C.3   181  TYR181      0.1639
     12  C         -0.1870  -28.2180   24.5500 C.2   181  TYR181      0.2290
     13  O          0.9500  -28.6100   24.2880 O.2   181  TYR181     -0.2864
     14  CB        -1.0340  -30.4270   23.6130 C.3   181  TYR181      0.0560
     15  CG        -2.2120  -31.3810   23.4580 C.ar  181  TYR181     -0.0198
     16  CD1       -2.9970  -31.7470   24.5480 C.ar  181  TYR181     -0.0009
     17  CD2       -2.5530  -31.8980   22.2200 C.ar  181  TYR181     -0.0009
     18  CE1       -4.0660  -32.6140   24.4070 C.ar  181  TYR181      0.0417
     19  CE2       -3.6290  -32.7700   22.0740 C.ar  181  TYR181      0.0417
     20  CZ        -4.3760  -33.1220   23.1680 C.ar  181  TYR181      0.1957
     21  OH        -5.4480  -33.9890   23.0150 O.3   181  TYR181     -0.2866
     22  N         -4.4770  -30.8550   32.3240 N.3   189  TYR189     -0.1241
     23  CA        -5.1460  -32.1000   31.9430 C.3   189  TYR189      0.1605
     24  C         -4.6860  -33.2720   32.8230 C.2   189  TYR189      0.2264
     25  O         -5.5130  -34.0510   33.3060 O.2   189  TYR189     -0.2867
     26  CB        -4.8480  -32.4370   30.4780 C.3   189  TYR189      0.0534
     27  CG        -5.7740  -31.8110   29.4570 C.ar  189  TYR189     -0.0201
     28  CD1       -7.1310  -31.6410   29.7110 C.ar  189  TYR189     -0.0009
     29  CD2       -5.2880  -31.4070   28.2250 C.ar  189  TYR189     -0.0009
     30  CE1       -7.9700  -31.0820   28.7580 C.ar  189  TYR189      0.0417
     31  CE2       -6.1130  -30.8630   27.2700 C.ar  189  TYR189      0.0417
     32  CZ        -7.4530  -30.6970   27.5390 C.ar  189  TYR189      0.1957
     33  OH        -8.2710  -30.1470   26.5840 O.3   189  TYR189     -0.2866
     34  N         -7.0840  -35.8320   34.8840 N.3   193  PHE193     -0.1241
     35  CA        -7.1640  -37.2180   34.4200 C.3   193  PHE193      0.1605
     36  C         -6.4460  -38.2050   35.3500 C.2   193  PHE193      0.2264
     37  O         -6.8990  -39.3380   35.5390 O.2   193  PHE193     -0.2867
     38  CB        -6.6210  -37.3440   32.9870 C.3   193  PHE193      0.0534
     39  CG        -7.5290  -36.7440   31.9390 C.ar  193  PHE193     -0.0203
     40  CD1       -8.8300  -37.1980   31.7880 C.ar  193  PHE193     -0.0042
     41  CD2       -7.0670  -35.7450   31.0910 C.ar  193  PHE193     -0.0042
     42  CE1       -9.6660  -36.6590   30.8170 C.ar  193  PHE193     -0.0003
     43  CE2       -7.8950  -35.2010   30.1190 C.ar  193  PHE193     -0.0003
     44  CZ        -9.1980  -35.6600   29.9820 C.ar  193  PHE193     -0.0000
     45  N         -3.5200  -38.3510   29.8970 N.3   198  ILE198     -0.1245
     46  CA        -4.2790  -37.2590   29.2950 C.3   198  ILE198      0.1561
     47  C         -5.5760  -37.8440   28.7270 C.2   198  ILE198      0.2260
     48  O         -6.1430  -37.3200   27.7800 O.2   198  ILE198     -0.2867
     49  CB        -3.4810  -36.5500   28.1560 C.3   198  ILE198      0.0252
     50  CG1       -2.0440  -36.2950   28.5940 C.3   198  ILE198      0.0019
     51  CG2       -4.1400  -35.2080   27.7670 C.3   198  ILE198      0.0019
     52  CD1       -1.9450  -35.2760   29.7180 C.3   198  ILE198      0.0001
     53  N         -9.4820  -39.9810   29.6510 N.3   200  PRO200     -0.2116
     54  CA       -10.5490  -40.2390   30.6210 C.3   200  PRO200      0.1372
     55  C        -10.2610  -41.4400   31.5110 C.2   200  PRO200      0.2244
     56  O         -9.9340  -42.5280   31.0120 O.2   200  PRO200     -0.2868
     57  CB       -11.7480  -40.5670   29.7220 C.3   200  PRO200      0.0268
     58  CG       -11.5350  -39.7390   28.5150 C.3   200  PRO200      0.0207
     59  CD       -10.0230  -39.6730   28.3110 C.3   200  PRO200      0.0892
     60  N         -7.6700  -42.3870   22.7280 N.3   293  ASP293     -0.1239
     61  CA        -8.2470  -41.0510   22.6890 C.3   293  ASP293      0.1674
     62  C         -7.3670  -40.0560   21.9370 C.2   293  ASP293      0.2266
     63  O         -7.1930  -38.9060   22.3480 O.2   293  ASP293     -0.2867
     64  CB        -8.6030  -40.6040   24.1150 C.3   293  ASP293      0.1410
     65  CG        -9.5760  -41.5650   24.7760 C.2   293  ASP293      0.3668
     66  OD1      -10.4470  -42.1130   24.0570 O.co2 293  ASP293     -0.2456
     67  OD2       -9.4590  -41.8140   25.9880 O.co2 293  ASP293     -0.2456
     68  N         -9.4350  -38.7840   17.1630 N.3   296  GLN296     -0.1245
     69  CA       -10.3370  -37.6740   16.8460 C.3   296  GLN296      0.1566
     70  C         -9.5570  -36.4630   16.3110 C.2   296  GLN296      0.2260
     71  O        -10.1410  -35.5560   15.7170 O.2   296  GLN296     -0.2867
     72  CB       -11.2160  -37.2840   18.0480 C.3   296  GLN296      0.0367
     73  CG       -10.4790  -36.6100   19.2020 C.3   296  GLN296      0.0905
     74  CD        -9.8050  -37.5990   20.1230 C.2   296  GLN296      0.2608
     75  OE1      -10.2130  -38.7620   20.2110 O.2   296  GLN296     -0.2717
     76  NE2       -8.7690  -37.1480   20.8150 N.am  296  GLN296     -0.0878
     77  N        -12.8760  -40.0630   20.9000 N.3   323  TYR323     -0.1241
     78  CA       -14.0930  -39.2470   20.8910 C.3   323  TYR323      0.1605
     79  C        -14.7580  -39.4890   19.5440 C.2   323  TYR323      0.2264
     80  O        -14.0680  -39.5550   18.5210 O.2   323  TYR323     -0.2867
     81  CB       -13.7580  -37.7530   21.0210 C.3   323  TYR323      0.0534
     82  CG       -13.3410  -37.2660   22.4040 C.ar  323  TYR323     -0.0201
     83  CD1      -13.2930  -38.1230   23.4950 C.ar  323  TYR323     -0.0009
     84  CD2      -13.0090  -35.9240   22.6110 C.ar  323  TYR323     -0.0009
     85  CE1      -12.9060  -37.6570   24.7620 C.ar  323  TYR323      0.0417
     86  CE2      -12.6440  -35.4480   23.8710 C.ar  323  TYR323      0.0417
     87  CZ       -12.5930  -36.3170   24.9380 C.ar  323  TYR323      0.1957
     88  OH       -12.2230  -35.8360   26.1810 O.3   323  TYR323     -0.2866
     89  N        -17.2130  -26.1870   19.7240 N.3   337  TYR337     -0.1241
     90  CA       -16.2210  -26.9610   20.4680 C.3   337  TYR337      0.1605
     91  C        -15.4320  -27.8350   19.4980 C.2   337  TYR337      0.2264
     92  O        -14.1990  -27.8740   19.5520 O.2   337  TYR337     -0.2867
     93  CB       -16.9200  -27.8010   21.5530 C.3   337  TYR337      0.0534
     94  CG       -16.1340  -28.9840   22.0950 C.ar  337  TYR337     -0.0201
     95  CD1      -15.0740  -28.8000   22.9730 C.ar  337  TYR337     -0.0009
     96  CD2      -16.4810  -30.2840   21.7520 C.ar  337  TYR337     -0.0009
     97  CE1      -14.3610  -29.8890   23.4730 C.ar  337  TYR337      0.0417
     98  CE2      -15.7730  -31.3710   22.2400 C.ar  337  TYR337      0.0417
     99  CZ       -14.7310  -31.1670   23.1070 C.ar  337  TYR337      0.1957
    100  OH       -14.0460  -32.2550   23.6000 O.3   337  TYR337     -0.2866
    101  N        -11.4140  -27.2780   18.6200 N.3   341  ARG341     -0.1245
    102  CA       -10.4790  -28.3770   18.8820 C.3   341  ARG341      0.1563
    103  C         -9.9080  -28.9390   17.5840 C.2   341  ARG341      0.2260
    104  O         -8.9000  -29.6550   17.5980 O.2   341  ARG341     -0.2867
    105  CB       -11.1780  -29.5210   19.6350 C.3   341  ARG341      0.0307
    106  CG       -11.6220  -29.1890   21.0580 C.3   341  ARG341      0.0489
    107  CD       -10.4130  -29.1620   21.9910 C.3   341  ARG341      0.2205
    108  NE       -10.7720  -29.2840   23.4040 N.pl3 341  ARG341     -0.0865
    109  CZ       -11.0870  -28.2520   24.1870 C.cat 341  ARG341      0.5346
    110  NH1      -11.1090  -27.0150   23.6990 N.pl3 341  ARG341      0.1354
    111  NH2      -11.3890  -28.4570   25.4590 N.pl3 341  ARG341      0.1354
    112  N        -11.4270  -31.2600   15.9080 N.3   343  TYR343     -0.1241
    113  CA       -11.6810  -32.6950   15.8840 C.3   343  TYR343      0.1605
    114  C        -12.3590  -33.1090   14.5840 C.2   343  TYR343      0.2264
    115  O        -13.2340  -32.3980   14.0700 O.2   343  TYR343     -0.2867
    116  CB       -12.5670  -33.1140   17.0500 C.3   343  TYR343      0.0534
    117  CG       -11.9090  -33.0520   18.4130 C.ar  343  TYR343     -0.0201
    118  CD1      -10.5350  -33.1420   18.5610 C.ar  343  TYR343     -0.0009
    119  CD2      -12.6830  -32.9150   19.5540 C.ar  343  TYR343     -0.0009
    120  CE1       -9.9520  -33.0920   19.8320 C.ar  343  TYR343      0.0417
    121  CE2      -12.1230  -32.8620   20.8090 C.ar  343  TYR343      0.0417
    122  CZ       -10.7600  -32.9490   20.9480 C.ar  343  TYR343      0.1957
    123  OH       -10.2270  -32.8970   22.2190 O.3   343  TYR343     -0.2866
    124  N        -15.7620  -29.6070   31.5630 N.3   406  TRP406     -0.1241
    125  CA       -16.3790  -30.8590   31.9760 C.3   406  TRP406      0.1605
    126  C        -17.8980  -30.7040   32.0390 C.2   406  TRP406      0.2264
    127  O        -18.6370  -31.5930   31.6010 O.2   406  TRP406     -0.2867
    128  CB       -15.7560  -31.3580   33.2880 C.3   406  TRP406      0.0550
    129  CG       -14.6600  -32.3750   33.0690 C.ar  406  TRP406      0.0003
    130  CD1      -14.6680  -33.6760   33.4800 C.ar  406  TRP406      0.0946
    131  CD2      -13.4150  -32.1890   32.3610 C.ar  406  TRP406      0.0152
    132  NE1      -13.5110  -34.3070   33.0860 N.ar  406  TRP406     -0.2442
    133  CE2      -12.7240  -33.4160   32.4030 C.ar  406  TRP406      0.0810
    134  CE3      -12.8150  -31.0990   31.7170 C.ar  406  TRP406      0.0012
    135  CZ2      -11.4610  -33.5910   31.8180 C.ar  406  TRP406      0.0191
    136  CZ3      -11.5510  -31.2780   31.1340 C.ar  406  TRP406      0.0001
    137  CH2      -10.8980  -32.5140   31.1860 C.ar  406  TRP406      0.0015
    138  N        -19.0340  -30.9240   28.3050 N.3   409  LYS409     -0.1245
    139  CA       -19.0290  -32.2800   27.7620 C.3   409  LYS409      0.1561
    140  C        -20.2240  -33.0960   28.2510 C.2   409  LYS409      0.2260
    141  O        -20.8100  -33.8660   27.4930 O.2   409  LYS409     -0.2867
    142  CB       -17.6930  -32.9790   28.0520 C.3   409  LYS409      0.0271
    143  CG       -16.5870  -32.5030   27.1160 C.3   409  LYS409      0.0035
    144  CD       -15.2500  -33.1500   27.4130 C.3   409  LYS409      0.0206
    145  CE       -14.6010  -32.5240   28.6280 C.3   409  LYS409      0.1093
    146  NZ       -13.2040  -33.0230   28.7400 N.3   409  LYS409     -0.1314
@<TRIPOS>BOND
     1   115   114    2
     2   114   113    1
     3    71    70    2
     4   113   112    1
     5   113   116    1
     6    70    69    1
     7    69    68    1
     8    69    72    1
     9   116   117    1
    10   103   104    2
    11   103   102    1
    12    72    73    1
    13   117   118   ar
    14   117   119   ar
    15    80    79    2
    16   118   120   ar
    17   101   102    1
    18   102   105    1
    19    73    74    1
    20    91    92    2
    21    91    90    1
    22    79    78    1
    23   119   121   ar
    24   105   106    1
    25    89    90    1
    26   120   122   ar
    27    74    75    2
    28    74    76   am
    29    90    93    1
    30   121   122   ar
    31    78    77    1
    32    78    81    1
    33   122   123    1
    34    81    82    1
    35   106   107    1
    36    93    94    1
    37     8     7    2
    38    96    94   ar
    39    96    98   ar
    40    62    63    2
    41    62    61    1
    42   107   108    1
    43    19    17   ar
    44    19    20   ar
    45    94    95   ar
    46    17    15   ar
    47    98    99   ar
    48     1     2    1
    49    82    84   ar
    50    82    83   ar
    51     5     2    1
    52     5     6    1
    53    84    86   ar
    54    61    60    1
    55    61    64    1
    56     7     6    1
    57     7     9   am
    58    95    97   ar
    59    21    20    1
    60    99    97   ar
    61    99   100    1
    62    20    18   ar
    63     2     3    1
    64   108   109    2
    65    15    14    1
    66    15    16   ar
    67    83    85   ar
    68    10     3   am
    69    10    11    1
    70    14    11    1
    71   110   109    1
    72    86    87   ar
    73    66    65   ar
    74    64    65    1
    75     3     4    2
    76   109   111    1
    77    13    12    2
    78    11    12    1
    79    18    16   ar
    80    85    87   ar
    81    65    67   ar
    82    87    88    1
    83    33    32    1
    84   143   144    1
    85   143   142    1
    86    31    32   ar
    87    31    29   ar
    88   144   145    1
    89   141   140    2
    90    32    30   ar
    91   139   142    1
    92   139   140    1
    93   139   138    1
    94    51    49    1
    95    48    47    2
    96    49    50    1
    97    49    46    1
    98    29    27   ar
    99    59    58    1
   100    59    53    1
   101    58    57    1
   102    50    52    1
   103   145   146    1
   104    47    46    1
   105    30    28   ar
   106    46    45    1
   107    27    28   ar
   108    27    26    1
   109    53    54    1
   110    57    54    1
   111    44    43   ar
   112    44    42   ar
   113    43    41   ar
   114    26    23    1
   115    54    55    1
   116    42    40   ar
   117    56    55    2
   118    41    39   ar
   119   136   137   ar
   120   136   134   ar
   121   137   135   ar
   122   124   125    1
   123   127   126    2
   124   134   131   ar
   125    40    39   ar
   126   135   133   ar
   127    39    38    1
   128    23    22    1
   129    23    24    1
   130   125   126    1
   131   125   128    1
   132   131   133   ar
   133   131   129   ar
   134   133   132   ar
   135    24    25    2
   136    38    35    1
   137   129   128    1
   138   129   130   ar
   139   132   130   ar
   140    35    34    1
   141    35    36    1
   142    36    37    2
