@<TRIPOS>MOLECULE
tmp/4kroA00.pdb
 110 103 0 0 0
SMALL
GASTEIGER

@<TRIPOS>ATOM
      1  N         18.6910   -6.2390   54.9060 N.3   286  GLU286     -0.1231
      2  CA        19.0450   -4.8730   55.2980 C.3   286  GLU286      0.1699
      3  C         18.4280   -3.8200   54.3740 C.2   286  GLU286      0.2592
      4  O         18.2210   -2.6750   54.7740 O.2   286  GLU286     -0.2718
      5  CB        20.5670   -4.7120   55.3190 C.3   286  GLU286      0.0402
      6  CG        21.2730   -5.4750   56.3750 C.3   286  GLU286      0.1161
      7  CD        22.7800   -5.5360   56.2090 C.2   286  GLU286      0.3649
      8  OE1       23.3240   -5.0710   55.1770 O.co2 286  GLU286     -0.2457
      9  OE2       23.4590   -6.1210   57.0220 O.co2 286  GLU286     -0.2457
     10  N         18.1340   -4.2210   53.1410 N.am  287  PHE287     -0.1976
     11  CA        17.5690   -3.3210   52.1440 C.3   287  PHE287      0.1639
     12  C         16.4040   -3.9830   51.4130 C.2   287  PHE287      0.2290
     13  O         16.4180   -4.0920   50.1850 O.2   287  PHE287     -0.2864
     14  CB        18.6420   -2.9080   51.1400 C.3   287  PHE287      0.0560
     15  CG        19.9610   -2.5850   51.7650 C.ar  287  PHE287     -0.0200
     16  CD1       20.1660   -1.3610   52.3790 C.ar  287  PHE287     -0.0042
     17  CD2       21.0020   -3.5010   51.7340 C.ar  287  PHE287     -0.0042
     18  CE1       21.3810   -1.0540   52.9560 C.ar  287  PHE287     -0.0003
     19  CE2       22.2230   -3.2010   52.3080 C.ar  287  PHE287     -0.0003
     20  CZ        22.4130   -1.9750   52.9210 C.ar  287  PHE287     -0.0000
     21  N         13.2420   -2.9920   51.1060 N.3   289  ASP289     -0.1225
     22  CA        12.4050   -2.0430   50.3820 C.3   289  ASP289      0.1805
     23  C         13.2310   -0.8860   49.8320 C.2   289  ASP289      0.2598
     24  O         12.7780    0.2600   49.8150 O.2   289  ASP289     -0.2718
     25  CB        11.2930   -1.5120   51.2940 C.3   289  ASP289      0.1424
     26  CG        10.4730   -2.6280   51.9280 C.2   289  ASP289      0.3668
     27  OD1        9.5460   -3.1400   51.2660 O.co2 289  ASP289     -0.2456
     28  OD2       10.7550   -2.9890   53.0910 O.co2 289  ASP289     -0.2456
     29  N         14.4470   -1.1940   49.3910 N.am  290  SER290     -0.1938
     30  CA        15.2960   -0.2180   48.7110 C.3   290  SER290      0.2055
     31  C         15.2190   -0.4530   47.2070 C.2   290  SER290      0.2643
     32  O         15.1390   -1.5990   46.7570 O.2   290  SER290     -0.2714
     33  CB        16.7430   -0.3170   49.1980 C.3   290  SER290      0.2130
     34  OG        16.8250   -0.1020   50.5960 O.3   290  SER290     -0.2179
     35  N         15.2360    0.6290   46.4330 N.am  291  LEU291     -0.1963
     36  CA        15.0890    0.5300   44.9830 C.3   291  LEU291      0.1728
     37  C         16.4240    0.3520   44.2740 C.2   291  LEU291      0.2616
     38  O         16.5170   -0.3840   43.2940 O.2   291  LEU291     -0.2715
     39  CB        14.3820    1.7670   44.4310 C.3   291  LEU291      0.0311
     40  CG        12.8950    1.9360   44.7440 C.3   291  LEU291      0.0022
     41  CD1       12.3440    3.0440   43.8650 C.3   291  LEU291      0.0001
     42  CD2       12.1000    0.6470   44.5470 C.3   291  LEU291      0.0001
     43  N         17.4500    1.0390   44.7570 N.am  292  SER292     -0.1950
     44  CA        18.7820    0.8920   44.1920 C.3   292  SER292      0.1924
     45  C         19.8460    1.3230   45.1850 C.2   292  SER292      0.2314
     46  O         19.5420    1.7390   46.2990 O.2   292  SER292     -0.2863
     47  CB        18.9130    1.7100   42.9030 C.3   292  SER292      0.2116
     48  OG        19.5610    2.9540   43.1330 O.3   292  SER292     -0.2180
     49  N         21.7780    3.9100   46.6760 N.3   294  ASN294     -0.1240
     50  CA        21.6300    5.3570   46.7970 C.3   294  ASN294      0.1653
     51  C         22.7510    5.9240   47.6600 C.2   294  ASN294      0.2266
     52  O         23.6820    5.2020   48.0310 O.2   294  ASN294     -0.2867
     53  CB        20.2520    5.7150   47.3740 C.3   294  ASN294      0.1155
     54  CG        19.8610    4.8380   48.5460 C.2   294  ASN294      0.2627
     55  OD1       20.6540    4.6230   49.4560 O.2   294  ASN294     -0.2716
     56  ND2       18.6400    4.3050   48.5130 N.am  294  ASN294     -0.0877
     57  N         22.4590    6.8350   50.6450 N.3   296  THR296     -0.1203
     58  CA        22.2860    6.3320   52.0010 C.3   296  THR296      0.1994
     59  C         23.0120    5.0070   52.2110 C.2   296  THR296      0.2617
     60  O         23.8610    4.8960   53.0920 O.2   296  THR296     -0.2717
     61  CB        20.7830    6.1450   52.3480 C.3   296  THR296      0.1784
     62  OG1       20.1070    7.4070   52.2730 O.3   296  THR296     -0.2211
     63  CG2       20.6040    5.5690   53.7490 C.3   296  THR296      0.0376
     64  N         22.6830    4.0080   51.3970 N.am  297  ASN297     -0.1974
     65  CA        23.1030    2.6320   51.6640 C.3   297  ASN297      0.1688
     66  C         24.4690    2.2580   51.1050 C.2   297  ASN297      0.2292
     67  O         25.0250    1.2190   51.4670 O.2   297  ASN297     -0.2864
     68  CB        22.0720    1.6550   51.1010 C.3   297  ASN297      0.1181
     69  CG        21.8070    1.8710   49.6240 C.2   297  ASN297      0.2629
     70  OD1       22.5470    2.5800   48.9360 O.2   297  ASN297     -0.2716
     71  ND2       20.7420    1.2620   49.1280 N.am  297  ASN297     -0.0877
     72  N         27.2990    0.8310   53.2070 N.3   300  HIS300     -0.1241
     73  CA        27.1740   -0.5130   53.7610 C.3   300  HIS300      0.1621
     74  C         27.7600   -1.5650   52.8320 C.2   300  HIS300      0.2264
     75  O         27.7490   -2.7550   53.1470 O.2   300  HIS300     -0.2867
     76  CB        25.7080   -0.8320   54.0510 C.3   300  HIS300      0.0745
     77  CG        25.0800    0.1030   55.0360 C.ar  300  HIS300      0.0817
     78  ND1       23.7490    0.4630   54.9850 N.ar  300  HIS300     -0.2268
     79  CD2       25.6050    0.7630   56.0960 C.ar  300  HIS300      0.1154
     80  CE1       23.4820    1.2990   55.9700 C.ar  300  HIS300      0.1986
     81  NE2       24.5920    1.4980   56.6610 N.ar  300  HIS300     -0.2212
     82  N         17.3310    7.2380   39.7650 N.3   316  VAL316     -0.1245
     83  CA        16.8300    7.8390   40.9920 C.3   316  VAL316      0.1561
     84  C         17.9570    8.0850   41.9820 C.2   316  VAL316      0.2260
     85  O         17.8880    9.0080   42.7950 O.2   316  VAL316     -0.2867
     86  CB        15.7590    6.9580   41.6520 C.3   316  VAL316      0.0252
     87  CG1       16.3710    5.6960   42.2320 C.3   316  VAL316      0.0019
     88  CG2       15.0190    7.7410   42.7230 C.3   316  VAL316      0.0019
     89  N         15.8540   11.0560   45.9200 N.3   321  ASP321     -0.1239
     90  CA        14.4040   10.8970   46.0100 C.3   321  ASP321      0.1674
     91  C         13.8650   11.4230   47.3320 C.2   321  ASP321      0.2266
     92  O         14.1270   10.8600   48.3960 O.2   321  ASP321     -0.2867
     93  CB        14.0060    9.4340   45.8420 C.3   321  ASP321      0.1410
     94  CG        12.5030    9.2530   45.7400 C.2   321  ASP321      0.3668
     95  OD1       11.9230    9.6970   44.7240 O.co2 321  ASP321     -0.2456
     96  OD2       11.9030    8.6700   46.6700 O.co2 321  ASP321     -0.2456
     97  N         11.5400    9.2680   49.8440 N.3   324  THR324     -0.1218
     98  CA        12.3020    8.3670   50.7120 C.3   324  THR324      0.1862
     99  C         13.3450    9.1270   51.5300 C.2   324  THR324      0.2287
    100  O         14.0300    8.5390   52.3690 O.2   324  THR324     -0.2866
    101  CB        13.0250    7.2660   49.9090 C.3   324  THR324      0.1770
    102  OG1       13.7760    7.8620   48.8440 O.3   324  THR324     -0.2211
    103  CG2       12.0290    6.2680   49.3370 C.3   324  THR324      0.0375
    104  N         16.3140   10.7710   50.5950 N.3   326  THR326     -0.1218
    105  CA        17.6500   10.2720   50.2680 C.3   326  THR326      0.1862
    106  C         18.3010   11.1930   49.2270 C.2   326  THR326      0.2287
    107  O         17.7450   11.3870   48.1470 O.2   326  THR326     -0.2866
    108  CB        17.5970    8.8200   49.7340 C.3   326  THR326      0.1770
    109  OG1       16.6730    8.7350   48.6410 O.3   326  THR326     -0.2211
    110  CG2       17.1500    7.8590   50.8280 C.3   326  THR326      0.0375
@<TRIPOS>BOND
     1    82    83    1
     2    83    86    1
     3    83    84    1
     4    86    87    1
     5    86    88    1
     6    84    85    2
     7    47    48    1
     8    47    44    1
     9    38    37    2
    10    41    40    1
    11    44    43    1
    12    44    45    1
    13    37    43   am
    14    37    36    1
    15    39    40    1
    16    39    36    1
    17    42    40    1
    18    95    94   ar
    19    36    35    1
    20    45    46    2
    21    94    93    1
    22    94    96   ar
    23    93    90    1
    24    89    90    1
    25    90    91    1
    26    35    31   am
    27    49    50    1
    28    32    31    2
    29    50    53    1
    30    50    51    1
    31    31    30    1
    32    91    92    2
    33    53    54    1
    34    51    52    2
    35   107   106    2
    36    56    54   am
    37    54    55    2
    38   109   108    1
    39    30    33    1
    40    30    29    1
    41   102   101    1
    42    70    69    2
    43    71    69   am
    44    33    34    1
    45   106   105    1
    46   103   101    1
    47    29    23   am
    48    69    68    1
    49   108   105    1
    50   108   110    1
    51    24    23    2
    52    23    22    1
    53    97    98    1
    54   101    98    1
    55    13    12    2
    56   105   104    1
    57    22    21    1
    58    22    25    1
    59    57    58    1
    60    98    99    1
    61    68    65    1
    62    66    67    2
    63    66    65    1
    64    14    15    1
    65    14    11    1
    66    27    26   ar
    67    25    26    1
    68    64    65    1
    69    64    59   am
    70    12    11    1
    71    99   100    2
    72    17    15   ar
    73    17    19   ar
    74    15    16   ar
    75    26    28   ar
    76    58    59    1
    77    58    61    1
    78    11    10    1
    79    59    60    2
    80    62    61    1
    81    19    20   ar
    82    61    63    1
    83    16    18   ar
    84    74    75    2
    85    74    73    1
    86    20    18   ar
    87    10     3   am
    88    72    73    1
    89    73    76    1
    90    76    77    1
    91     3     4    2
    92     3     2    1
    93     1     2    1
    94    78    77   ar
    95    78    80   ar
    96    77    79   ar
    97     8     7   ar
    98     2     5    1
    99     5     6    1
   100    80    81   ar
   101    79    81   ar
   102     7     6    1
   103     7     9   ar
