@<TRIPOS>MOLECULE
tmp/4krpA00.pdb
 121 115 0 0 0
SMALL
GASTEIGER

@<TRIPOS>ATOM
      1  N         19.2830   -5.6470   54.6770 N.3   242  GLU242     -0.1231
      2  CA        19.5510   -4.2110   54.7640 C.3   242  GLU242      0.1699
      3  C         18.8290   -3.4260   53.6690 C.2   242  GLU242      0.2592
      4  O         18.5040   -2.2520   53.8470 O.2   242  GLU242     -0.2718
      5  CB        21.0610   -3.9350   54.6730 C.3   242  GLU242      0.0402
      6  CG        21.9310   -4.7450   55.6330 C.3   242  GLU242      0.1161
      7  CD        22.4050   -6.0630   55.0350 C.2   242  GLU242      0.3649
      8  OE1       21.5470   -6.9230   54.7390 O.co2 242  GLU242     -0.2457
      9  OE2       23.6330   -6.2380   54.8600 O.co2 242  GLU242     -0.2457
     10  N         18.5850   -4.0910   52.5420 N.am  243  PHE243     -0.1976
     11  CA        18.0210   -3.4510   51.3620 C.3   243  PHE243      0.1639
     12  C         16.7320   -4.1490   50.9410 C.2   243  PHE243      0.2290
     13  O         16.5120   -4.4070   49.7570 O.2   243  PHE243     -0.2864
     14  CB        19.0450   -3.4730   50.2230 C.3   243  PHE243      0.0560
     15  CG        20.4770   -3.4170   50.6940 C.ar  243  PHE243     -0.0200
     16  CD1       20.9860   -2.2710   51.2840 C.ar  243  PHE243     -0.0042
     17  CD2       21.3160   -4.5080   50.5400 C.ar  243  PHE243     -0.0042
     18  CE1       22.2970   -2.2220   51.7150 C.ar  243  PHE243     -0.0003
     19  CE2       22.6280   -4.4580   50.9650 C.ar  243  PHE243     -0.0003
     20  CZ        23.1180   -3.3150   51.5510 C.ar  243  PHE243     -0.0000
     21  N         13.3520   -3.2110   51.0480 N.3   245  ASP245     -0.1225
     22  CA        12.4660   -2.3930   50.2280 C.3   245  ASP245      0.1805
     23  C         13.2790   -1.3960   49.4080 C.2   245  ASP245      0.2598
     24  O         12.8120   -0.2990   49.0910 O.2   245  ASP245     -0.2718
     25  CB        11.4490   -1.6730   51.1150 C.3   245  ASP245      0.1424
     26  CG        10.5950   -2.6410   51.9230 C.2   245  ASP245      0.3668
     27  OD1       10.2450   -3.7150   51.3770 O.co2 245  ASP245     -0.2456
     28  OD2       10.2800   -2.3310   53.1000 O.co2 245  ASP245     -0.2456
     29  N         14.4990   -1.7950   49.0630 N.am  246  SER246     -0.1938
     30  CA        15.3980   -0.9540   48.2850 C.3   246  SER246      0.2055
     31  C         15.1850   -1.1620   46.7980 C.2   246  SER246      0.2643
     32  O         15.0010   -2.2840   46.3260 O.2   246  SER246     -0.2714
     33  CB        16.8550   -1.2390   48.6430 C.3   246  SER246      0.2130
     34  OG        17.1490   -0.8070   49.9590 O.3   246  SER246     -0.2179
     35  N         15.2280   -0.0570   46.0690 N.am  247  LEU247     -0.1963
     36  CA        14.9720   -0.0470   44.6440 C.3   247  LEU247      0.1728
     37  C         16.2910   -0.1310   43.8760 C.2   247  LEU247      0.2616
     38  O         16.3770   -0.7830   42.8360 O.2   247  LEU247     -0.2715
     39  CB        14.2060    1.2260   44.2800 C.3   247  LEU247      0.0311
     40  CG        13.4600    1.2990   42.9540 C.3   247  LEU247      0.0022
     41  CD1       12.2720    0.3510   42.9600 C.3   247  LEU247      0.0001
     42  CD2       13.0240    2.7450   42.7070 C.3   247  LEU247      0.0001
     43  N         17.3200    0.5220   44.4110 N.am  248  SER248     -0.1950
     44  CA        18.6210    0.5940   43.7550 C.3   248  SER248      0.1924
     45  C         19.7430    0.8090   44.7590 C.2   248  SER248      0.2314
     46  O         19.4950    1.0480   45.9390 O.2   248  SER248     -0.2863
     47  CB        18.6370    1.7300   42.7310 C.3   248  SER248      0.2116
     48  OG        19.9590    2.2220   42.5320 O.3   248  SER248     -0.2180
     49  N         21.9070    3.2690   46.3000 N.3   250  ASN250     -0.1240
     50  CA        21.8040    4.7210   46.4570 C.3   250  ASN250      0.1653
     51  C         22.8630    5.2640   47.4030 C.2   250  ASN250      0.2266
     52  O         23.6170    4.5030   48.0050 O.2   250  ASN250     -0.2867
     53  CB        20.4110    5.1030   46.9590 C.3   250  ASN250      0.1155
     54  CG        19.9460    4.2220   48.0870 C.2   250  ASN250      0.2627
     55  OD1       20.6460    4.0580   49.0810 O.2   250  ASN250     -0.2716
     56  ND2       18.7770    3.6130   47.9220 N.am  250  ASN250     -0.0877
     57  N         22.6560    6.3220   50.2280 N.3   252  THR252     -0.1203
     58  CA        22.4700    5.8100   51.5780 C.3   252  THR252      0.1994
     59  C         23.1520    4.4510   51.7420 C.2   252  THR252      0.2617
     60  O         24.0990    4.3190   52.5160 O.2   252  THR252     -0.2717
     61  CB        20.9660    5.6920   51.9240 C.3   252  THR252      0.1784
     62  OG1       20.3870    7.0020   51.9780 O.3   252  THR252     -0.2211
     63  CG2       20.7500    4.9870   53.2660 C.3   252  THR252      0.0376
     64  N         22.6870    3.4540   50.9890 N.am  253  ASN253     -0.1974
     65  CA        23.1020    2.0650   51.1980 C.3   253  ASN253      0.1688
     66  C         24.4840    1.7160   50.6400 C.2   253  ASN253      0.2292
     67  O         25.0230    0.6510   50.9330 O.2   253  ASN253     -0.2864
     68  CB        22.0630    1.1090   50.5890 C.3   253  ASN253      0.1181
     69  CG        21.9450    1.2360   49.0730 C.2   253  ASN253      0.2629
     70  OD1       22.8140    1.7980   48.4040 O.2   253  ASN253     -0.2716
     71  ND2       20.8610    0.7030   48.5250 N.am  253  ASN253     -0.0877
     72  N         27.5310    0.3430   52.8810 N.3   256  HIS256     -0.1241
     73  CA        27.5440   -0.9840   53.5010 C.3   256  HIS256      0.1621
     74  C         28.1990   -2.0550   52.6320 C.2   256  HIS256      0.2264
     75  O         28.4590   -3.1680   53.1000 O.2   256  HIS256     -0.2867
     76  CB        26.1170   -1.4110   53.8520 C.3   256  HIS256      0.0745
     77  CG        25.4050   -0.4370   54.7340 C.ar  256  HIS256      0.0817
     78  ND1       24.5630    0.5350   54.2390 N.ar  256  HIS256     -0.2268
     79  CD2       25.4260   -0.2680   56.0770 C.ar  256  HIS256      0.1154
     80  CE1       24.0860    1.2530   55.2400 C.ar  256  HIS256      0.1986
     81  NE2       24.5950    0.7860   56.3660 N.ar  256  HIS256     -0.2212
     82  N         17.6140    6.5510   39.4190 N.3   272  VAL272     -0.1245
     83  CA        17.0800    7.1860   40.6300 C.3   272  VAL272      0.1561
     84  C         18.1830    7.4250   41.6510 C.2   272  VAL272      0.2260
     85  O         18.1340    8.3740   42.4340 O.2   272  VAL272     -0.2867
     86  CB        15.9750    6.3360   41.2860 C.3   272  VAL272      0.0252
     87  CG1       14.8650    6.0430   40.2820 C.3   272  VAL272      0.0019
     88  CG2       16.5430    5.0360   41.8440 C.3   272  VAL272      0.0019
     89  N         15.8850   10.2340   45.5340 N.3   277  ASP277     -0.1239
     90  CA        14.4470   10.0550   45.6950 C.3   277  ASP277      0.1674
     91  C         13.9740   10.7160   46.9830 C.2   277  ASP277      0.2266
     92  O         14.1930   10.1920   48.0750 O.2   277  ASP277     -0.2867
     93  CB        14.0920    8.5670   45.7020 C.3   277  ASP277      0.1410
     94  CG        12.6040    8.3220   45.7920 C.2   277  ASP277      0.3668
     95  OD1       11.8300    9.1520   45.2720 O.co2 277  ASP277     -0.2456
     96  OD2       12.2080    7.2930   46.3760 O.co2 277  ASP277     -0.2456
     97  N         11.0280   10.9470   48.0400 N.3   279  PHE279     -0.1227
     98  CA        10.0060   10.0790   48.6180 C.3   279  PHE279      0.1736
     99  C         10.5770    9.0150   49.5680 C.2   279  PHE279      0.2596
    100  O          9.8280    8.3570   50.2930 O.2   279  PHE279     -0.2718
    101  CB         9.2190    9.4020   47.4960 C.3   279  PHE279      0.0547
    102  CG         8.1000    8.5310   47.9830 C.ar  279  PHE279     -0.0202
    103  CD1        6.9440    9.0900   48.4970 C.ar  279  PHE279     -0.0042
    104  CD2        8.2070    7.1510   47.9300 C.ar  279  PHE279     -0.0042
    105  CE1        5.9160    8.2910   48.9470 C.ar  279  PHE279     -0.0003
    106  CE2        7.1810    6.3440   48.3780 C.ar  279  PHE279     -0.0003
    107  CZ         6.0340    6.9140   48.8870 C.ar  279  PHE279     -0.0000
    108  N         11.8970    8.8480   49.5550 N.am  280  THR280     -0.1953
    109  CA        12.5770    7.9670   50.5030 C.3   280  THR280      0.1897
    110  C         13.6400    8.7400   51.2900 C.2   280  THR280      0.2313
    111  O         14.4160    8.1470   52.0470 O.2   280  THR280     -0.2863
    112  CB        13.2320    6.7590   49.7880 C.3   280  THR280      0.1794
    113  OG1       14.1170    7.2190   48.7590 O.3   280  THR280     -0.2208
    114  CG2       12.1660    5.8620   49.1740 C.3   280  THR280      0.0378
    115  N         16.2450   10.1320   50.1530 N.3   282  THR282     -0.1218
    116  CA        17.5300    9.6370   49.6530 C.3   282  THR282      0.1862
    117  C         18.2180   10.6830   48.7670 C.2   282  THR282      0.2287
    118  O         17.7130   11.0060   47.6940 O.2   282  THR282     -0.2866
    119  CB        17.3650    8.3380   48.8310 C.3   282  THR282      0.1770
    120  OG1       16.5390    7.4060   49.5390 O.3   282  THR282     -0.2211
    121  CG2       18.7170    7.7020   48.5690 C.3   282  THR282      0.0375
@<TRIPOS>BOND
     1    82    83    1
     2    87    86    1
     3    83    86    1
     4    83    84    1
     5    86    88    1
     6    84    85    2
     7    48    47    1
     8    42    40    1
     9    47    44    1
    10    38    37    2
    11    40    41    1
    12    40    39    1
    13    44    43    1
    14    44    45    1
    15    37    43   am
    16    37    36    1
    17    39    36    1
    18    36    35    1
    19    45    46    2
    20    95    94   ar
    21    89    90    1
    22    90    93    1
    23    90    91    1
    24    93    94    1
    25    94    96   ar
    26    35    31   am
    27    49    50    1
    28    32    31    2
    29    50    53    1
    30    50    51    1
    31    31    30    1
    32    53    54    1
    33    91    92    2
    34    51    52    2
    35   101   102    1
    36   101    98    1
    37   118   117    2
    38    56    54   am
    39   104   102   ar
    40   104   106   ar
    41   102   103   ar
    42    97    98    1
    43    54    55    2
    44    30    33    1
    45    30    29    1
    46   106   107   ar
    47    70    69    2
    48   103   105   ar
    49    71    69   am
    50   121   119    1
    51    98    99    1
    52    33    34    1
    53   113   112    1
    54   117   116    1
    55   119   120    1
    56   119   116    1
    57   107   105   ar
    58    29    23   am
    59    69    68    1
    60    24    23    2
    61   114   112    1
    62    23    22    1
    63   108    99   am
    64   108   109    1
    65    99   100    2
    66   116   115    1
    67    13    12    2
    68   112   109    1
    69    14    15    1
    70    14    11    1
    71    57    58    1
    72    22    21    1
    73    22    25    1
    74   109   110    1
    75    17    15   ar
    76    17    19   ar
    77    68    65    1
    78    66    67    2
    79    66    65    1
    80    15    16   ar
    81    12    11    1
    82    19    20   ar
    83    64    65    1
    84    64    59   am
    85    25    26    1
    86    16    18   ar
    87   110   111    2
    88    11    10    1
    89    27    26   ar
    90    20    18   ar
    91    58    59    1
    92    58    61    1
    93    59    60    2
    94    26    28   ar
    95    61    62    1
    96    61    63    1
    97    10     3   am
    98    74    75    2
    99    74    73    1
   100    72    73    1
   101    73    76    1
   102     3     4    2
   103     3     2    1
   104    76    77    1
   105    78    77   ar
   106    78    80   ar
   107     5     2    1
   108     5     6    1
   109     1     2    1
   110    77    79   ar
   111     8     7   ar
   112     9     7   ar
   113     7     6    1
   114    80    81   ar
   115    79    81   ar
