@<TRIPOS>MOLECULE
tmp/4krsA00.pdb
 152 154 0 0 0
SMALL
GASTEIGER

@<TRIPOS>ATOM
      1  N        -19.8750  -14.6780   12.5030 N.3    79  PHE79      -0.1227
      2  CA       -19.1420  -13.7010   11.7140 C.3    79  PHE79       0.1736
      3  C        -19.9560  -12.4470   11.4810 C.2    79  PHE79       0.2595
      4  O        -21.1810  -12.4700   11.5640 O.2    79  PHE79      -0.2718
      5  CB       -18.7260  -14.3150   10.3680 C.3    79  PHE79       0.0547
      6  CG       -17.7590  -15.4540   10.5010 C.ar   79  PHE79      -0.0202
      7  CD1      -16.4190  -15.2180   10.6830 C.ar   79  PHE79      -0.0042
      8  CD2      -18.1940  -16.7540   10.4510 C.ar   79  PHE79      -0.0042
      9  CE1      -15.5340  -16.2530   10.8130 C.ar   79  PHE79      -0.0003
     10  CE2      -17.3030  -17.8020   10.5850 C.ar   79  PHE79      -0.0003
     11  CZ       -15.9760  -17.5440   10.7650 C.ar   79  PHE79      -0.0000
     12  N        -19.2590  -11.3540   11.1780 N.am   80  HIS80      -0.1961
     13  CA       -19.8880  -10.0960   10.8140 C.3    80  HIS80       0.1787
     14  C        -18.9410   -9.3220    9.9430 C.2    80  HIS80       0.2621
     15  O        -17.7670   -9.2530   10.2430 O.2    80  HIS80      -0.2715
     16  CB       -20.1880   -9.2500   12.0510 C.3    80  HIS80       0.0785
     17  CG       -20.8530   -7.9360   11.7460 C.ar   80  HIS80       0.0821
     18  ND1      -22.1980   -7.8290   11.4630 N.ar   80  HIS80      -0.2267
     19  CD2      -20.3600   -6.6760   11.6900 C.ar   80  HIS80       0.1154
     20  CE1      -22.5090   -6.5610   11.2660 C.ar   80  HIS80       0.1986
     21  NE2      -21.4110   -5.8400   11.3950 N.ar   80  HIS80      -0.2212
     22  N        -19.4670   -8.7340    8.8700 N.am   81  GLY81      -0.1940
     23  CA       -18.6870   -7.8990    7.9720 C.3    81  GLY81       0.2014
     24  C        -19.3230   -6.5340    7.7980 C.2    81  GLY81       0.2640
     25  O        -20.5520   -6.3960    7.8210 O.2    81  GLY81      -0.2714
     26  N        -18.4830   -5.5210    7.6360 N.am   82  SER82      -0.1936
     27  CA       -18.9450   -4.1490    7.5140 C.3    82  SER82       0.2040
     28  C        -17.7800   -3.2540    7.1410 C.2    82  SER82       0.2485
     29  O        -16.6650   -3.4870    7.5760 O.2    82  SER82      -0.2729
     30  CB       -19.5190   -3.6570    8.8490 C.3    82  SER82       0.2129
     31  OG       -19.6390   -2.2400    8.8640 O.3    82  SER82      -0.2179
     32  N        -18.0490   -2.1940    6.3750 N.am   83  PRO83      -0.2715
     33  CA       -16.9810   -1.2640    5.9990 C.3    83  PRO83       0.1536
     34  C        -16.5920   -0.3620    7.1700 C.2    83  PRO83       0.2598
     35  O        -15.6980    0.4690    7.0190 O.2    83  PRO83      -0.2715
     36  CB       -17.6190   -0.4170    4.8800 C.3    83  PRO83       0.0310
     37  CG       -19.0140   -0.9500    4.6920 C.3    83  PRO83       0.0237
     38  CD       -19.3650   -1.7430    5.9090 C.3    83  PRO83       0.0939
     39  N        -17.2520   -0.5150    8.3180 N.am   84  PHE84      -0.1974
     40  CA       -16.9580    0.3370    9.4640 C.3    84  PHE84       0.1639
     41  C        -16.5150   -0.4790   10.6640 C.2    84  PHE84       0.2290
     42  O        -16.8480   -0.1510   11.8040 O.2    84  PHE84      -0.2864
     43  CB       -18.1600    1.2060    9.8160 C.3    84  PHE84       0.0560
     44  CG       -18.6300    2.0390    8.6800 C.ar   84  PHE84      -0.0200
     45  CD1      -17.7600    2.9280    8.0580 C.ar   84  PHE84      -0.0042
     46  CD2      -19.9190    1.9230    8.2060 C.ar   84  PHE84      -0.0042
     47  CE1      -18.1770    3.6990    6.9860 C.ar   84  PHE84      -0.0003
     48  CE2      -20.3490    2.6920    7.1310 C.ar   84  PHE84      -0.0003
     49  CZ       -19.4790    3.5790    6.5210 C.ar   84  PHE84      -0.0000
     50  N        -27.1980    1.9710   13.9890 N.3    97  HIS97      -0.1226
     51  CA       -26.7200    1.7830   12.6210 C.3    97  HIS97       0.1752
     52  C        -27.0960    0.3850   12.1710 C.2    97  HIS97       0.2596
     53  O        -26.2550   -0.3610   11.6670 O.2    97  HIS97      -0.2718
     54  CB       -25.2070    1.9180   12.5380 C.3    97  HIS97       0.0759
     55  CG       -24.6920    3.2770   12.8870 C.ar   97  HIS97       0.0818
     56  ND1      -24.9060    4.3820   12.0900 N.ar   97  HIS97      -0.2268
     57  CD2      -23.9390    3.7030   13.9290 C.ar   97  HIS97       0.1154
     58  CE1      -24.3200    5.4340   12.6350 C.ar   97  HIS97       0.1986
     59  NE2      -23.7290    5.0500   13.7530 N.ar   97  HIS97      -0.2212
     60  N        -28.3590    0.0250   12.3720 N.am   98  ALA98      -0.1966
     61  CA       -28.8200   -1.3160   12.0600 C.3    98  ALA98       0.1728
     62  C        -28.9710   -1.4720   10.5570 C.2    98  ALA98       0.2616
     63  O        -29.0190   -0.4820    9.8230 O.2    98  ALA98      -0.2715
     64  CB       -30.1420   -1.6110   12.7640 C.3    98  ALA98       0.0334
     65  N        -29.0320   -2.7210   10.1100 N.am   99  TYR99      -0.1974
     66  CA       -29.1920   -3.0340    8.7060 C.3    99  TYR99       0.1639
     67  C        -30.6510   -2.8110    8.3240 C.2    99  TYR99       0.2290
     68  O        -31.5050   -3.6940    8.4910 O.2    99  TYR99      -0.2864
     69  CB       -28.7670   -4.4750    8.4620 C.3    99  TYR99       0.0560
     70  CG       -28.8390   -4.9410    7.0340 C.ar   99  TYR99      -0.0198
     71  CD1      -28.9450   -4.0460    5.9890 C.ar   99  TYR99      -0.0009
     72  CD2      -28.7530   -6.2900    6.7330 C.ar   99  TYR99      -0.0009
     73  CE1      -28.9940   -4.4900    4.6740 C.ar   99  TYR99       0.0417
     74  CE2      -28.7940   -6.7450    5.4210 C.ar   99  TYR99       0.0417
     75  CZ       -28.9120   -5.8470    4.3970 C.ar   99  TYR99       0.1957
     76  OH       -28.9460   -6.3130    3.0930 O.3    99  TYR99      -0.2866
     77  N        -26.7030   -8.0630   12.1310 N.3   109  TYR109     -0.1227
     78  CA       -26.7480   -9.4030   11.5550 C.3   109  TYR109      0.1736
     79  C        -25.4330  -10.1440   11.6300 C.2   109  TYR109      0.2595
     80  O        -24.3570   -9.5630   11.4260 O.2   109  TYR109     -0.2718
     81  CB       -27.1880   -9.3260   10.0760 C.3   109  TYR109      0.0548
     82  CG       -28.6600   -9.0020    9.8750 C.ar  109  TYR109     -0.0200
     83  CD1      -29.1950   -7.7950   10.3040 C.ar  109  TYR109     -0.0009
     84  CD2      -29.5070   -9.9010    9.2410 C.ar  109  TYR109     -0.0009
     85  CE1      -30.5430   -7.5000   10.1170 C.ar  109  TYR109      0.0417
     86  CE2      -30.8470   -9.6130    9.0500 C.ar  109  TYR109      0.0417
     87  CZ       -31.3610   -8.4140    9.4910 C.ar  109  TYR109      0.1957
     88  OH       -32.7030   -8.1360    9.3050 O.3   109  TYR109     -0.2866
     89  N        -25.5240  -11.4470   11.8730 N.am  110  PHE110     -0.1962
     90  CA       -24.3390  -12.2930   11.9230 C.3   110  PHE110      0.1771
     91  C        -24.5550  -13.6030   11.1720 C.2   110  PHE110      0.2619
     92  O        -25.6770  -14.0700   11.0690 O.2   110  PHE110     -0.2715
     93  CB       -23.9820  -12.6190   13.3760 C.3   110  PHE110      0.0574
     94  CG       -23.6150  -11.4280   14.2070 C.ar  110  PHE110     -0.0200
     95  CD1      -24.6020  -10.6510   14.8070 C.ar  110  PHE110     -0.0042
     96  CD2      -22.2770  -11.1050   14.4330 C.ar  110  PHE110     -0.0042
     97  CE1      -24.2630   -9.5610   15.6150 C.ar  110  PHE110     -0.0003
     98  CE2      -21.9320  -10.0190   15.2320 C.ar  110  PHE110     -0.0003
     99  CZ       -22.9360   -9.2450   15.8370 C.ar  110  PHE110     -0.0000
    100  N        -23.4650  -14.2280   10.7300 N.am  111  ALA111     -0.1977
    101  CA       -23.5360  -15.4880    9.9870 C.3   111  ALA111      0.1597
    102  C        -22.7030  -16.6250   10.5880 C.2   111  ALA111      0.2287
    103  O        -21.6270  -16.3960   11.1150 O.2   111  ALA111     -0.2864
    104  CB       -23.1080  -15.2520    8.5480 C.3   111  ALA111      0.0319
    105  N        -20.7560  -15.7100    4.0010 N.3   116  LYS116     -0.1231
    106  CA       -21.8780  -14.7830    4.0750 C.3   116  LYS116      0.1693
    107  C        -21.4380  -13.3590    4.4230 C.2   116  LYS116      0.2592
    108  O        -21.7590  -12.4090    3.6970 O.2   116  LYS116     -0.2718
    109  CB       -22.9390  -15.2520    5.0690 C.3   116  LYS116      0.0285
    110  CG       -24.2840  -14.6100    4.7960 C.3   116  LYS116      0.0035
    111  CD       -24.7600  -15.0200    3.4170 C.3   116  LYS116      0.0206
    112  CE       -25.9500  -14.2180    2.9330 C.3   116  LYS116      0.1093
    113  NZ       -26.2320  -14.5480    1.4850 N.3   116  LYS116     -0.1314
    114  N        -20.6900  -13.2290    5.5250 N.am  117  SER117     -0.1952
    115  CA       -20.2610  -11.9340    6.0610 C.3   117  SER117      0.1924
    116  C        -19.3620  -11.1850    5.1020 C.2   117  SER117      0.2314
    117  O        -19.4460   -9.9630    4.9670 O.2   117  SER117     -0.2863
    118  CB       -19.4850  -12.1340    7.3740 C.3   117  SER117      0.2116
    119  OG       -20.3140  -12.6570    8.3920 O.3   117  SER117     -0.2180
    120  N        -20.3840   -8.4860    2.8720 N.3   120  TYR120     -0.1241
    121  CA       -20.7780   -7.1600    3.3710 C.3   120  TYR120      0.1605
    122  C        -19.5760   -6.3210    3.7460 C.2   120  TYR120      0.2264
    123  O        -19.6950   -5.2070    4.2450 O.2   120  TYR120     -0.2867
    124  CB       -21.7460   -7.2760    4.5680 C.3   120  TYR120      0.0534
    125  CG       -23.1070   -7.7680    4.1560 C.ar  120  TYR120     -0.0201
    126  CD1      -23.3250   -9.1120    3.9090 C.ar  120  TYR120     -0.0009
    127  CD2      -24.1730   -6.8830    3.9920 C.ar  120  TYR120     -0.0009
    128  CE1      -24.5790   -9.5730    3.5040 C.ar  120  TYR120      0.0417
    129  CE2      -25.4280   -7.3320    3.5890 C.ar  120  TYR120      0.0417
    130  CZ       -25.6190   -8.6790    3.3530 C.ar  120  TYR120      0.1957
    131  OH       -26.8400   -9.1430    2.9500 O.3   120  TYR120     -0.2866
    132  N        -19.6900   -3.1720    1.8490 N.3   123  GLY123     -0.1210
    133  CA       -20.9890   -2.5440    1.9110 C.3   123  GLY123      0.1956
    134  C        -22.0460   -3.5500    1.5480 C.2   123  GLY123      0.2611
    135  O        -21.7650   -4.7290    1.3890 O.2   123  GLY123     -0.2717
    136  N        -23.2720   -3.0660    1.4200 N.am  124  ILE124     -0.1979
    137  CA       -24.4120   -3.8850    1.0720 C.3   124  ILE124      0.1595
    138  C        -24.3850   -4.3220   -0.3910 C.2   124  ILE124      0.2287
    139  O        -24.1590   -3.5160   -1.2920 O.2   124  ILE124     -0.2864
    140  CB       -25.7100   -3.1060    1.3340 C.3   124  ILE124      0.0276
    141  CG1      -25.7200   -2.5900    2.7800 C.3   124  ILE124      0.0022
    142  CG2      -26.9080   -3.9830    1.0270 C.3   124  ILE124      0.0022
    143  CD1      -26.8990   -1.7010    3.1230 C.3   124  ILE124      0.0001
    144  N        -29.6880  -16.7840    9.4230 N.3   181  GLU181     -0.1245
    145  CA       -29.0660  -15.5180    9.7820 C.3   181  GLU181      0.1567
    146  C        -29.4420  -15.2000   11.2280 C.2   181  GLU181      0.2260
    147  O        -30.6140  -15.3040   11.6120 O.2   181  GLU181     -0.2867
    148  CB       -29.5300  -14.3900    8.8540 C.3   181  GLU181      0.0388
    149  CG       -29.5540  -14.7560    7.3720 C.3   181  GLU181      0.1160
    150  CD       -29.4610  -13.5370    6.4570 C.2   181  GLU181      0.3649
    151  OE1      -29.2910  -12.4100    6.9730 O.co2 181  GLU181     -0.2457
    152  OE2      -29.5540  -13.7080    5.2190 O.co2 181  GLU181     -0.2457
@<TRIPOS>BOND
     1   139   138    2
     2   138   137    1
     3   142   140    1
     4   137   140    1
     5   137   136    1
     6   140   141    1
     7   135   134    2
     8   136   134   am
     9   113   112    1
    10   134   133    1
    11   132   133    1
    12   141   143    1
    13   120   121    1
    14   112   111    1
    15   131   130    1
    16    76    75    1
    17   130   128   ar
    18   130   129   ar
    19   121   122    1
    20   121   124    1
    21   111   110    1
    22   128   126   ar
    23   129   127   ar
    24   108   107    2
    25   122   123    2
    26   126   125   ar
    27   127   125   ar
    28   105   106    1
    29   106   107    1
    30   106   109    1
    31   125   124    1
    32    75    73   ar
    33    75    74   ar
    34   107   114   am
    35    73    71   ar
    36    37    36    1
    37    37    38    1
    38   110   109    1
    39    36    33    1
    40   117   116    2
    41   116   115    1
    42   152   150   ar
    43    74    72   ar
    44   114   115    1
    45    38    32    1
    46    71    70   ar
    47    33    32    1
    48    33    34    1
    49   115   118    1
    50    32    28   am
    51   150   151   ar
    52   150   149    1
    53    49    47   ar
    54    49    48   ar
    55    72    70   ar
    56    47    45   ar
    57    35    34    2
    58    70    69    1
    59    48    46   ar
    60    28    27    1
    61    28    29    2
    62    34    39   am
    63   149   148    1
    64   118   119    1
    65    27    26    1
    66    27    30    1
    67    26    24   am
    68    24    25    2
    69    24    23    1
    70    23    22    1
    71    45    44   ar
    72    46    44   ar
    73    39    40    1
    74    67    68    2
    75    67    66    1
    76    69    66    1
    77   104   101    1
    78    44    43    1
    79    66    65    1
    80    30    31    1
    81   148   145    1
    82    22    14   am
    83    86    84   ar
    84    86    87   ar
    85    84    82   ar
    86    88    87    1
    87   144   145    1
    88    40    43    1
    89    40    41    1
    90    87    85   ar
    91   145   146    1
    92    63    62    2
    93    82    81    1
    94    82    83   ar
    95    14    15    2
    96    14    13    1
    97   101   102    1
    98   101   100    1
    99    81    78    1
   100    65    62   am
   101    85    83   ar
   102     5     6    1
   103     5     2    1
   104     8     6   ar
   105     8    10   ar
   106     6     7   ar
   107    62    61    1
   108    10    11   ar
   109   102   103    2
   110    41    42    2
   111     7     9   ar
   112   100    91   am
   113    11     9   ar
   114    13    12    1
   115    13    16    1
   116    92    91    2
   117    91    90    1
   118    12     3   am
   119   146   147    2
   120    20    21   ar
   121    20    18   ar
   122    21    19   ar
   123    80    79    2
   124    18    17   ar
   125     3     4    2
   126     3     2    1
   127    78    79    1
   128    78    77    1
   129    79    89   am
   130    53    52    2
   131    19    17   ar
   132     2     1    1
   133    17    16    1
   134    89    90    1
   135    90    93    1
   136    61    60    1
   137    61    64    1
   138    56    58   ar
   139    56    55   ar
   140    52    60   am
   141    52    51    1
   142    54    51    1
   143    54    55    1
   144    51    50    1
   145    58    59   ar
   146    55    57   ar
   147    93    94    1
   148    59    57   ar
   149    94    96   ar
   150    94    95   ar
   151    96    98   ar
   152    95    97   ar
   153    98    99   ar
   154    97    99   ar
