@<TRIPOS>MOLECULE
tmp/4krtA00.pdb
 142 137 0 0 0
SMALL
GASTEIGER

@<TRIPOS>ATOM
      1  N         57.4670   67.9210   84.7690 N.3    18  ASP18      -0.1225
      2  CA        56.0900   67.4470   84.7540 C.3    18  ASP18       0.1805
      3  C         55.9930   66.3600   85.8120 C.2    18  ASP18       0.2598
      4  O         56.8800   65.5060   85.9410 O.2    18  ASP18      -0.2718
      5  CB        55.6800   66.9540   83.3570 C.3    18  ASP18       0.1424
      6  CG        56.5320   65.8170   82.8540 C.2    18  ASP18       0.3668
      7  OD1       56.2970   64.6670   83.2890 O.co2  18  ASP18      -0.2456
      8  OD2       57.4330   66.0800   82.0250 O.co2  18  ASP18      -0.2456
      9  N         54.9190   66.4280   86.5910 N.am   19  VAL19      -0.1966
     10  CA        54.6930   65.5080   87.6900 C.3    19  VAL19       0.1727
     11  C         53.3050   64.8830   87.6740 C.2    19  VAL19       0.2616
     12  O         52.3940   65.3590   86.9860 O.2    19  VAL19      -0.2715
     13  CB        54.8800   66.2320   89.0540 C.3    19  VAL19       0.0290
     14  CG1       56.3390   66.6730   89.2320 C.3    19  VAL19       0.0023
     15  CG2       53.9700   67.4500   89.1260 C.3    19  VAL19       0.0023
     16  N         53.1660   63.8000   88.4360 N.am   20  SER20      -0.1950
     17  CA        51.9050   63.0810   88.5730 C.3    20  SER20       0.1924
     18  C         51.8530   62.5350   89.9940 C.2    20  SER20       0.2314
     19  O         52.8330   62.6530   90.7440 O.2    20  SER20      -0.2863
     20  CB        51.8300   61.9210   87.5780 C.3    20  SER20       0.2116
     21  OG        52.7730   60.9170   87.9130 O.3    20  SER20      -0.2180
     22  N         52.3550   59.8630   91.1300 N.3    22  TRP22      -0.1227
     23  CA        53.4520   58.9650   91.4740 C.3    22  TRP22       0.1737
     24  C         54.5040   59.6180   92.3570 C.2    22  TRP22       0.2595
     25  O         55.1700   58.9380   93.1400 O.2    22  TRP22      -0.2718
     26  CB        54.1230   58.4250   90.2150 C.3    22  TRP22       0.0564
     27  CG        53.2750   57.4780   89.4400 C.ar   22  TRP22       0.0003
     28  CD1       51.9690   57.1570   89.6780 C.ar   22  TRP22       0.0946
     29  CD2       53.6680   56.7320   88.2880 C.ar   22  TRP22       0.0152
     30  NE1       51.5240   56.2560   88.7450 N.ar   22  TRP22      -0.2442
     31  CE2       52.5480   55.9770   87.8770 C.ar   22  TRP22       0.0810
     32  CE3       54.8620   56.6270   87.5580 C.ar   22  TRP22       0.0012
     33  CZ2       52.5840   55.1270   86.7670 C.ar   22  TRP22       0.0191
     34  CZ3       54.8980   55.7820   86.4530 C.ar   22  TRP22       0.0001
     35  CH2       53.7650   55.0430   86.0690 C.ar   22  TRP22       0.0015
     36  N         54.6500   60.9350   92.2390 N.am   23  LYS23      -0.1980
     37  CA        55.6400   61.6660   93.0260 C.3    23  LYS23       0.1596
     38  C         55.1900   61.9950   94.4410 C.2    23  LYS23       0.2287
     39  O         55.9740   62.4910   95.2480 O.2    23  LYS23      -0.2864
     40  CB        56.0430   62.9600   92.3030 C.3    23  LYS23       0.0298
     41  CG        56.8560   62.7210   91.0350 C.3    23  LYS23       0.0038
     42  CD        58.0590   61.8240   91.3390 C.3    23  LYS23       0.0206
     43  CE        58.8060   61.4370   90.0840 C.3    23  LYS23       0.1093
     44  NZ        59.9230   60.4940   90.3800 N.3    23  LYS23      -0.1314
     45  N         48.1380   67.9690   81.8980 N.3    71  TYR71      -0.1241
     46  CA        48.1280   67.0300   80.7910 C.3    71  TYR71       0.1605
     47  C         47.1680   65.8970   81.0730 C.2    71  TYR71       0.2264
     48  O         46.9230   65.5380   82.2220 O.2    71  TYR71      -0.2867
     49  CB        49.5310   66.4780   80.4830 C.3    71  TYR71       0.0534
     50  CG        50.1060   65.4870   81.4790 C.ar   71  TYR71      -0.0201
     51  CD1       49.9010   64.1070   81.3300 C.ar   71  TYR71      -0.0009
     52  CD2       50.9500   65.9190   82.5000 C.ar   71  TYR71      -0.0009
     53  CE1       50.5330   63.1930   82.1680 C.ar   71  TYR71       0.0417
     54  CE2       51.5840   65.0190   83.3330 C.ar   71  TYR71       0.0417
     55  CZ        51.3770   63.6610   83.1660 C.ar   71  TYR71       0.1957
     56  OH        52.0180   62.7840   84.0080 O.3    71  TYR71      -0.2866
     57  N         46.2760   61.9320   79.9970 N.3    73  PHE73      -0.1241
     58  CA        46.8170   60.7120   79.4100 C.3    73  PHE73       0.1605
     59  C         45.6830   60.0780   78.6180 C.2    73  PHE73       0.2264
     60  O         44.7250   59.5680   79.1900 O.2    73  PHE73      -0.2867
     61  CB        47.2990   59.7500   80.5000 C.3    73  PHE73       0.0534
     62  CG        48.0990   58.5900   79.9690 C.ar   73  PHE73      -0.0203
     63  CD1       47.4830   57.5700   79.2410 C.ar   73  PHE73      -0.0042
     64  CD2       49.4800   58.5360   80.1640 C.ar   73  PHE73      -0.0042
     65  CE1       48.2280   56.5140   78.7130 C.ar   73  PHE73      -0.0003
     66  CE2       50.2340   57.4880   79.6400 C.ar   73  PHE73      -0.0003
     67  CZ        49.6050   56.4720   78.9120 C.ar   73  PHE73      -0.0000
     68  N         50.5360   58.4320   73.8550 N.3   108  GLU108     -0.1245
     69  CA        51.6740   57.5290   73.7630 C.3   108  GLU108      0.1567
     70  C         51.3150   56.0390   73.7240 C.2   108  GLU108      0.2260
     71  O         52.1890   55.1890   73.8710 O.2   108  GLU108     -0.2867
     72  CB        52.6190   57.7790   74.9370 C.3   108  GLU108      0.0388
     73  CG        51.9800   57.5440   76.2890 C.3   108  GLU108      0.1160
     74  CD        52.9180   57.8930   77.4280 C.2   108  GLU108      0.3649
     75  OE1       52.9990   59.0900   77.7930 O.co2 108  GLU108     -0.2457
     76  OE2       53.5860   56.9680   77.9430 O.co2 108  GLU108     -0.2457
     77  N         51.6510   66.0530   73.2630 N.3   140  TYR140     -0.1241
     78  CA        52.8230   65.3970   73.8250 C.3   140  TYR140      0.1605
     79  C         52.8910   63.9450   73.3350 C.2   140  TYR140      0.2264
     80  O         51.8910   63.2220   73.3760 O.2   140  TYR140     -0.2867
     81  CB        52.7830   65.4320   75.3540 C.3   140  TYR140      0.0534
     82  CG        53.7670   64.4790   76.0220 C.ar  140  TYR140     -0.0201
     83  CD1       53.4750   63.1160   76.1610 C.ar  140  TYR140     -0.0009
     84  CD2       55.0020   64.9360   76.4870 C.ar  140  TYR140     -0.0009
     85  CE1       54.3960   62.2350   76.7430 C.ar  140  TYR140      0.0417
     86  CE2       55.9300   64.0670   77.0670 C.ar  140  TYR140      0.0417
     87  CZ        55.6240   62.7190   77.1920 C.ar  140  TYR140      0.1957
     88  OH        56.5480   61.8670   77.7650 O.3   140  TYR140     -0.2866
     89  N         56.1310   60.6620   71.8840 N.3   142  TYR142     -0.1241
     90  CA        57.5300   60.2740   71.6530 C.3   142  TYR142      0.1605
     91  C         57.8090   60.1780   70.1550 C.2   142  TYR142      0.2264
     92  O         56.9480   59.7650   69.3740 O.2   142  TYR142     -0.2867
     93  CB        57.8440   58.9120   72.3020 C.3   142  TYR142      0.0534
     94  CG        57.7530   58.8780   73.8160 C.ar  142  TYR142     -0.0201
     95  CD1       56.5220   58.9110   74.4620 C.ar  142  TYR142     -0.0009
     96  CD2       58.9040   58.8460   74.6030 C.ar  142  TYR142     -0.0009
     97  CE1       56.4310   58.9170   75.8440 C.ar  142  TYR142      0.0417
     98  CE2       58.8270   58.8570   75.9950 C.ar  142  TYR142      0.0417
     99  CZ        57.5860   58.8950   76.6100 C.ar  142  TYR142      0.1957
    100  OH        57.4860   58.9460   77.9780 O.3   142  TYR142     -0.2866
    101  N         64.6850   60.8910   75.1490 N.3   164  TYR164     -0.1241
    102  CA        65.7450   60.9090   76.1520 C.3   164  TYR164      0.1605
    103  C         67.0960   60.5180   75.5800 C.2   164  TYR164      0.2264
    104  O         67.1750   59.8880   74.5260 O.2   164  TYR164     -0.2867
    105  CB        65.4010   59.9570   77.3100 C.3   164  TYR164      0.0534
    106  CG        63.9830   60.0730   77.8340 C.ar  164  TYR164     -0.0201
    107  CD1       63.2880   61.2860   77.7770 C.ar  164  TYR164     -0.0009
    108  CD2       63.3420   58.9770   78.4020 C.ar  164  TYR164     -0.0009
    109  CE1       61.9820   61.4010   78.2730 C.ar  164  TYR164      0.0417
    110  CE2       62.0340   59.0790   78.9090 C.ar  164  TYR164      0.0417
    111  CZ        61.3640   60.2950   78.8370 C.ar  164  TYR164      0.1957
    112  OH        60.0830   60.4060   79.3290 O.3   164  TYR164     -0.2866
    113  N         60.9490   67.0310   76.2450 N.3   182  GLN182     -0.1245
    114  CA        61.1400   66.2680   77.4700 C.3   182  GLN182      0.1566
    115  C         62.3620   65.4210   77.1840 C.2   182  GLN182      0.2260
    116  O         62.2690   64.3970   76.5120 O.2   182  GLN182     -0.2867
    117  CB        59.9380   65.3630   77.7530 C.3   182  GLN182      0.0367
    118  CG        59.9170   64.8220   79.1800 C.3   182  GLN182      0.0905
    119  CD        58.8440   63.7670   79.3970 C.2   182  GLN182      0.2608
    120  OE1       58.8930   62.6950   78.7970 O.2   182  GLN182     -0.2717
    121  NE2       57.8690   64.0680   80.2570 N.am  182  GLN182     -0.0878
    122  N         63.8010   61.5470   82.1300 N.3   185  GLU185     -0.1245
    123  CA        62.8050   61.1430   83.1200 C.3   185  GLU185      0.1567
    124  C         63.5310   60.8370   84.4280 C.2   185  GLU185      0.2260
    125  O         62.9170   60.4470   85.4210 O.2   185  GLU185     -0.2867
    126  CB        62.0230   59.9070   82.6410 C.3   185  GLU185      0.0388
    127  CG        62.8210   58.6020   82.5700 C.3   185  GLU185      0.1160
    128  CD        62.0230   57.4470   81.9560 C.2   185  GLU185      0.3649
    129  OE1       60.8360   57.2640   82.3070 O.co2 185  GLU185     -0.2457
    130  OE2       62.5860   56.7080   81.1250 O.co2 185  GLU185     -0.2457
    131  N         63.5110   60.1020   90.4220 N.3   195  GLY195     -0.1225
    132  CA        63.8910   60.7310   89.1690 C.3   195  GLY195      0.1811
    133  C         62.7630   61.5980   88.6600 C.2   195  GLY195      0.2280
    134  O         61.6230   61.1520   88.5780 O.2   195  GLY195     -0.2866
    135  N         60.9420   64.1850   85.7270 N.3   197  ASP197     -0.1239
    136  CA        60.8230   64.4090   84.2850 C.3   197  ASP197      0.1674
    137  C         61.3260   65.8250   83.9830 C.2   197  ASP197      0.2266
    138  O         60.8310   66.7880   84.5580 O.2   197  ASP197     -0.2867
    139  CB        59.3590   64.3070   83.8240 C.3   197  ASP197      0.1410
    140  CG        58.8810   62.8660   83.6520 C.2   197  ASP197      0.3668
    141  OD1       59.7020   61.9290   83.7440 O.co2 197  ASP197     -0.2456
    142  OD2       57.6720   62.6740   83.4100 O.co2 197  ASP197     -0.2456
@<TRIPOS>BOND
     1    92    91    2
     2    91    90    1
     3    90    89    1
     4    90    93    1
     5    93    94    1
     6    77    78    1
     7    79    80    2
     8    79    78    1
     9    70    69    1
    10    70    71    2
    11    69    68    1
    12    69    72    1
    13    94    95   ar
    14    94    96   ar
    15    78    81    1
    16    95    97   ar
    17   104   103    2
    18    96    98   ar
    19    72    73    1
    20   101   102    1
    21    81    82    1
    22   103   102    1
    23    97    99   ar
    24    98    99   ar
    25    82    83   ar
    26    82    84   ar
    27   102   105    1
    28    83    85   ar
    29   113   114    1
    30    73    74    1
    31    84    86   ar
    32   116   115    2
    33    99   100    1
    34    85    87   ar
    35    86    87   ar
    36   115   114    1
    37    87    88    1
    38   105   106    1
    39    74    75   ar
    40    74    76   ar
    41   114   117    1
    42   117   118    1
    43   107   106   ar
    44   107   109   ar
    45   106   108   ar
    46   109   111   ar
    47   108   110   ar
    48    59    60    2
    49    59    58    1
    50    65    67   ar
    51    65    63   ar
    52   120   119    2
    53   111   110   ar
    54   111   112    1
    55    67    66   ar
    56   118   119    1
    57    63    62   ar
    58   119   121   am
    59    58    57    1
    60    58    61    1
    61    66    64   ar
    62    62    64   ar
    63    62    61    1
    64    49    46    1
    65    49    50    1
    66    46    47    1
    67    46    45    1
    68    47    48    2
    69   130   128   ar
    70    51    50   ar
    71    51    53   ar
    72    50    52   ar
    73   128   129   ar
    74   128   127    1
    75     8     6   ar
    76   122   123    1
    77    53    55   ar
    78    52    54   ar
    79   127   126    1
    80   126   123    1
    81     6     7   ar
    82     6     5    1
    83   123   124    1
    84    55    54   ar
    85    55    56    1
    86     5     2    1
    87   142   140   ar
    88   140   141   ar
    89   140   139    1
    90   139   136    1
    91   137   136    1
    92   137   138    2
    93   136   135    1
    94   124   125    2
    95     2     1    1
    96     2     3    1
    97     3     4    2
    98     3     9   am
    99    35    34   ar
   100    35    33   ar
   101    34    32   ar
   102     9    10    1
   103    33    31   ar
   104    12    11    2
   105    32    29   ar
   106    20    21    1
   107    20    17    1
   108    11    10    1
   109    11    16   am
   110    10    13    1
   111    31    29   ar
   112    31    30   ar
   113    29    27   ar
   114    16    17    1
   115    17    18    1
   116   134   133    2
   117   133   132    1
   118    30    28   ar
   119    13    15    1
   120    13    14    1
   121   132   131    1
   122    27    28   ar
   123    27    26    1
   124    18    19    2
   125    43    44    1
   126    43    42    1
   127    26    23    1
   128    41    42    1
   129    41    40    1
   130    22    23    1
   131    23    24    1
   132    36    24   am
   133    36    37    1
   134    40    37    1
   135    24    25    2
   136    37    38    1
   137    38    39    2
