@<TRIPOS>MOLECULE
tmp/4kruA00.pdb
 132 127 0 0 0
SMALL
GASTEIGER

@<TRIPOS>ATOM
      1  N         38.5020   14.8290   28.7730 N.3    20  ASP20      -0.1239
      2  CA        37.6680   14.3030   27.7050 C.3    20  ASP20       0.1674
      3  C         37.9710   12.8200   27.6530 C.2    20  ASP20       0.2266
      4  O         39.1100   12.3950   27.8650 O.2    20  ASP20      -0.2867
      5  CB        37.9010   15.0080   26.3570 C.3    20  ASP20       0.1410
      6  CG        39.3290   14.9470   25.8910 C.2    20  ASP20       0.3668
      7  OD1       39.7230   13.9210   25.2970 O.co2  20  ASP20      -0.2456
      8  OD2       40.0490   15.9390   26.1190 O.co2  20  ASP20      -0.2456
      9  N         36.5750    8.6750   26.0270 N.3    22  SER22      -0.1217
     10  CA        35.9290    7.8800   24.9900 C.3    22  SER22       0.1889
     11  C         35.9480    6.4290   25.4520 C.2    22  SER22       0.2288
     12  O         36.4470    6.1210   26.5380 O.2    22  SER22      -0.2866
     13  CB        36.6890    7.9960   23.6680 C.3    22  SER22       0.2089
     14  OG        37.9380    7.3250   23.7460 O.3    22  SER22      -0.2183
     15  N         37.7990    4.2320   24.7640 N.3    24  TRP24      -0.1241
     16  CA        39.1860    3.8400   25.0140 C.3    24  TRP24       0.1605
     17  C         39.4870    3.7710   26.5120 C.2    24  TRP24       0.2264
     18  O         40.3110    2.9660   26.9490 O.2    24  TRP24      -0.2867
     19  CB        40.1200    4.8440   24.3210 C.3    24  TRP24       0.0550
     20  CG        41.5910    4.7370   24.6520 C.ar   24  TRP24       0.0003
     21  CD1       42.3820    5.7250   25.1660 C.ar   24  TRP24       0.0946
     22  CD2       42.4510    3.6080   24.4390 C.ar   24  TRP24       0.0152
     23  NE1       43.6790    5.2870   25.2820 N.ar   24  TRP24      -0.2442
     24  CE2       43.7510    3.9910   24.8440 C.ar   24  TRP24       0.0810
     25  CE3       42.2520    2.3120   23.9440 C.ar   24  TRP24       0.0012
     26  CZ2       44.8480    3.1230   24.7690 C.ar   24  TRP24       0.0191
     27  CZ3       43.3450    1.4470   23.8700 C.ar   24  TRP24       0.0001
     28  CH2       44.6260    1.8600   24.2810 C.ar   24  TRP24       0.0015
     29  N         33.1590   11.3070   23.9000 N.3    44  LYS44      -0.1245
     30  CA        33.0650   10.9370   22.4950 C.3    44  LYS44       0.1561
     31  C         31.7100   10.2830   22.2590 C.2    44  LYS44       0.2260
     32  O         31.2900    9.3980   23.0110 O.2    44  LYS44      -0.2867
     33  CB        34.1610    9.9470   22.0900 C.3    44  LYS44       0.0271
     34  CG        34.0860    9.5870   20.6090 C.3    44  LYS44       0.0035
     35  CD        35.1790    8.6310   20.1680 C.3    44  LYS44       0.0206
     36  CE        35.0930    8.4060   18.6650 C.3    44  LYS44       0.1093
     37  NZ        36.0750    7.4000   18.1860 N.3    44  LYS44      -0.1314
     38  N         31.5750   15.1260   21.6010 N.3    73  TYR73      -0.1241
     39  CA        32.3270   15.4290   20.3970 C.3    73  TYR73       0.1605
     40  C         32.1720   14.3160   19.3720 C.2    73  TYR73       0.2264
     41  O         31.8580   13.1630   19.7030 O.2    73  TYR73      -0.2867
     42  CB        33.8100   15.7060   20.7070 C.3    73  TYR73       0.0534
     43  CG        34.6690   14.5210   21.0950 C.ar   73  TYR73      -0.0201
     44  CD1       35.2850   13.7270   20.1240 C.ar   73  TYR73      -0.0009
     45  CD2       34.9160   14.2320   22.4340 C.ar   73  TYR73      -0.0009
     46  CE1       36.1320   12.6780   20.4820 C.ar   73  TYR73       0.0417
     47  CE2       35.7560   13.1870   22.8020 C.ar   73  TYR73       0.0417
     48  CZ        36.3620   12.4170   21.8230 C.ar   73  TYR73       0.1957
     49  OH        37.2040   11.3940   22.1940 O.3    73  TYR73      -0.2866
     50  N         34.1310   12.5710   16.0130 N.3    75  PHE75      -0.1241
     51  CA        35.3930   12.4640   15.2950 C.3    75  PHE75       0.1605
     52  C         35.0510   12.4470   13.8090 C.2    75  PHE75       0.2264
     53  O         34.4950   11.4750   13.2910 O.2    75  PHE75      -0.2867
     54  CB        36.1440   11.1910   15.6940 C.3    75  PHE75       0.0534
     55  CG        37.5610   11.1440   15.1920 C.ar   75  PHE75      -0.0203
     56  CD1       37.8290   11.0090   13.8340 C.ar   75  PHE75      -0.0042
     57  CD2       38.6290   11.2480   16.0780 C.ar   75  PHE75      -0.0042
     58  CE1       39.1390   10.9760   13.3620 C.ar   75  PHE75      -0.0003
     59  CE2       39.9430   11.2170   15.6170 C.ar   75  PHE75      -0.0003
     60  CZ        40.1970   11.0810   14.2550 C.ar   75  PHE75      -0.0000
     61  N         35.4860   17.2830   16.1360 N.3   108  ASP108     -0.1239
     62  CA        36.8750   16.8670   16.2880 C.3   108  ASP108      0.1674
     63  C         37.4020   16.6410   14.8690 C.2   108  ASP108      0.2266
     64  O         37.0810   15.6340   14.2360 O.2   108  ASP108     -0.2867
     65  CB        36.9280   15.5700   17.1060 C.3   108  ASP108      0.1410
     66  CG        38.3360   15.0160   17.2640 C.2   108  ASP108      0.3668
     67  OD1       39.2440   15.4140   16.5040 O.co2 108  ASP108     -0.2456
     68  OD2       38.5270   14.1540   18.1510 O.co2 108  ASP108     -0.2456
     69  N         40.8440   16.3360   12.7620 N.3   110  GLU110     -0.1245
     70  CA        42.2850   16.1660   12.8750 C.3   110  GLU110      0.1567
     71  C         42.9110   15.2730   11.8060 C.2   110  GLU110      0.2260
     72  O         44.0650   14.8660   11.9400 O.2   110  GLU110     -0.2867
     73  CB        42.6100   15.6070   14.2560 C.3   110  GLU110      0.0388
     74  CG        41.9830   14.2520   14.5160 C.3   110  GLU110      0.1160
     75  CD        42.2210   13.7750   15.9280 C.2   110  GLU110      0.3649
     76  OE1       41.5900   14.3210   16.8600 O.co2 110  GLU110     -0.2457
     77  OE2       43.0490   12.8590   16.1050 O.co2 110  GLU110     -0.2457
     78  N         37.4100   21.3540   17.6170 N.3   142  TYR142     -0.1241
     79  CA        38.5960   20.8090   18.2600 C.3   142  TYR142      0.1605
     80  C         39.5730   20.3930   17.1750 C.2   142  TYR142      0.2264
     81  O         39.2010   19.7210   16.2090 O.2   142  TYR142     -0.2867
     82  CB        38.2790   19.5800   19.1230 C.3   142  TYR142      0.0534
     83  CG        39.5180   18.7830   19.5130 C.ar  142  TYR142     -0.0201
     84  CD1       40.0580   17.8240   18.6510 C.ar  142  TYR142     -0.0009
     85  CD2       40.1680   19.0110   20.7280 C.ar  142  TYR142     -0.0009
     86  CE1       41.2110   17.1120   18.9890 C.ar  142  TYR142      0.0417
     87  CE2       41.3250   18.3070   21.0740 C.ar  142  TYR142      0.0417
     88  CZ        41.8380   17.3580   20.1990 C.ar  142  TYR142      0.1957
     89  OH        42.9700   16.6470   20.5310 O.3   142  TYR142     -0.2866
     90  N         38.7770   24.7160   20.5170 N.3   162  TRP162     -0.1241
     91  CA        39.2290   23.9120   21.6460 C.3   162  TRP162      0.1605
     92  C         40.4930   23.3580   20.9960 C.2   162  TRP162      0.2264
     93  O         40.4550   22.4040   20.2140 O.2   162  TRP162     -0.2867
     94  CB        38.1940   22.8260   21.9480 C.3   162  TRP162      0.0550
     95  CG        38.6180   21.7350   22.8900 C.ar  162  TRP162      0.0003
     96  CD1       39.7310   21.6960   23.6910 C.ar  162  TRP162      0.0946
     97  CD2       37.9280   20.5010   23.1010 C.ar  162  TRP162      0.0152
     98  NE1       39.7710   20.5030   24.3820 N.ar  162  TRP162     -0.2442
     99  CE2       38.6770   19.7520   24.0360 C.ar  162  TRP162      0.0810
    100  CE3       36.7460   19.9520   22.5830 C.ar  162  TRP162      0.0012
    101  CZ2       38.2820   18.4820   24.4630 C.ar  162  TRP162      0.0191
    102  CZ3       36.3530   18.6880   23.0080 C.ar  162  TRP162      0.0001
    103  CH2       37.1210   17.9660   23.9390 C.ar  162  TRP162      0.0015
    104  N         50.1590   20.0270   23.4830 N.3   166  TYR166     -0.1241
    105  CA        50.7220   19.5340   24.7310 C.3   166  TYR166      0.1605
    106  C         52.0970   20.0620   25.1090 C.2   166  TYR166      0.2264
    107  O         52.8720   20.5020   24.2610 O.2   166  TYR166     -0.2867
    108  CB        50.7680   18.0000   24.7100 C.3   166  TYR166      0.0534
    109  CG        49.5230   17.3360   24.1500 C.ar  166  TYR166     -0.0201
    110  CD1       48.2620   17.9190   24.3000 C.ar  166  TYR166     -0.0009
    111  CD2       49.6080   16.1210   23.4690 C.ar  166  TYR166     -0.0009
    112  CE1       47.1220   17.3100   23.7780 C.ar  166  TYR166      0.0417
    113  CE2       48.4740   15.5040   22.9480 C.ar  166  TYR166      0.0417
    114  CZ        47.2350   16.1050   23.1030 C.ar  166  TYR166      0.1957
    115  OH        46.1180   15.5080   22.5660 O.3   166  TYR166     -0.2866
    116  N         43.5360   21.7560   25.3010 N.3   184  GLN184     -0.1245
    117  CA        43.9270   20.4070   25.7060 C.3   184  GLN184      0.1566
    118  C         45.4450   20.4670   25.8060 C.2   184  GLN184      0.2260
    119  O         46.1490   20.4850   24.7910 O.2   184  GLN184     -0.2867
    120  CB        43.4960   19.3970   24.6480 C.3   184  GLN184      0.0367
    121  CG        43.5120   17.9580   25.1140 C.3   184  GLN184      0.0905
    122  CD        43.1120   17.0140   24.0050 C.2   184  GLN184      0.2608
    123  OE1       43.8430   16.8440   23.0270 O.2   184  GLN184     -0.2717
    124  NE2       41.9380   16.4110   24.1340 N.am  184  GLN184     -0.0878
    125  N         43.1570   12.7700   28.9760 N.3   199  ASP199     -0.1239
    126  CA        43.2660   14.0630   28.3000 C.3   199  ASP199      0.1674
    127  C         42.8790   15.1540   29.2950 C.2   199  ASP199      0.2266
    128  O         41.8160   15.0850   29.9220 O.2   199  ASP199     -0.2867
    129  CB        42.3290   14.1350   27.0890 C.3   199  ASP199      0.1410
    130  CG        42.8590   13.3780   25.8850 C.2   199  ASP199      0.3668
    131  OD1       44.0480   12.9900   25.8910 O.co2 199  ASP199     -0.2456
    132  OD2       42.0840   13.1780   24.9230 O.co2 199  ASP199     -0.2456
@<TRIPOS>BOND
     1    71    72    2
     2    71    70    1
     3    69    70    1
     4    70    73    1
     5    53    52    2
     6    58    56   ar
     7    58    60   ar
     8    52    51    1
     9    56    55   ar
    10    64    63    2
    11    60    59   ar
    12    73    74    1
    13    74    75    1
    14    63    62    1
    15    55    54    1
    16    55    57   ar
    17    51    54    1
    18    51    50    1
    19    59    57   ar
    20    75    77   ar
    21    75    76   ar
    22    61    62    1
    23    81    80    2
    24    62    65    1
    25    67    66   ar
    26    65    66    1
    27    80    79    1
    28    66    68   ar
    29    78    79    1
    30    37    36    1
    31    79    82    1
    32    84    86   ar
    33    84    83   ar
    34    36    35    1
    35    86    88   ar
    36    82    83    1
    37    40    41    2
    38    40    39    1
    39    83    85   ar
    40    44    46   ar
    41    44    43   ar
    42    35    34    1
    43    88    89    1
    44    88    87   ar
    45    93    92    2
    46    39    42    1
    47    39    38    1
    48    46    48   ar
    49    90    91    1
    50    34    33    1
    51    42    43    1
    52    85    87   ar
    53    92    91    1
    54    43    45   ar
    55    91    94    1
    56    48    49    1
    57    48    47   ar
    58    94    95    1
    59    33    30    1
    60    31    30    1
    61    31    32    2
    62    45    47   ar
    63    30    29    1
    64   115   114    1
    65   100   102   ar
    66   100    97   ar
    67    95    97   ar
    68    95    96   ar
    69   113   114   ar
    70   113   111   ar
    71   102   103   ar
    72   123   122    2
    73    97    99   ar
    74   114   112   ar
    75   111   109   ar
    76   104   105    1
    77    13    14    1
    78    13    10    1
    79    96    98   ar
    80   112   110   ar
    81    27    25   ar
    82    27    28   ar
    83   103   101   ar
    84    25    22   ar
    85   122   124   am
    86   122   121    1
    87    99    98   ar
    88    99   101   ar
    89   109   110   ar
    90   109   108    1
    91   107   106    2
    92    28    26   ar
    93    19    20    1
    94    19    16    1
    95    22    20   ar
    96    22    24   ar
    97   120   121    1
    98   120   117    1
    99    20    21   ar
   100   108   105    1
   101   105   106    1
   102    15    16    1
   103    26    24   ar
   104   119   118    2
   105    24    23   ar
   106   132   130   ar
   107    10    11    1
   108    10     9    1
   109    16    17    1
   110    21    23   ar
   111     7     6   ar
   112   116   117    1
   113    11    12    2
   114   117   118    1
   115   130   131   ar
   116   130   129    1
   117     6     8   ar
   118     6     5    1
   119     5     2    1
   120    17    18    2
   121   129   126    1
   122     3     2    1
   123     3     4    2
   124     2     1    1
   125   126   125    1
   126   126   127    1
   127   127   128    2
