@<TRIPOS>MOLECULE
tmp/4krvB01.pdb
 132 132 0 0 0
SMALL
GASTEIGER

@<TRIPOS>ATOM
      1  N         22.3940   -3.8940   82.1020 N.3   149  LYS149     -0.1231
      2  CA        21.2820   -4.7790   81.7870 C.3   149  LYS149      0.1693
      3  C         21.6580   -6.2210   82.1100 C.2   149  LYS149      0.2592
      4  O         20.7960   -7.0500   82.3980 O.2   149  LYS149     -0.2718
      5  CB        20.8980   -4.6410   80.3090 C.3   149  LYS149      0.0285
      6  CG        19.7580   -5.5400   79.8580 C.3   149  LYS149      0.0035
      7  CD        19.2680   -5.1690   78.4630 C.3   149  LYS149      0.0206
      8  CE        20.3870   -5.2260   77.4350 C.3   149  LYS149      0.1093
      9  NZ        19.8890   -4.9440   76.0560 N.3   149  LYS149     -0.1314
     10  N         22.9560   -6.5080   82.0690 N.am  150  PHE150     -0.1976
     11  CA        23.4620   -7.8230   82.4400 C.3   150  PHE150      0.1639
     12  C         24.3510   -7.7570   83.6820 C.2   150  PHE150      0.2290
     13  O         25.1640   -8.6510   83.9230 O.2   150  PHE150     -0.2864
     14  CB        24.2180   -8.4620   81.2740 C.3   150  PHE150      0.0560
     15  CG        23.3640   -8.7120   80.0690 C.ar  150  PHE150     -0.0200
     16  CD1       22.2770   -9.5660   80.1430 C.ar  150  PHE150     -0.0042
     17  CD2       23.6380   -8.0840   78.8660 C.ar  150  PHE150     -0.0042
     18  CE1       21.4840   -9.7960   79.0360 C.ar  150  PHE150     -0.0003
     19  CE2       22.8490   -8.3110   77.7550 C.ar  150  PHE150     -0.0003
     20  CZ        21.7690   -9.1690   77.8410 C.ar  150  PHE150     -0.0000
     21  N         26.9040  -12.0340   78.9230 N.3   155  PRO155     -0.2102
     22  CA        25.9940  -13.1860   78.9590 C.3   155  PRO155      0.1504
     23  C         26.7170  -14.4800   78.5950 C.2   155  PRO155      0.2575
     24  O         26.5880  -15.4850   79.2950 O.2   155  PRO155     -0.2718
     25  CB        24.9610  -12.8390   77.8860 C.3   155  PRO155      0.0282
     26  CG        24.9350  -11.3500   77.8700 C.3   155  PRO155      0.0208
     27  CD        26.3460  -10.9120   78.1460 C.3   155  PRO155      0.0893
     28  N         27.4730  -14.4370   77.5030 N.am  156  TYR156     -0.1977
     29  CA        28.3410  -15.5350   77.1000 C.3   156  TYR156      0.1639
     30  C         29.4290  -14.9960   76.1840 C.2   156  TYR156      0.2290
     31  O         29.2990  -13.9010   75.6380 O.2   156  TYR156     -0.2864
     32  CB        27.5530  -16.6630   76.4210 C.3   156  TYR156      0.0560
     33  CG        26.4670  -16.2090   75.4670 C.ar  156  TYR156     -0.0198
     34  CD1       25.2040  -15.8690   75.9360 C.ar  156  TYR156     -0.0009
     35  CD2       26.6970  -16.1420   74.0970 C.ar  156  TYR156     -0.0009
     36  CE1       24.2060  -15.4610   75.0760 C.ar  156  TYR156      0.0417
     37  CE2       25.6980  -15.7350   73.2240 C.ar  156  TYR156      0.0417
     38  CZ        24.4540  -15.3960   73.7220 C.ar  156  TYR156      0.1957
     39  OH        23.4500  -14.9880   72.8720 O.3   156  TYR156     -0.2866
     40  N         28.4980  -13.6870   72.8250 N.3   159  TYR159     -0.1241
     41  CA        27.4410  -12.6780   72.7870 C.3   159  TYR159      0.1605
     42  C         27.8300  -11.4840   71.9220 C.2   159  TYR159      0.2264
     43  O         28.8940  -10.8910   72.1040 O.2   159  TYR159     -0.2867
     44  CB        27.0720  -12.2210   74.2010 C.3   159  TYR159      0.0534
     45  CG        25.9760  -11.1830   74.2490 C.ar  159  TYR159     -0.0201
     46  CD1       24.6440  -11.5420   74.0780 C.ar  159  TYR159     -0.0009
     47  CD2       26.2710   -9.8430   74.4730 C.ar  159  TYR159     -0.0009
     48  CE1       23.6350  -10.5920   74.1250 C.ar  159  TYR159      0.0417
     49  CE2       25.2720   -8.8880   74.5210 C.ar  159  TYR159      0.0417
     50  CZ        23.9560   -9.2670   74.3470 C.ar  159  TYR159      0.1957
     51  OH        22.9590   -8.3170   74.3960 O.3   159  TYR159     -0.2866
     52  N         25.2850   -8.9940   70.9620 N.3   161  GLY161     -0.1225
     53  CA        24.1070   -8.1460   70.9450 C.3   161  GLY161      0.1811
     54  C         24.3620   -6.7560   71.4970 C.2   161  GLY161      0.2280
     55  O         25.3730   -6.5120   72.1570 O.2   161  GLY161     -0.2866
     56  N         11.9040  -11.2200   68.6510 N.3   184  TRP184     -0.1227
     57  CA        13.0970  -11.1730   69.4880 C.3   184  TRP184      0.1737
     58  C         13.8930  -12.4790   69.5000 C.2   184  TRP184      0.2596
     59  O         13.3210  -13.5690   69.4820 O.2   184  TRP184     -0.2718
     60  CB        12.7110  -10.7920   70.9210 C.3   184  TRP184      0.0564
     61  CG        13.8820  -10.6700   71.8450 C.ar  184  TRP184      0.0003
     62  CD1       14.5920   -9.5390   72.1220 C.ar  184  TRP184      0.0946
     63  CD2       14.4800  -11.7190   72.6150 C.ar  184  TRP184      0.0152
     64  NE1       15.5970   -9.8170   73.0170 N.ar  184  TRP184     -0.2442
     65  CE2       15.5510  -11.1490   73.3350 C.ar  184  TRP184      0.0810
     66  CE3       14.2170  -13.0840   72.7650 C.ar  184  TRP184      0.0012
     67  CZ2       16.3560  -11.8960   74.1910 C.ar  184  TRP184      0.0191
     68  CZ3       15.0180  -13.8240   73.6150 C.ar  184  TRP184      0.0001
     69  CH2       16.0750  -13.2290   74.3180 C.ar  184  TRP184      0.0015
     70  N         15.2190  -12.3540   69.5320 N.am  185  GLY185     -0.1942
     71  CA        16.0910  -13.4850   69.7950 C.3   185  GLY185      0.2014
     72  C         16.7630  -14.1370   68.6010 C.2   185  GLY185      0.2639
     73  O         16.1580  -14.3190   67.5450 O.2   185  GLY185     -0.2714
     74  N         18.0320  -14.4920   68.7780 N.am  186  GLY186     -0.1939
     75  CA        18.7470  -15.2850   67.7960 C.3   186  GLY186      0.2014
     76  C         19.5170  -14.5100   66.7440 C.2   186  GLY186      0.2639
     77  O         20.5750  -14.9580   66.3000 O.2   186  GLY186     -0.2714
     78  N         18.9970  -13.3550   66.3370 N.am  187  GLU187     -0.1963
     79  CA        19.6020  -12.6030   65.2380 C.3   187  GLU187      0.1733
     80  C         21.0350  -12.1780   65.5550 C.2   187  GLU187      0.2616
     81  O         21.8700  -12.0860   64.6590 O.2   187  GLU187     -0.2715
     82  CB        18.7380  -11.3970   64.8370 C.3   187  GLU187      0.0429
     83  CG        19.1300  -10.0650   65.4720 C.3   187  GLU187      0.1163
     84  CD        18.8210  -10.0000   66.9580 C.2   187  GLU187      0.3649
     85  OE1       19.3800   -9.1170   67.6430 O.co2 187  GLU187     -0.2457
     86  OE2       18.0190  -10.8260   67.4410 O.co2 187  GLU187     -0.2457
     87  N         21.3210  -11.9450   66.8320 N.am  188  ASP188     -0.1957
     88  CA        22.6650  -11.5700   67.2550 C.3   188  ASP188      0.1840
     89  C         23.6040  -12.7770   67.2530 C.2   188  ASP188      0.2622
     90  O         24.7770  -12.6580   66.8960 O.2   188  ASP188     -0.2715
     91  CB        22.6370  -10.8960   68.6320 C.3   188  ASP188      0.1450
     92  CG        21.8530  -11.6920   69.6630 C.2   188  ASP188      0.3671
     93  OD1       20.8840  -12.3860   69.2840 O.co2 188  ASP188     -0.2456
     94  OD2       22.2060  -11.6200   70.8580 O.co2 188  ASP188     -0.2456
     95  N         23.0780  -13.9350   67.6440 N.am  189  ASP189     -0.1971
     96  CA        23.8410  -15.1800   67.6080 C.3   189  ASP189      0.1709
     97  C         24.1810  -15.5700   66.1750 C.2   189  ASP189      0.2293
     98  O         25.2970  -16.0060   65.8920 O.2   189  ASP189     -0.2864
     99  CB        23.0600  -16.3130   68.2740 C.3   189  ASP189      0.1436
    100  CG        22.8450  -16.0820   69.7550 C.2   189  ASP189      0.3671
    101  OD1       23.7890  -15.6230   70.4320 O.co2 189  ASP189     -0.2456
    102  OD2       21.7280  -16.3570   70.2390 O.co2 189  ASP189     -0.2456
    103  N         13.8890  -19.3510   66.3880 N.3   229  ARG229     -0.1231
    104  CA        15.2400  -18.8030   66.4790 C.3   229  ARG229      0.1694
    105  C         16.3060  -19.8570   66.7660 C.2   229  ARG229      0.2592
    106  O         17.4320  -19.7530   66.2780 O.2   229  ARG229     -0.2718
    107  CB        15.3080  -17.6670   67.5070 C.3   229  ARG229      0.0321
    108  CG        15.1940  -18.1020   68.9580 C.3   229  ARG229      0.0489
    109  CD        14.9780  -16.8990   69.8540 C.3   229  ARG229      0.2205
    110  NE        14.9820  -17.2480   71.2710 N.pl3 229  ARG229     -0.0865
    111  CZ        13.8940  -17.5620   71.9670 C.cat 229  ARG229      0.5346
    112  NH1       12.7080  -17.5780   71.3730 N.pl3 229  ARG229      0.1354
    113  NH2       13.9920  -17.8590   73.2560 N.pl3 229  ARG229      0.1354
    114  N         15.9480  -20.8750   67.5410 N.am  230  PHE230     -0.1976
    115  CA        16.9010  -21.9150   67.9080 C.3   230  PHE230      0.1639
    116  C         17.2980  -22.7650   66.7030 C.2   230  PHE230      0.2290
    117  O         18.4680  -23.1070   66.5310 O.2   230  PHE230     -0.2864
    118  CB        16.3380  -22.7940   69.0260 C.3   230  PHE230      0.0560
    119  CG        16.0290  -22.0410   70.2870 C.ar  230  PHE230     -0.0200
    120  CD1       17.0510  -21.5670   71.0950 C.ar  230  PHE230     -0.0042
    121  CD2       14.7170  -21.7930   70.6600 C.ar  230  PHE230     -0.0042
    122  CE1       16.7700  -20.8680   72.2560 C.ar  230  PHE230     -0.0003
    123  CE2       14.4310  -21.0950   71.8190 C.ar  230  PHE230     -0.0003
    124  CZ        15.4590  -20.6330   72.6170 C.ar  230  PHE230     -0.0000
    125  N         19.5630  -20.4370   64.0920 N.3   233  ILE233     -0.1245
    126  CA        20.9720  -20.1990   64.4060 C.3   233  ILE233      0.1561
    127  C         21.8290  -21.4500   64.2090 C.2   233  ILE233      0.2260
    128  O         23.0470  -21.3570   64.0640 O.2   233  ILE233     -0.2867
    129  CB        21.1750  -19.6600   65.8420 C.3   233  ILE233      0.0252
    130  CG1       20.7560  -20.7030   66.8790 C.3   233  ILE233      0.0019
    131  CG2       20.4160  -18.3570   66.0440 C.3   233  ILE233      0.0019
    132  CD1       21.0600  -20.2920   68.2990 C.3   233  ILE233      0.0001
@<TRIPOS>BOND
     1   128   127    2
     2   125   126    1
     3   127   126    1
     4   126   129    1
     5    81    80    2
     6    82    79    1
     7    82    83    1
     8    79    80    1
     9    79    78    1
    10    83    84    1
    11    80    87   am
    12   129   131    1
    13   129   130    1
    14    98    97    2
    15    97    96    1
    16   106   105    2
    17    77    76    2
    18    78    76   am
    19   103   104    1
    20   104   105    1
    21   104   107    1
    22   117   116    2
    23   116   115    1
    24    76    75    1
    25   105   114   am
    26    87    88    1
    27   130   132    1
    28    90    89    2
    29    84    86   ar
    30    84    85   ar
    31    89    88    1
    32    89    95   am
    33    88    91    1
    34   107   108    1
    35   114   115    1
    36    73    72    2
    37    96    95    1
    38    96    99    1
    39    75    74    1
    40   115   118    1
    41    99   100    1
    42    72    74   am
    43    72    71    1
    44    91    92    1
    45    56    57    1
    46   108   109    1
    47   118   119    1
    48    93    92   ar
    49    59    58    2
    50    57    58    1
    51    57    60    1
    52    58    70   am
    53    70    71    1
    54    92    94   ar
    55   100   102   ar
    56   100   101   ar
    57   109   110    1
    58   119   121   ar
    59   119   120   ar
    60   121   123   ar
    61    60    61    1
    62    53    52    1
    63    53    54    1
    64   120   122   ar
    65   110   111    2
    66   112   111    1
    67    54    55    2
    68   123   124   ar
    69    61    62   ar
    70    61    63   ar
    71    42    43    2
    72    42    41    1
    73   111   113    1
    74    62    64   ar
    75   122   124   ar
    76    63    66   ar
    77    63    65   ar
    78    66    68   ar
    79    41    40    1
    80    41    44    1
    81    39    38    1
    82    64    65   ar
    83    37    38   ar
    84    37    35   ar
    85    65    67   ar
    86    68    69   ar
    87    38    36   ar
    88    46    48   ar
    89    46    45   ar
    90    35    33   ar
    91    48    50   ar
    92    67    69   ar
    93    44    45    1
    94    45    47   ar
    95    50    51    1
    96    50    49   ar
    97    47    49   ar
    98    36    34   ar
    99    33    34   ar
   100    33    32    1
   101    31    30    2
   102     9     8    1
   103    30    29    1
   104    32    29    1
   105    29    28    1
   106     8     7    1
   107    28    23   am
   108    19    20   ar
   109    19    17   ar
   110    20    18   ar
   111    26    25    1
   112    26    27    1
   113    25    22    1
   114    27    21    1
   115     7     6    1
   116    23    22    1
   117    23    24    2
   118    17    15   ar
   119    21    22    1
   120    18    16   ar
   121     6     5    1
   122    15    16   ar
   123    15    14    1
   124     5     2    1
   125    14    11    1
   126     2     1    1
   127     2     3    1
   128    10     3   am
   129    10    11    1
   130     3     4    2
   131    11    12    1
   132    12    13    2
