@<TRIPOS>MOLECULE
tmp/4krxB00.pdb
 159 153 0 0 0
SMALL
GASTEIGER

@<TRIPOS>ATOM
      1  N        -79.2450  -43.8850  -17.7430 N.3    28  TRP28      -0.1241
      2  CA       -79.2450  -42.9960  -16.5600 C.3    28  TRP28       0.1605
      3  C        -79.7610  -41.5720  -16.8670 C.2    28  TRP28       0.2264
      4  O        -79.1390  -40.8810  -17.6500 O.2    28  TRP28      -0.2867
      5  CB       -77.8000  -42.9320  -16.0220 C.3    28  TRP28       0.0550
      6  CG       -77.4730  -41.7810  -15.1210 C.ar   28  TRP28       0.0003
      7  CD1      -76.6980  -40.7120  -15.4270 C.ar   28  TRP28       0.0946
      8  CD2      -77.8860  -41.6030  -13.7530 C.ar   28  TRP28       0.0152
      9  NE1      -76.6130  -39.8650  -14.3440 N.ar   28  TRP28      -0.2442
     10  CE2      -77.3320  -40.3920  -13.3040 C.ar   28  TRP28       0.0810
     11  CE3      -78.6750  -42.3500  -12.8710 C.ar   28  TRP28       0.0012
     12  CZ2      -77.5460  -39.9030  -12.0150 C.ar   28  TRP28       0.0191
     13  CZ3      -78.8850  -41.8720  -11.5810 C.ar   28  TRP28       0.0001
     14  CH2      -78.3220  -40.6580  -11.1670 C.ar   28  TRP28       0.0015
     15  N        -82.2250  -45.1860   -9.8320 N.3    41  TYR41      -0.1241
     16  CA       -81.2740  -45.8860   -8.9450 C.3    41  TYR41       0.1605
     17  C        -81.9850  -47.0510   -8.3240 C.2    41  TYR41       0.2264
     18  O        -81.4890  -48.2020   -8.3310 O.2    41  TYR41      -0.2867
     19  CB       -80.7900  -44.9230   -7.8800 C.3    41  TYR41       0.0534
     20  CG       -79.6560  -45.4820   -7.0360 C.ar   41  TYR41      -0.0201
     21  CD1      -78.5110  -46.0280   -7.6380 C.ar   41  TYR41      -0.0009
     22  CD2      -79.7200  -45.4650   -5.6600 C.ar   41  TYR41      -0.0009
     23  CE1      -77.4620  -46.5360   -6.8640 C.ar   41  TYR41       0.0417
     24  CE2      -78.6900  -45.9670   -4.8950 C.ar   41  TYR41       0.0417
     25  CZ       -77.5690  -46.4950   -5.4850 C.ar   41  TYR41       0.1957
     26  OH       -76.5500  -46.9790   -4.6630 O.3    41  TYR41      -0.2866
     27  N        -75.6410  -43.3530   -0.7400 N.3    90  GLY90      -0.1210
     28  CA       -76.2100  -42.7630   -1.9850 C.3    90  GLY90       0.1956
     29  C        -76.0170  -41.2320   -2.0380 C.2    90  GLY90       0.2612
     30  O        -76.8440  -40.5040   -2.5970 O.2    90  GLY90      -0.2717
     31  N        -74.9420  -40.7290   -1.4200 N.am   91  GLY91      -0.1942
     32  CA       -74.5280  -39.3410   -1.5390 C.3    91  GLY91       0.2014
     33  C        -75.4250  -38.3350   -0.8130 C.2    91  GLY91       0.2638
     34  O        -75.3070  -37.1440   -1.0240 O.2    91  GLY91      -0.2714
     35  N        -76.3160  -38.8290    0.0430 N.am   92  PHE92      -0.1973
     36  CA       -77.3460  -38.0530    0.7020 C.3    92  PHE92       0.1639
     37  C        -78.5520  -37.7260   -0.1410 C.2    92  PHE92       0.2290
     38  O        -79.5700  -37.3330    0.4150 O.2    92  PHE92      -0.2864
     39  CB       -76.8250  -36.7850    1.4080 C.3    92  PHE92       0.0560
     40  CG       -75.8320  -37.0860    2.4950 C.ar   92  PHE92      -0.0200
     41  CD1      -76.1850  -37.9150    3.5410 C.ar   92  PHE92      -0.0042
     42  CD2      -74.5530  -36.5820    2.4410 C.ar   92  PHE92      -0.0042
     43  CE1      -75.2670  -38.2080    4.5540 C.ar   92  PHE92      -0.0003
     44  CE2      -73.6260  -36.8840    3.4450 C.ar   92  PHE92      -0.0003
     45  CZ       -73.9970  -37.6580    4.4930 C.ar   92  PHE92      -0.0000
     46  N        -79.6750  -39.9160   -3.0170 N.3    94  LEU94      -0.1245
     47  CA       -80.2710  -41.1500   -3.4930 C.3    94  LEU94       0.1561
     48  C        -80.3230  -42.2620   -2.4300 C.2    94  LEU94       0.2260
     49  O        -79.7400  -42.1320   -1.3550 O.2    94  LEU94      -0.2867
     50  CB       -79.4280  -41.7030   -4.5890 C.3    94  LEU94       0.0270
     51  CG       -79.2270  -40.7080   -5.7010 C.3    94  LEU94       0.0019
     52  CD1      -78.3020  -41.3030   -6.7320 C.3    94  LEU94       0.0001
     53  CD2      -80.5600  -40.2980   -6.3040 C.3    94  LEU94       0.0001
     54  N        -70.6750  -45.5250    2.7820 N.3   162  SER162     -0.1202
     55  CA       -70.4880  -44.2450    2.1240 C.3   162  SER162      0.2020
     56  C        -71.0450  -43.1480    2.9720 C.2   162  SER162      0.2618
     57  O        -70.7090  -43.0480    4.2130 O.2   162  SER162     -0.2717
     58  CB       -71.1020  -44.3700    0.6890 C.3   162  SER162      0.2103
     59  OG       -70.9080  -43.1880   -0.0560 O.3   162  SER162     -0.2182
     60  N        -71.9580  -42.3310    2.4270 N.am  163  ALA163     -0.1979
     61  CA       -72.6240  -41.2990    3.2250 C.3   163  ALA163      0.1597
     62  C        -73.2920  -41.8320    4.4700 C.2   163  ALA163      0.2287
     63  O        -73.3210  -41.1540    5.5360 O.2   163  ALA163     -0.2864
     64  CB       -73.6470  -40.5440    2.3930 C.3   163  ALA163      0.0319
     65  N        -70.8740  -41.9570    7.3270 N.3   166  MET166     -0.1245
     66  CA       -70.8030  -40.6340    7.9410 C.3   166  MET166      0.1570
     67  C        -71.9670  -40.5380    8.9460 C.2   166  MET166      0.2261
     68  O        -71.7630  -40.1880   10.1220 O.2   166  MET166     -0.2867
     69  CB       -70.8430  -39.4820    6.9010 C.3   166  MET166      0.0387
     70  CG       -70.9470  -38.1010    7.6050 C.3   166  MET166      0.0595
     71  SD       -71.0170  -36.8110    6.3710 S.3   166  MET166     -0.1393
     72  CE       -69.3030  -36.3900    6.1090 C.3   166  MET166      0.0692
     73  N        -66.9780  -41.1820    4.4190 N.3   194  LEU194     -0.1245
     74  CA       -66.2560  -39.9180    4.3640 C.3   194  LEU194      0.1561
     75  C        -66.6330  -39.1760    5.6310 C.2   194  LEU194      0.2260
     76  O        -67.7020  -39.3700    6.1700 O.2   194  LEU194     -0.2867
     77  CB       -66.5250  -39.1170    3.0840 C.3   194  LEU194      0.0270
     78  CG       -67.9190  -38.5410    2.8310 C.3   194  LEU194      0.0019
     79  CD1      -67.8690  -37.7030    1.5330 C.3   194  LEU194      0.0001
     80  CD2      -69.0010  -39.5790    2.6520 C.3   194  LEU194      0.0001
     81  N        -66.8730  -43.9310  -10.8480 N.3   211  ASP211     -0.1225
     82  CA       -67.4750  -44.0310   -9.5290 C.3   211  ASP211      0.1805
     83  C        -68.2980  -42.8240   -9.1260 C.2   211  ASP211      0.2598
     84  O        -68.8870  -42.8120   -8.0100 O.2   211  ASP211     -0.2718
     85  CB       -66.3810  -44.3250   -8.5020 C.3   211  ASP211      0.1424
     86  CG       -65.2500  -43.2790   -8.4450 C.2   211  ASP211      0.3668
     87  OD1      -65.3550  -42.1640   -9.0290 O.co2 211  ASP211     -0.2456
     88  OD2      -64.2360  -43.5540   -7.7080 O.co2 211  ASP211     -0.2456
     89  N        -68.3340  -41.7850  -10.0000 N.am  212  GLY212     -0.1942
     90  CA       -69.0550  -40.5250   -9.6900 C.3   212  GLY212      0.2014
     91  C        -68.4470  -39.7830   -8.5200 C.2   212  GLY212      0.2638
     92  O        -69.1650  -39.2040   -7.6630 O.2   212  GLY212     -0.2714
     93  N        -67.1150  -39.9020   -8.3640 N.am  213  LEU213     -0.1977
     94  CA       -66.4570  -39.2880   -7.1920 C.3   213  LEU213      0.1596
     95  C        -65.3290  -38.3220   -7.6190 C.2   213  LEU213      0.2287
     96  O        -64.2970  -38.2440   -6.9290 O.2   213  LEU213     -0.2864
     97  CB       -65.8990  -40.3470   -6.2360 C.3   213  LEU213      0.0297
     98  CG       -66.9540  -41.2480   -5.6530 C.3   213  LEU213      0.0022
     99  CD1      -66.2640  -42.2610   -4.7360 C.3   213  LEU213      0.0001
    100  CD2      -67.9820  -40.4440   -4.8680 C.3   213  LEU213      0.0001
    101  N        -68.2390  -34.5970   -5.7930 N.3   218  LEU218     -0.1245
    102  CA       -68.1570  -34.4730   -4.3240 C.3   218  LEU218      0.1561
    103  C        -68.6760  -33.1380   -3.7630 C.2   218  LEU218      0.2260
    104  O        -69.4280  -33.1180   -2.7560 O.2   218  LEU218     -0.2867
    105  CB       -66.7250  -34.7790   -3.8710 C.3   218  LEU218      0.0270
    106  CG       -66.2750  -36.2540   -3.8810 C.3   218  LEU218      0.0019
    107  CD1      -64.8040  -36.3550   -3.4990 C.3   218  LEU218      0.0001
    108  CD2      -67.0830  -37.1300   -2.9190 C.3   218  LEU218      0.0001
    109  N        -72.6540  -33.1340   -4.0040 N.3   221  TYR221     -0.1227
    110  CA       -73.3180  -33.8200   -2.8730 C.3   221  TYR221      0.1736
    111  C        -73.2310  -32.9490   -1.6320 C.2   221  TYR221      0.2595
    112  O        -74.2280  -32.8110   -0.9240 O.2   221  TYR221     -0.2718
    113  CB       -72.6960  -35.1870   -2.5820 C.3   221  TYR221      0.0548
    114  CG       -72.8530  -36.1400   -3.7680 C.ar  221  TYR221     -0.0200
    115  CD1      -74.1070  -36.5330   -4.1750 C.ar  221  TYR221     -0.0009
    116  CD2      -71.7460  -36.6410   -4.4610 C.ar  221  TYR221     -0.0009
    117  CE1      -74.2880  -37.4040   -5.2520 C.ar  221  TYR221      0.0417
    118  CE2      -71.9150  -37.4960   -5.5550 C.ar  221  TYR221      0.0417
    119  CZ       -73.1920  -37.8700   -5.9340 C.ar  221  TYR221      0.1957
    120  OH       -73.4390  -38.7540   -6.9740 O.3   221  TYR221     -0.2866
    121  N        -72.0710  -32.3340   -1.3750 N.am  222  GLU222     -0.1979
    122  CA       -71.9430  -31.4930   -0.1680 C.3   222  GLU222      0.1602
    123  C        -72.9010  -30.2890   -0.2150 C.2   222  GLU222      0.2287
    124  O        -73.4970  -29.9180    0.7820 O.2   222  GLU222     -0.2864
    125  CB       -70.5200  -31.0070    0.0230 C.3   222  GLU222      0.0415
    126  CG       -70.3690  -30.0500    1.2100 C.3   222  GLU222      0.1163
    127  CD       -68.9150  -29.7450    1.4460 C.2   222  GLU222      0.3649
    128  OE1      -68.2240  -30.5700    2.0560 O.co2 222  GLU222     -0.2457
    129  OE2      -68.4630  -28.7260    0.9170 O.co2 222  GLU222     -0.2457
    130  N        -70.3470  -33.0710   10.8520 N.3   237  TYR237     -0.1241
    131  CA       -70.0380  -33.2350    9.3990 C.3   237  TYR237      0.1605
    132  C        -68.5680  -33.5000    9.2040 C.2   237  TYR237      0.2264
    133  O        -68.1650  -34.5980    8.7240 O.2   237  TYR237     -0.2867
    134  CB       -70.4780  -32.0110    8.6550 C.3   237  TYR237      0.0534
    135  CG       -70.1760  -32.1610    7.1700 C.ar  237  TYR237     -0.0201
    136  CD1      -70.9550  -32.9580    6.4010 C.ar  237  TYR237     -0.0009
    137  CD2      -69.0720  -31.5520    6.5840 C.ar  237  TYR237     -0.0009
    138  CE1      -70.6910  -33.1410    5.0170 C.ar  237  TYR237      0.0417
    139  CE2      -68.7750  -31.7350    5.2070 C.ar  237  TYR237      0.0417
    140  CZ       -69.5870  -32.5460    4.4590 C.ar  237  TYR237      0.1957
    141  OH       -69.3000  -32.6350    3.1250 O.3   237  TYR237     -0.2866
    142  N        -62.0660  -41.5230   -1.4760 N.3   261  LEU261     -0.1245
    143  CA       -62.4160  -41.3300   -0.0610 C.3   261  LEU261      0.1561
    144  C        -61.6010  -42.2190    0.8270 C.2   261  LEU261      0.2260
    145  O        -61.7850  -42.1280    2.0670 O.2   261  LEU261     -0.2867
    146  CB       -63.9300  -41.5630    0.1440 C.3   261  LEU261      0.0270
    147  CG       -64.7860  -40.5690   -0.6790 C.3   261  LEU261      0.0019
    148  CD1      -66.2740  -40.9220   -0.6890 C.3   261  LEU261      0.0001
    149  CD2      -64.5790  -39.1160   -0.2940 C.3   261  LEU261      0.0001
    150  N        -65.2070  -47.6190   -4.5190 N.3   289  HIS289     -0.1241
    151  CA       -66.2810  -47.1840   -3.6820 C.3   289  HIS289      0.1621
    152  C        -67.5540  -47.9140   -4.0080 C.2   289  HIS289      0.2264
    153  O        -67.8140  -48.2710   -5.1840 O.2   289  HIS289     -0.2867
    154  CB       -66.4520  -45.6930   -3.9030 C.3   289  HIS289      0.0745
    155  CG       -67.2950  -45.0370   -2.8930 C.ar  289  HIS289      0.0817
    156  ND1      -66.7870  -44.7060   -1.6540 N.ar  289  HIS289     -0.2268
    157  CD2      -68.5840  -44.6210   -2.8970 C.ar  289  HIS289      0.1154
    158  CE1      -67.7300  -44.1360   -0.9360 C.ar  289  HIS289      0.1986
    159  NE2      -68.8100  -44.0240   -1.6760 N.ar  289  HIS289     -0.2212
@<TRIPOS>BOND
     1     1     2    1
     2     4     3    2
     3     3     2    1
     4     2     5    1
     5     5     6    1
     6     7     6   ar
     7     7     9   ar
     8     6     8   ar
     9     9    10   ar
    10     8    10   ar
    11     8    11   ar
    12    10    12   ar
    13    11    13   ar
    14    12    14   ar
    15    13    14   ar
    16    81    82    1
    17    89    90    1
    18    89    83   am
    19    15    16    1
    20    90    91    1
    21    82    83    1
    22    82    85    1
    23    83    84    2
    24    87    86   ar
    25    16    17    1
    26    16    19    1
    27    91    93   am
    28    91    92    2
    29    85    86    1
    30    86    88   ar
    31    93    94    1
    32    18    17    2
    33    19    20    1
    34    21    20   ar
    35    21    23   ar
    36    95    94    1
    37    95    96    2
    38    94    97    1
    39    20    22   ar
    40   120   119    1
    41    23    25   ar
    42    52    51    1
    43    53    51    1
    44    97    98    1
    45   119   118   ar
    46   119   117   ar
    47   101   102    1
    48    51    50    1
    49    22    24   ar
    50    98   100    1
    51    98    99    1
    52   118   116   ar
    53    25    24   ar
    54    25    26    1
    55   117   115   ar
    56   153   152    2
    57    50    47    1
    58   150   151    1
    59   116   114   ar
    60   102   105    1
    61   102   103    1
    62   115   114   ar
    63   152   151    1
    64   109   110    1
    65   154   151    1
    66   154   155    1
    67   106   105    1
    68   106   107    1
    69   106   108    1
    70   114   113    1
    71   103   104    2
    72    47    46    1
    73    47    48    1
    74   157   155   ar
    75   157   159   ar
    76   155   156   ar
    77   110   113    1
    78   110   111    1
    79    30    29    2
    80    48    49    2
    81    29    28    1
    82    29    31   am
    83    28    27    1
    84   159   158   ar
    85   156   158   ar
    86   111   121   am
    87   111   112    2
    88    32    31    1
    89    32    33    1
    90   142   143    1
    91   121   122    1
    92    34    33    2
    93    33    35   am
    94   148   147    1
    95   147   149    1
    96   147   146    1
    97   123   122    1
    98   123   124    2
    99   122   125    1
   100    37    38    2
   101    37    36    1
   102   143   146    1
   103   143   144    1
   104    59    58    1
   105   125   126    1
   106    35    36    1
   107    58    55    1
   108    36    39    1
   109   144   145    2
   110   129   127   ar
   111   126   127    1
   112    39    40    1
   113   127   128   ar
   114    79    78    1
   115    55    54    1
   116    55    56    1
   117    64    61    1
   118    60    56   am
   119    60    61    1
   120    42    40   ar
   121    42    44   ar
   122    40    41   ar
   123    80    78    1
   124    78    77    1
   125    56    57    2
   126    77    74    1
   127   141   140    1
   128    61    62    1
   129    44    45   ar
   130    41    43   ar
   131    74    73    1
   132    74    75    1
   133   140   138   ar
   134   140   139   ar
   135    62    63    2
   136    45    43   ar
   137   138   136   ar
   138   139   137   ar
   139    75    76    2
   140    72    71    1
   141    71    70    1
   142   136   135   ar
   143   137   135   ar
   144    69    70    1
   145    69    66    1
   146   135   134    1
   147    65    66    1
   148    66    67    1
   149   134   131    1
   150   133   132    2
   151    67    68    2
   152   132   131    1
   153   131   130    1
