@<TRIPOS>MOLECULE
tmp/4kryE00.pdb
 131 122 0 0 0
SMALL
GASTEIGER

@<TRIPOS>ATOM
      1  N         27.2600   11.9590   58.3390 N.3     6  HIS6       -0.1241
      2  CA        28.1700   13.0250   57.9300 C.3     6  HIS6        0.1621
      3  C         27.4100   14.3160   57.6220 C.2     6  HIS6        0.2264
      4  O         26.5080   14.3350   56.7770 O.2     6  HIS6       -0.2867
      5  CB        28.9990   12.5790   56.7180 C.3     6  HIS6        0.0745
      6  CG        30.0220   11.5410   57.0490 C.ar    6  HIS6        0.0817
      7  ND1       29.6840   10.2800   57.4980 N.ar    6  HIS6       -0.2268
      8  CD2       31.3760   11.5730   56.9970 C.ar    6  HIS6        0.1154
      9  CE1       30.7880    9.5810   57.7120 C.ar    6  HIS6        0.1986
     10  NE2       31.8270   10.3430   57.4130 N.ar    6  HIS6       -0.2212
     11  N         31.6400   15.1380   51.7580 N.3    10  ILE10      -0.1245
     12  CA        32.4570   13.9390   51.9430 C.3    10  ILE10       0.1561
     13  C         33.3750   13.9060   50.7070 C.2    10  ILE10       0.2260
     14  O         32.9240   13.6020   49.5870 O.2    10  ILE10      -0.2867
     15  CB        31.5790   12.6610   52.0960 C.3    10  ILE10       0.0252
     16  CG1       30.5130   12.8230   53.1900 C.3    10  ILE10       0.0019
     17  CG2       32.4080   11.4440   52.4260 C.3    10  ILE10       0.0019
     18  CD1       29.2100   12.0870   52.9150 C.3    10  ILE10       0.0001
     19  N         21.2970   -3.8420   43.4310 N.3   178  MET178     -0.1245
     20  CA        21.2810   -4.2830   44.8310 C.3   178  MET178      0.1570
     21  C         20.0730   -5.1790   45.1280 C.2   178  MET178      0.2261
     22  O         20.2450   -6.2700   45.7030 O.2   178  MET178     -0.2867
     23  CB        21.2620   -3.1460   45.8450 C.3   178  MET178      0.0387
     24  CG        21.2640   -3.7140   47.2710 C.3   178  MET178      0.0595
     25  SD        21.3410   -2.4070   48.4830 S.3   178  MET178     -0.1393
     26  CE        23.1150   -2.1770   48.5720 C.3   178  MET178      0.0692
     27  N         25.1380   -0.7790   43.5380 N.3   206  LEU206     -0.1245
     28  CA        25.8080   -0.7130   44.8250 C.3   206  LEU206      0.1561
     29  C         25.4110   -1.8980   45.7020 C.2   206  LEU206      0.2260
     30  O         24.2580   -2.3680   45.6540 O.2   206  LEU206     -0.2867
     31  CB        25.5370    0.6050   45.5230 C.3   206  LEU206      0.0270
     32  CG        24.2020    0.8460   46.1870 C.3   206  LEU206      0.0019
     33  CD1       24.2390    2.2200   46.8610 C.3   206  LEU206      0.0001
     34  CD2       23.0950    0.8110   45.1690 C.3   206  LEU206      0.0001
     35  N         26.7570   -2.2130   49.2430 N.3   208  GLY208     -0.1210
     36  CA        27.0200   -2.0220   50.6700 C.3   208  GLY208      0.1956
     37  C         28.3740   -1.5120   51.1200 C.2   208  GLY208      0.2612
     38  O         28.5870   -1.3720   52.3220 O.2   208  GLY208     -0.2717
     39  N         29.2810   -1.2300   50.1890 N.am  209  LEU209     -0.1965
     40  CA        30.5080   -0.5160   50.5560 C.3   209  LEU209      0.1728
     41  C         30.0740    0.8410   51.1160 C.2   209  LEU209      0.2616
     42  O         29.1560    1.4360   50.5880 O.2   209  LEU209     -0.2715
     43  CB        31.3880   -0.2590   49.3540 C.3   209  LEU209      0.0311
     44  CG        32.5440   -1.1480   49.0190 C.3   209  LEU209      0.0022
     45  CD1       33.0920   -0.6310   47.6960 C.3   209  LEU209      0.0001
     46  CD2       33.6420   -1.1130   50.0770 C.3   209  LEU209      0.0001
     47  N         30.7270    1.3250   52.1700 N.am  210  ARG210     -0.1963
     48  CA        30.3520    2.6010   52.7760 C.3   210  ARG210      0.1729
     49  C         31.2020    3.7470   52.2970 C.2   210  ARG210      0.2616
     50  O         30.9350    4.8900   52.6230 O.2   210  ARG210     -0.2715
     51  CB        30.4650    2.5470   54.3010 C.3   210  ARG210      0.0348
     52  CG        29.9050    1.2850   54.9070 C.3   210  ARG210      0.0492
     53  CD        29.2580    1.5830   56.2150 C.3   210  ARG210      0.2205
     54  NE        28.4880    2.8340   56.2010 N.pl3 210  ARG210     -0.0865
     55  CZ        27.2680    2.9860   55.6720 C.cat 210  ARG210      0.5346
     56  NH1       26.6580    1.9750   55.0400 N.pl3 210  ARG210      0.1354
     57  NH2       26.6850    4.1750   55.7480 N.pl3 210  ARG210      0.1354
     58  N         32.2230    3.4280   51.5200 N.am  211  ASP211     -0.1971
     59  CA        33.2670    4.3970   51.1220 C.3   211  ASP211      0.1709
     60  C         34.1830    3.6490   50.1940 C.2   211  ASP211      0.2293
     61  O         34.2550    2.4180   50.2440 O.2   211  ASP211     -0.2864
     62  CB        34.0540    4.9270   52.3340 C.3   211  ASP211      0.1436
     63  CG        34.6930    6.3400   52.0990 C.2   211  ASP211      0.3671
     64  OD1       34.6510    6.9460   50.9830 O.co2 211  ASP211     -0.2456
     65  OD2       35.2880    6.8540   53.0720 O.co2 211  ASP211     -0.2456
     66  N         34.1380    6.3310   45.0240 N.3   215  ARG215     -0.1245
     67  CA        33.1290    7.2020   45.6520 C.3   215  ARG215      0.1563
     68  C         33.6580    8.6110   45.9580 C.2   215  ARG215      0.2260
     69  O         32.9300    9.5970   45.7810 O.2   215  ARG215     -0.2867
     70  CB        32.5350    6.5670   46.9030 C.3   215  ARG215      0.0307
     71  CG        31.4030    5.5650   46.6000 C.3   215  ARG215      0.0489
     72  CD        31.2210    4.5890   47.7440 C.3   215  ARG215      0.2205
     73  NE        30.2650    3.4980   47.4940 N.pl3 215  ARG215     -0.0865
     74  CZ        29.0450    3.4220   48.0510 C.cat 215  ARG215      0.5346
     75  NH1       28.6330    4.3430   48.9080 N.pl3 215  ARG215      0.1354
     76  NH2       28.2510    2.3830   47.7920 N.pl3 215  ARG215      0.1354
     77  N         28.6010   11.5750   47.8990 N.3   227  GLN227     -0.1245
     78  CA        28.3500   10.7420   49.0580 C.3   227  GLN227      0.1566
     79  C         27.2580   11.2930   49.9730 C.2   227  GLN227      0.2260
     80  O         26.6130   10.5140   50.6360 O.2   227  GLN227     -0.2867
     81  CB        29.6500   10.4300   49.8160 C.3   227  GLN227      0.0367
     82  CG        30.4300    9.3640   49.0680 C.3   227  GLN227      0.0905
     83  CD        31.8980    9.2950   49.4590 C.2   227  GLN227      0.2608
     84  OE1       32.6930   10.1740   49.1250 O.2   227  GLN227     -0.2717
     85  NE2       32.2610    8.2300   50.1680 N.am  227  GLN227     -0.0878
     86  N         24.2400    9.8780   48.4420 N.3   230  LEU230     -0.1231
     87  CA        24.1660    8.4490   48.7480 C.3   230  LEU230      0.1693
     88  C         23.7140    8.1700   50.1820 C.2   230  LEU230      0.2591
     89  O         22.9480    7.2270   50.4360 O.2   230  LEU230     -0.2718
     90  CB        25.5110    7.7920   48.4960 C.3   230  LEU230      0.0284
     91  CG        25.7850    7.5220   47.0130 C.3   230  LEU230      0.0019
     92  CD1       27.2620    7.2200   46.8120 C.3   230  LEU230      0.0001
     93  CD2       24.9320    6.3630   46.5020 C.3   230  LEU230      0.0001
     94  N         24.1890    9.0000   51.1060 N.am  231  GLN231     -0.1979
     95  CA        23.8250    8.8720   52.4980 C.3   231  GLN231      0.1601
     96  C         22.2930    9.1660   52.6410 C.2   231  GLN231      0.2287
     97  O         21.5810    8.4110   53.2630 O.2   231  GLN231     -0.2864
     98  CB        24.7080    9.7870   53.3560 C.3   231  GLN231      0.0394
     99  CG        24.3040    9.8730   54.8090 C.3   231  GLN231      0.0908
    100  CD        25.2610   10.7080   55.6200 C.2   231  GLN231      0.2608
    101  OE1       26.1190   10.1700   56.2870 O.2   231  GLN231     -0.2717
    102  NE2       25.1150   12.0380   55.5630 N.am  231  GLN231     -0.0878
    103  N         20.4040    6.1760   51.3670 N.3   234  GLU234     -0.1245
    104  CA        20.5370    5.1710   52.3930 C.3   234  GLU234      0.1567
    105  C         19.6480    5.4210   53.6150 C.2   234  GLU234      0.2260
    106  O         19.0320    4.4920   54.1140 O.2   234  GLU234     -0.2867
    107  CB        21.9880    5.0480   52.8400 C.3   234  GLU234      0.0388
    108  CG        22.1630    4.0570   53.9850 C.3   234  GLU234      0.1160
    109  CD        23.6200    3.8990   54.3930 C.2   234  GLU234      0.3649
    110  OE1       24.2770    2.9910   53.8500 O.co2 234  GLU234     -0.2457
    111  OE2       24.0950    4.6910   55.2520 O.co2 234  GLU234     -0.2457
    112  N         21.7090   -6.1020   52.6980 N.3   249  TYR249     -0.1241
    113  CA        22.0460   -4.7380   52.3080 C.3   249  TYR249      0.1605
    114  C         23.5570   -4.6280   51.9790 C.2   249  TYR249      0.2264
    115  O         23.9530   -4.3280   50.8330 O.2   249  TYR249     -0.2867
    116  CB        21.6870   -3.7460   53.4120 C.3   249  TYR249      0.0534
    117  CG        22.0270   -2.3520   53.0160 C.ar  249  TYR249     -0.0201
    118  CD1       21.3040   -1.7290   52.0570 C.ar  249  TYR249     -0.0009
    119  CD2       23.1130   -1.7020   53.5420 C.ar  249  TYR249     -0.0009
    120  CE1       21.5880   -0.4600   51.6550 C.ar  249  TYR249      0.0417
    121  CE2       23.4350   -0.4210   53.1420 C.ar  249  TYR249      0.0417
    122  CZ        22.6480    0.1960   52.1800 C.ar  249  TYR249      0.1957
    123  OH        22.8990    1.4780   51.7370 O.3   249  TYR249     -0.2866
    124  N         32.1440   -0.7030   44.0370 N.3   276  ASP276     -0.1239
    125  CA        31.2040   -1.7560   44.5050 C.3   276  ASP276      0.1674
    126  C         31.1380   -2.9260   43.5460 C.2   276  ASP276      0.2266
    127  O         31.1090   -4.0780   43.9750 O.2   276  ASP276     -0.2867
    128  CB        29.7970   -1.2040   44.6850 C.3   276  ASP276      0.1410
    129  CG        29.6590   -0.3450   45.9160 C.2   276  ASP276      0.3668
    130  OD1       30.2250    0.7730   45.9450 O.co2 276  ASP276     -0.2456
    131  OD2       28.9040   -0.7480   46.8310 O.co2 276  ASP276     -0.2456
@<TRIPOS>BOND
     1    19    20    1
     2    27    28    1
     3   126   127    2
     4   126   125    1
     5   124   125    1
     6   125   128    1
     7   128   129    1
     8    28    31    1
     9    28    29    1
    10    20    21    1
    11    20    23    1
    12    66    67    1
    13    21    22    2
    14    34    32    1
    15    31    32    1
    16    67    68    1
    17    67    70    1
    18    30    29    2
    19    69    68    2
    20    23    24    1
    21   129   130   ar
    22   129   131   ar
    23    32    33    1
    24    93    91    1
    25    71    70    1
    26    71    72    1
    27    92    91    1
    28    91    90    1
    29    24    25    1
    30    73    72    1
    31    73    74    2
    32    45    44    1
    33    76    74    1
    34    77    78    1
    35    74    75    1
    36    86    87    1
    37    25    26    1
    38    90    87    1
    39    87    88    1
    40    44    43    1
    41    44    46    1
    42    78    81    1
    43    78    79    1
    44    82    83    1
    45    82    81    1
    46    84    83    2
    47    35    36    1
    48    43    40    1
    49    83    85   am
    50    14    13    2
    51    79    80    2
    52    88    89    2
    53    88    94   am
    54    39    40    1
    55    39    37   am
    56    60    61    2
    57    60    59    1
    58    40    41    1
    59    42    41    2
    60    36    37    1
    61    13    12    1
    62   115   114    2
    63    64    63   ar
    64    94    95    1
    65    41    47   am
    66    37    38    2
    67    59    58    1
    68    59    62    1
    69   103   104    1
    70    58    49   am
    71   120   118   ar
    72   120   122   ar
    73   123   122    1
    74    11    12    1
    75    12    15    1
    76   114   113    1
    77   118   117   ar
    78    15    17    1
    79    15    16    1
    80    63    62    1
    81    63    65   ar
    82    47    48    1
    83   122   121   ar
    84    49    50    2
    85    49    48    1
    86   113   112    1
    87   113   116    1
    88   104   107    1
    89   104   105    1
    90    95    96    1
    91    95    98    1
    92    96    97    2
    93    48    51    1
    94   107   108    1
    95    18    16    1
    96   117   116    1
    97   117   119   ar
    98   121   119   ar
    99    98    99    1
   100   105   106    2
   101   110   109   ar
   102   108   109    1
   103    51    52    1
   104   109   111   ar
   105    99   100    1
   106    52    53    1
   107    56    55    1
   108   102   100   am
   109   100   101    2
   110    55    57    1
   111    55    54    2
   112    54    53    1
   113     5     6    1
   114     5     2    1
   115     4     3    2
   116     8     6   ar
   117     8    10   ar
   118     6     7   ar
   119    10     9   ar
   120     7     9   ar
   121     3     2    1
   122     2     1    1
