@<TRIPOS>MOLECULE
tmp/4kryE01.pdb
 112 109 0 0 0
SMALL
GASTEIGER

@<TRIPOS>ATOM
      1  N         -0.0910  -10.3340   44.9430 N.3    76  PRO76      -0.2102
      2  CA        -0.2030  -10.2010   46.4020 C.3    76  PRO76       0.1504
      3  C          1.1490  -10.2960   47.0580 C.2    76  PRO76       0.2576
      4  O          1.9860  -11.0060   46.5730 O.2    76  PRO76      -0.2718
      5  CB        -1.0710  -11.3690   46.7930 C.3    76  PRO76       0.0282
      6  CG        -0.7860  -12.4090   45.7460 C.3    76  PRO76       0.0208
      7  CD        -0.4480  -11.6870   44.4840 C.3    76  PRO76       0.0893
      8  N          1.3640   -9.4890   48.0930 N.am   77  THR77      -0.1939
      9  CA         2.5190   -9.6030   48.9810 C.3    77  THR77       0.2028
     10  C          2.0120   -9.4470   50.4000 C.2    77  THR77       0.2642
     11  O          0.8550   -9.1210   50.6360 O.2    77  THR77      -0.2714
     12  CB         3.5850   -8.5090   48.7380 C.3    77  THR77       0.1808
     13  OG1        3.1490   -7.2440   49.2660 O.3    77  THR77      -0.2208
     14  CG2        3.8760   -8.3460   47.2690 C.3    77  THR77       0.0379
     15  N          2.9110   -9.6300   51.3410 N.am   78  LYS78      -0.1977
     16  CA         2.5780   -9.4710   52.7590 C.3    78  LYS78       0.1596
     17  C          2.2510   -8.0000   53.0870 C.2    78  LYS78       0.2287
     18  O          1.6180   -7.6940   54.0910 O.2    78  LYS78      -0.2864
     19  CB         3.7480  -10.0280   53.6120 C.3    78  LYS78       0.0298
     20  CG         3.7310   -9.7000   55.0980 C.3    78  LYS78       0.0038
     21  CD         2.4170  -10.1290   55.7800 C.3    78  LYS78       0.0206
     22  CE         2.5760   -9.9930   57.2980 C.3    78  LYS78       0.1093
     23  NZ         1.2570  -10.1100   57.9750 N.3    78  LYS78      -0.1314
     24  N         11.1550   -8.2730   50.2880 N.3   146  GLU146     -0.1245
     25  CA        10.0170   -9.1360   50.5710 C.3   146  GLU146      0.1567
     26  C          8.9090   -9.0710   49.5490 C.2   146  GLU146      0.2260
     27  O          8.3180  -10.0950   49.2360 O.2   146  GLU146     -0.2867
     28  CB         9.4470   -8.8800   51.9400 C.3   146  GLU146      0.0388
     29  CG        10.4370   -9.1960   53.0340 C.3   146  GLU146      0.1160
     30  CD         9.8090   -9.0100   54.3910 C.2   146  GLU146      0.3649
     31  OE1        9.5360   -7.8520   54.8100 O.co2 146  GLU146     -0.2457
     32  OE2        9.5200  -10.0420   55.0210 O.co2 146  GLU146     -0.2457
     33  N         10.3950  -11.0690   46.3470 N.3   149  VAL149     -0.1231
     34  CA        10.3940  -12.4940   46.6420 C.3   149  VAL149      0.1692
     35  C          8.9450  -13.0020   46.6130 C.2   149  VAL149      0.2591
     36  O          8.6550  -14.0580   46.0520 O.2   149  VAL149     -0.2718
     37  CB        11.0740  -12.7340   48.0000 C.3   149  VAL149      0.0266
     38  CG1       10.6510  -14.0590   48.6110 C.3   149  VAL149      0.0020
     39  CG2       12.6030  -12.6210   47.8350 C.3   149  VAL149      0.0020
     40  N          8.0280  -12.2130   47.1770 N.am  150  ALA150     -0.1980
     41  CA         6.6430  -12.6120   47.1560 C.3   150  ALA150      0.1597
     42  C          6.0800  -12.6120   45.7390 C.2   150  ALA150      0.2287
     43  O          5.3910  -13.5670   45.3710 O.2   150  ALA150     -0.2864
     44  CB         5.8180  -11.7640   48.0730 C.3   150  ALA150      0.0319
     45  N          7.4900  -15.7390   43.8910 N.3   153  CYS153     -0.1221
     46  CA         6.8300  -16.9510   44.3250 C.3   153  CYS153      0.1808
     47  C          5.3860  -17.0540   43.8530 C.2   153  CYS153      0.2601
     48  O          4.9170  -18.1640   43.5590 O.2   153  CYS153     -0.2717
     49  CB         6.9020  -17.1030   45.8470 C.3   153  CYS153      0.0970
     50  SG         8.6250  -17.3320   46.3000 S.3   153  CYS153     -0.0800
     51  N          4.6910  -15.9230   43.7980 N.am  154  TYR154     -0.1976
     52  CA         3.3160  -15.9120   43.3260 C.3   154  TYR154      0.1639
     53  C          3.2730  -16.3100   41.8320 C.2   154  TYR154      0.2290
     54  O          2.3850  -17.0160   41.4330 O.2   154  TYR154     -0.2864
     55  CB         2.6500  -14.5580   43.5190 C.3   154  TYR154      0.0560
     56  CG         1.3210  -14.4210   42.8110 C.ar  154  TYR154     -0.0198
     57  CD1        0.1490  -14.8840   43.3760 C.ar  154  TYR154     -0.0009
     58  CD2        1.2540  -13.8250   41.5650 C.ar  154  TYR154     -0.0009
     59  CE1       -1.0750  -14.7290   42.7240 C.ar  154  TYR154      0.0417
     60  CE2        0.0660  -13.7010   40.8890 C.ar  154  TYR154      0.0417
     61  CZ        -1.0970  -14.1480   41.4810 C.ar  154  TYR154      0.1957
     62  OH        -2.2460  -14.0110   40.7690 O.3   154  TYR154     -0.2866
     63  N          5.4770  -18.1060   40.2460 N.3   156  HIS156     -0.1226
     64  CA         5.8790  -19.5110   40.2100 C.3   156  HIS156      0.1752
     65  C          4.6720  -20.4010   40.4730 C.2   156  HIS156      0.2595
     66  O          4.3190  -21.2350   39.6670 O.2   156  HIS156     -0.2718
     67  CB         7.0130  -19.7920   41.2090 C.3   156  HIS156      0.0759
     68  CG         7.5330  -21.1970   41.1490 C.ar  156  HIS156      0.0818
     69  ND1        7.0190  -22.2120   41.9240 N.ar  156  HIS156     -0.2268
     70  CD2        8.5010  -21.7640   40.3820 C.ar  156  HIS156      0.1154
     71  CE1        7.6670  -23.3360   41.6570 C.ar  156  HIS156      0.1986
     72  NE2        8.5670  -23.0900   40.7250 N.ar  156  HIS156     -0.2212
     73  N          3.9940  -20.1590   41.5760 N.am  157  GLN157     -0.1979
     74  CA         2.7610  -20.8690   41.8880 C.3   157  GLN157      0.1601
     75  C          1.7120  -20.7410   40.8020 C.2   157  GLN157      0.2287
     76  O          1.0720  -21.7270   40.4540 O.2   157  GLN157     -0.2864
     77  CB         2.2040  -20.3770   43.2120 C.3   157  GLN157      0.0394
     78  CG         0.9470  -21.0550   43.6840 C.3   157  GLN157      0.0908
     79  CD         0.6010  -20.6430   45.0960 C.2   157  GLN157      0.2608
     80  OE1        1.3840  -20.8310   46.0060 O.2   157  GLN157     -0.2717
     81  NE2       -0.5850  -20.0630   45.2800 N.am  157  GLN157     -0.0878
     82  N         16.9890  -18.6730   52.3900 N.3   190  LYS190     -0.1245
     83  CA        15.7720  -19.2350   52.9530 C.3   190  LYS190      0.1561
     84  C         15.3840  -20.5670   52.3250 C.2   190  LYS190      0.2260
     85  O         14.3920  -21.1560   52.7180 O.2   190  LYS190     -0.2867
     86  CB        14.6000  -18.2520   52.8000 C.3   190  LYS190      0.0271
     87  CG        14.5250  -17.2040   53.9110 C.3   190  LYS190      0.0035
     88  CD        13.2050  -16.4410   53.8610 C.3   190  LYS190      0.0206
     89  CE        12.8400  -15.7960   55.1930 C.3   190  LYS190      0.1093
     90  NZ        13.6990  -14.6190   55.5490 N.3   190  LYS190     -0.1314
     91  N         14.0220  -21.2510   49.4670 N.3   192  ILE192     -0.1231
     92  CA        12.7450  -21.1870   48.7950 C.3   192  ILE192      0.1692
     93  C         12.9530  -21.6420   47.3590 C.2   192  ILE192      0.2592
     94  O         13.8990  -21.2200   46.7120 O.2   192  ILE192     -0.2718
     95  CB        12.1860  -19.7490   48.8580 C.3   192  ILE192      0.0266
     96  CG1       11.8940  -19.3600   50.3170 C.3   192  ILE192      0.0019
     97  CG2       10.9270  -19.6290   48.0260 C.3   192  ILE192      0.0020
     98  CD1       11.8780  -17.8650   50.5950 C.3   192  ILE192      0.0001
     99  N         12.0920  -22.5200   46.8610 N.am  193  ASP193     -0.1960
    100  CA        12.0990  -22.8440   45.4430 C.3   193  ASP193      0.1840
    101  C         10.9560  -22.1150   44.7270 C.2   193  ASP193      0.2622
    102  O          9.7950  -22.5370   44.7550 O.2   193  ASP193     -0.2715
    103  CB        12.0010  -24.3520   45.2070 C.3   193  ASP193      0.1450
    104  CG        12.2930  -24.7470   43.7390 C.2   193  ASP193      0.3671
    105  OD1       12.4250  -23.8750   42.8490 O.co2 193  ASP193     -0.2456
    106  OD2       12.3850  -25.9590   43.4690 O.co2 193  ASP193     -0.2456
    107  N         11.2880  -21.0000   44.0920 N.am  194  CYS194     -0.1968
    108  CA        10.3340  -20.3310   43.2480 C.3   194  CYS194      0.1712
    109  C         10.9410  -20.2620   41.8210 C.2   194  CYS194      0.2296
    110  O         10.7160  -19.3000   41.0720 O.2   194  CYS194     -0.2864
    111  CB         9.9350  -18.9780   43.8870 C.3   194  CYS194      0.0983
    112  SG         8.9880  -19.2460   45.4590 S.3   194  CYS194     -0.0798
@<TRIPOS>BOND
     1    66    65    2
     2    64    63    1
     3    64    65    1
     4    64    67    1
     5    70    72   ar
     6    70    68   ar
     7    76    75    2
     8    65    73   am
     9    72    71   ar
    10    62    61    1
    11    75    74    1
    12    60    61   ar
    13    60    58   ar
    14   110   109    2
    15    68    67    1
    16    68    69   ar
    17    54    53    2
    18    61    59   ar
    19    58    56   ar
    20    73    74    1
    21    71    69   ar
    22   109   108    1
    23    53    52    1
    24    74    77    1
    25    59    57   ar
    26    56    57   ar
    27    56    55    1
    28   105   104   ar
    29    77    78    1
    30   108   111    1
    31   108   107    1
    32    52    55    1
    33    52    51    1
    34   106   104   ar
    35    48    47    2
    36    78    79    1
    37   104   103    1
    38    51    47   am
    39    47    46    1
    40   111   112    1
    41    45    46    1
    42   107   101   am
    43    46    49    1
    44     7     1    1
    45     7     6    1
    46   101   102    2
    47   101   100    1
    48     1     2    1
    49    79    81   am
    50    79    80    2
    51   103   100    1
    52    43    42    2
    53   100    99    1
    54   112    50    1
    55    42    41    1
    56     6     5    1
    57    49    50    1
    58    36    35    2
    59    33    34    1
    60     2     5    1
    61     2     3    1
    62     4     3    2
    63    35    34    1
    64    35    40   am
    65    34    37    1
    66    94    93    2
    67    99    93   am
    68     3     8   am
    69    41    40    1
    70    41    44    1
    71    14    12    1
    72    93    92    1
    73    39    37    1
    74    37    38    1
    75    97    95    1
    76     8     9    1
    77    12     9    1
    78    12    13    1
    79    92    95    1
    80    92    91    1
    81    95    96    1
    82     9    10    1
    83    27    26    2
    84    26    25    1
    85    24    25    1
    86    96    98    1
    87    10    11    2
    88    10    15   am
    89    25    28    1
    90    15    16    1
    91    28    29    1
    92    84    85    2
    93    84    83    1
    94    82    83    1
    95    16    17    1
    96    16    19    1
    97    86    83    1
    98    86    87    1
    99    29    30    1
   100    17    18    2
   101    19    20    1
   102    88    87    1
   103    88    89    1
   104    30    31   ar
   105    30    32   ar
   106    20    21    1
   107    89    90    1
   108    21    22    1
   109    22    23    1
