@<TRIPOS>MOLECULE
tmp/4kryD01.pdb
 88 84 0 0 0
SMALL
GASTEIGER

@<TRIPOS>ATOM
      1  N          8.0080  -14.2320   -3.6990 N.3    40  ARG40      -0.1245
      2  CA         7.8130  -13.0070   -2.9300 C.3    40  ARG40       0.1563
      3  C          7.1750  -13.3350   -1.5500 C.2    40  ARG40       0.2260
      4  O          7.5710  -12.7620   -0.5360 O.2    40  ARG40      -0.2867
      5  CB         6.9680  -11.9850   -3.6850 C.3    40  ARG40       0.0307
      6  CG         7.6380  -11.4290   -4.9110 C.3    40  ARG40       0.0489
      7  CD         6.6960  -10.6440   -5.8100 C.3    40  ARG40       0.2205
      8  NE         7.4840  -10.0470   -6.8930 N.pl3  40  ARG40      -0.0865
      9  CZ         7.0360   -9.6770   -8.1010 C.cat  40  ARG40       0.5346
     10  NH1        5.7690   -9.7680   -8.4550 N.pl3  40  ARG40       0.1354
     11  NH2        7.8990   -9.2030   -8.9620 N.pl3  40  ARG40       0.1354
     12  N         -0.7960    6.6410   -0.4480 N.3    63  MET63      -0.1245
     13  CA        -0.5570    6.4740   -1.8740 C.3    63  MET63       0.1570
     14  C         -0.1260    7.8340   -2.4440 C.2    63  MET63       0.2261
     15  O         -0.6280    8.8570   -2.0340 O.2    63  MET63      -0.2867
     16  CB        -1.8360    5.9920   -2.5520 C.3    63  MET63       0.0387
     17  CG        -2.3860    4.6520   -2.0580 C.3    63  MET63       0.0595
     18  SD        -1.1610    3.3150   -2.1180 S.3    63  MET63      -0.1393
     19  CE        -1.0660    3.0700   -3.8930 C.3    63  MET63       0.0692
     20  N         -0.2260    5.2690   -9.0610 N.3    70  GLN70      -0.1231
     21  CA         0.0040    5.5100   -7.6670 C.3    70  GLN70       0.1698
     22  C          0.8570    4.4260   -7.0140 C.2    70  GLN70       0.2592
     23  O          0.6780    3.2100   -7.2820 O.2    70  GLN70      -0.2718
     24  CB        -1.3370    5.5650   -6.9480 C.3    70  GLN70       0.0381
     25  CG        -2.2180    6.6700   -7.4530 C.3    70  GLN70       0.0905
     26  CD        -2.0210    7.9700   -6.7200 C.2    70  GLN70       0.2608
     27  OE1       -1.8690    8.0140   -5.5110 O.2    70  GLN70      -0.2717
     28  NE2       -2.0640    9.0400   -7.4440 N.am   70  GLN70      -0.0878
     29  N          1.7630    4.8650   -6.1330 N.am   71  VAL71      -0.1966
     30  CA         2.4810    3.9270   -5.2990 C.3    71  VAL71       0.1727
     31  C          2.2950    4.1570   -3.8220 C.2    71  VAL71       0.2616
     32  O          2.1620    5.2960   -3.3780 O.2    71  VAL71      -0.2715
     33  CB         3.9680    3.9250   -5.6000 C.3    71  VAL71       0.0290
     34  CG1        4.1530    3.6020   -7.0690 C.3    71  VAL71       0.0023
     35  CG2        4.6100    5.2370   -5.1820 C.3    71  VAL71       0.0023
     36  N          2.3060    3.0510   -3.0890 N.am   72  GLU72      -0.1977
     37  CA         2.2550    3.0830   -1.6570 C.3    72  GLU72       0.1602
     38  C          3.5820    3.5150   -1.0350 C.2    72  GLU72       0.2287
     39  O          4.6530    3.1610   -1.5040 O.2    72  GLU72      -0.2864
     40  CB         1.9350    1.7190   -1.1000 C.3    72  GLU72       0.0415
     41  CG         1.5630    1.8070    0.3610 C.3    72  GLU72       0.1163
     42  CD         1.0520    0.5110    0.9530 C.2    72  GLU72       0.3649
     43  OE1        1.0440   -0.5370    0.2710 O.co2  72  GLU72      -0.2457
     44  OE2        0.6430    0.5480    2.1280 O.co2  72  GLU72      -0.2457
     45  N          7.2750    1.9640   -1.8290 N.3   121  ASP121     -0.1225
     46  CA         6.9100    0.6500   -2.3800 C.3   121  ASP121      0.1805
     47  C          6.9650    0.7450   -3.9020 C.2   121  ASP121      0.2598
     48  O          5.9340    0.8210   -4.5670 O.2   121  ASP121     -0.2718
     49  CB         5.4900    0.2440   -1.9140 C.3   121  ASP121      0.1424
     50  CG         5.2000   -1.2390   -2.0690 C.2   121  ASP121      0.3668
     51  OD1        6.1320   -2.0920   -2.0230 O.co2 121  ASP121     -0.2456
     52  OD2        3.9830   -1.5740   -2.2420 O.co2 121  ASP121     -0.2456
     53  N          8.1700    0.7600   -4.4410 N.am  122  TYR122     -0.1962
     54  CA         8.3420    0.9270   -5.8750 C.3   122  TYR122      0.1771
     55  C          7.8930   -0.3740   -6.5680 C.2   122  TYR122      0.2620
     56  O          7.9240   -1.4860   -5.9650 O.2   122  TYR122     -0.2715
     57  CB         9.8160    1.3010   -6.2140 C.3   122  TYR122      0.0574
     58  CG        10.8350    0.2850   -5.7330 C.ar  122  TYR122     -0.0198
     59  CD1       11.0520   -0.8700   -6.4590 C.ar  122  TYR122     -0.0009
     60  CD2       11.4990    0.4270   -4.5190 C.ar  122  TYR122     -0.0009
     61  CE1       11.9290   -1.8380   -6.0270 C.ar  122  TYR122      0.0417
     62  CE2       12.3970   -0.5440   -4.0670 C.ar  122  TYR122      0.0417
     63  CZ        12.6110   -1.6880   -4.8320 C.ar  122  TYR122      0.1957
     64  OH        13.4730   -2.6930   -4.4780 O.3   122  TYR122     -0.2866
     65  N          7.4640   -0.2460   -7.8140 N.am  123  THR123     -0.1937
     66  CA         7.0500   -1.3980   -8.5670 C.3   123  THR123      0.2028
     67  C          8.2040   -2.3770   -8.8410 C.2   123  THR123      0.2642
     68  O          9.2880   -1.9880   -9.3000 O.2   123  THR123     -0.2714
     69  CB         6.3160   -0.9760   -9.8580 C.3   123  THR123      0.1808
     70  OG1        5.3610    0.0360   -9.5370 O.3   123  THR123     -0.2208
     71  CG2        5.5660   -2.1970  -10.5060 C.3   123  THR123      0.0379
     72  N          7.9720   -3.6350   -8.4880 N.am  124  LEU124     -0.1977
     73  CA         8.9430   -4.6720   -8.6380 C.3   124  LEU124      0.1596
     74  C          9.0990   -5.0790  -10.0860 C.2   124  LEU124      0.2287
     75  O          8.1730   -5.0100  -10.8670 O.2   124  LEU124     -0.2864
     76  CB         8.5730   -5.9060   -7.8000 C.3   124  LEU124      0.0297
     77  CG         8.5360   -5.6510   -6.2710 C.3   124  LEU124      0.0022
     78  CD1        8.1420   -6.9020   -5.5020 C.3   124  LEU124      0.0001
     79  CD2        9.8840   -5.1690   -5.7730 C.3   124  LEU124      0.0001
     80  N          7.7800   -7.0850  -13.7290 N.3   127  GLU127     -0.1245
     81  CA         6.5950   -6.4140  -14.2200 C.3   127  GLU127      0.1567
     82  C          6.9230   -4.9890  -14.6160 C.2   127  GLU127      0.2260
     83  O          6.4080   -4.4860  -15.6270 O.2   127  GLU127     -0.2867
     84  CB         5.4730   -6.3610  -13.1730 C.3   127  GLU127      0.0388
     85  CG         4.8860   -7.7130  -12.8350 C.3   127  GLU127      0.1160
     86  CD         5.7090   -8.5500  -11.8740 C.2   127  GLU127      0.3649
     87  OE1        6.8310   -8.1930  -11.4370 O.co2 127  GLU127     -0.2457
     88  OE2        5.2430   -9.6570  -11.5760 O.co2 127  GLU127     -0.2457
@<TRIPOS>BOND
     1    83    82    2
     2    82    81    1
     3    81    80    1
     4    81    84    1
     5    84    85    1
     6    85    86    1
     7    86    88   ar
     8    86    87   ar
     9    75    74    2
    10    71    69    1
    11    74    73    1
    12    69    70    1
    13    69    66    1
    14    68    67    2
    15    20    21    1
    16    11     9    1
    17    67    66    1
    18    67    72   am
    19    73    72    1
    20    73    76    1
    21    66    65    1
    22    10     9    1
    23     9     8    2
    24    65    55   am
    25    76    77    1
    26    21    22    1
    27    21    24    1
    28    25    24    1
    29    25    26    1
    30    28    26   am
    31    23    22    2
    32    34    33    1
    33    22    29   am
    34     8     7    1
    35    26    27    2
    36    55    56    2
    37    55    54    1
    38    59    61   ar
    39    59    58   ar
    40    77    79    1
    41    77    78    1
    42    57    54    1
    43    57    58    1
    44    29    30    1
    45    61    63   ar
    46    54    53    1
    47     7     6    1
    48    58    60   ar
    49    33    30    1
    50    33    35    1
    51    30    31    1
    52     6     5    1
    53    63    64    1
    54    63    62   ar
    55    48    47    2
    56    60    62   ar
    57    53    47   am
    58    47    46    1
    59    19    18    1
    60    31    32    2
    61    31    36   am
    62     1     2    1
    63     5     2    1
    64    36    37    1
    65     2     3    1
    66    16    17    1
    67    16    13    1
    68    14    15    2
    69    14    13    1
    70    46    49    1
    71    46    45    1
    72    52    50   ar
    73    18    17    1
    74    50    51   ar
    75    50    49    1
    76    13    12    1
    77    37    40    1
    78    37    38    1
    79     3     4    2
    80    39    38    2
    81    40    41    1
    82    43    42   ar
    83    41    42    1
    84    42    44   ar
