@<TRIPOS>MOLECULE
tmp/4ks0B00.pdb
 140 136 0 0 0
SMALL
GASTEIGER

@<TRIPOS>ATOM
      1  N         38.8280   14.3210   23.5270 N.3   399  VAL399     -0.1231
      2  CA        38.3400   14.2670   22.1620 C.3   399  VAL399      0.1692
      3  C         39.1300   13.2340   21.3870 C.2   399  VAL399      0.2592
      4  O         40.3410   13.1260   21.5610 O.2   399  VAL399     -0.2718
      5  CB        38.3800   15.6620   21.4670 C.3   399  VAL399      0.0266
      6  CG1       39.6390   16.4030   21.8200 C.3   399  VAL399      0.0020
      7  CG2       38.2640   15.5180   19.9530 C.3   399  VAL399      0.0020
      8  N         38.4330   12.4000   20.6150 N.am  400  LEU400     -0.1966
      9  CA        39.1210   11.3870   19.7860 C.3   400  LEU400      0.1728
     10  C         39.4220   11.9710   18.4320 C.2   400  LEU400      0.2617
     11  O         38.5290   12.4580   17.7270 O.2   400  LEU400     -0.2715
     12  CB        38.2820   10.1200   19.6150 C.3   400  LEU400      0.0311
     13  CG        37.7060    9.4180   20.8540 C.3   400  LEU400      0.0022
     14  CD1       37.4210    7.9620   20.5300 C.3   400  LEU400      0.0001
     15  CD2       38.6250    9.5320   22.0530 C.3   400  LEU400      0.0001
     16  N         40.6860   11.9690   18.0730 N.am  401  SER401     -0.1936
     17  CA        41.0720   12.5800   16.8370 C.3   401  SER401      0.2055
     18  C         42.1970   11.8030   16.2440 C.2   401  SER401      0.2643
     19  O         43.2120   11.5760   16.9020 O.2   401  SER401     -0.2714
     20  CB        41.5030   14.0180   17.0730 C.3   401  SER401      0.2130
     21  OG        41.8160   14.6420   15.8430 O.3   401  SER401     -0.2179
     22  N         42.0350   11.4000   14.9920 N.am  402  ASN402     -0.1957
     23  CA        43.1210   10.7410   14.2770 C.3   402  ASN402      0.1819
     24  C         44.0110   11.6960   13.4920 C.2   402  ASN402      0.2622
     25  O         45.2410   11.6120   13.5880 O.2   402  ASN402     -0.2715
     26  CB        42.5850    9.6430   13.3980 C.3   402  ASN402      0.1195
     27  CG        41.6600    8.7200   14.1460 C.2   402  ASN402      0.2630
     28  OD1       42.0600    8.0850   15.1350 O.2   402  ASN402     -0.2716
     29  ND2       40.3950    8.6650   13.7130 N.am  402  ASN402     -0.0877
     30  N         43.3970   12.6260   12.7450 N.am  403  SER403     -0.1950
     31  CA        44.1680   13.6400   12.0200 C.3   403  SER403      0.1924
     32  C         44.6790   14.7430   12.9440 C.2   403  SER403      0.2314
     33  O         45.6100   15.4520   12.6020 O.2   403  SER403     -0.2863
     34  CB        43.3540   14.2540   10.8830 C.3   403  SER403      0.2116
     35  OG        42.0830   14.6860   11.3380 O.3   403  SER403     -0.2180
     36  N         42.5430   17.0390   13.4000 N.3   405  ARG405     -0.1231
     37  CA        41.5300   18.0100   13.0370 C.3   405  ARG405      0.1694
     38  C         40.5850   18.3430   14.2220 C.2   405  ARG405      0.2592
     39  O         40.4140   19.5060   14.5670 O.2   405  ARG405     -0.2718
     40  CB        40.7580   17.5600   11.8190 C.3   405  ARG405      0.0321
     41  CG        39.7270   18.5730   11.3360 C.3   405  ARG405      0.0489
     42  CD        39.5760   18.5460    9.8080 C.3   405  ARG405      0.2205
     43  NE        40.3860   17.4880    9.1880 N.pl3 405  ARG405     -0.0865
     44  CZ        40.9950   17.5960    8.0070 C.cat 405  ARG405      0.5346
     45  NH1       41.7050   16.5770    7.5290 N.pl3 405  ARG405      0.1354
     46  NH2       40.8980   18.7180    7.3020 N.pl3 405  ARG405      0.1354
     47  N         40.0490   17.3210   14.8890 N.am  406  SER406     -0.1952
     48  CA        39.0660   17.5470   15.9370 C.3   406  SER406      0.1924
     49  C         39.6820   18.1170   17.1990 C.2   406  SER406      0.2314
     50  O         39.0470   18.9060   17.9040 O.2   406  SER406     -0.2863
     51  CB        38.3010   16.2810   16.2600 C.3   406  SER406      0.2116
     52  OG        37.7930   15.6730   15.0890 O.3   406  SER406     -0.2180
     53  N         45.1480    7.6420   17.1670 N.3   424  THR424     -0.1218
     54  CA        45.6940    6.4260   16.6620 C.3   424  THR424      0.1862
     55  C         46.9340    6.6680   15.8330 C.2   424  THR424      0.2287
     56  O         47.4780    5.7340   15.2670 O.2   424  THR424     -0.2866
     57  CB        44.6960    5.7140   15.7640 C.3   424  THR424      0.1770
     58  OG1       44.4870    6.4930   14.5770 O.3   424  THR424     -0.2211
     59  CG2       43.3770    5.4990   16.4860 C.3   424  THR424      0.0375
     60  N         34.7320    2.9400   20.6430 N.3   454  LYS454     -0.1245
     61  CA        35.3580    4.0840   21.2600 C.3   454  LYS454      0.1561
     62  C         35.7240    3.8620   22.7320 C.2   454  LYS454      0.2260
     63  O         36.5380    4.6070   23.2740 O.2   454  LYS454     -0.2867
     64  CB        34.5080    5.3450   21.0900 C.3   454  LYS454      0.0271
     65  CG        34.4960    5.9020   19.6790 C.3   454  LYS454      0.0035
     66  CD        33.2480    5.4810   18.9230 C.3   454  LYS454      0.0206
     67  CE        33.2270    6.0620   17.4990 C.3   454  LYS454      0.1093
     68  NZ        34.1020    5.3380   16.5350 N.3   454  LYS454     -0.1314
     69  N         39.5840    3.7560   23.5470 N.3   457  ARG457     -0.1245
     70  CA        40.2140    5.0720   23.4660 C.3   457  ARG457      0.1563
     71  C         39.7030    6.0490   24.5390 C.2   457  ARG457      0.2260
     72  O         40.4900    6.7800   25.1560 O.2   457  ARG457     -0.2867
     73  CB        40.0780    5.6580   22.0620 C.3   457  ARG457      0.0307
     74  CG        40.9890    4.9800   21.0410 C.3   457  ARG457      0.0489
     75  CD        40.7460    5.4930   19.6430 C.3   457  ARG457      0.2205
     76  NE        39.4780    5.0290   19.1060 N.pl3 457  ARG457     -0.0865
     77  CZ        38.9040    5.5420   18.0270 C.cat 457  ARG457      0.5346
     78  NH1       39.4790    6.5550   17.3910 N.pl3 457  ARG457      0.1354
     79  NH2       37.7300    5.0920   17.6190 N.pl3 457  ARG457      0.1354
     80  N         34.2670   13.9280   23.5480 N.3   480  VAL480     -0.1231
     81  CA        33.8490   14.2400   22.1630 C.3   480  VAL480      0.1692
     82  C         34.3780   13.1870   21.1720 C.2   480  VAL480      0.2592
     83  O         35.6100   13.0140   21.0190 O.2   480  VAL480     -0.2718
     84  CB        34.3770   15.6100   21.7130 C.3   480  VAL480      0.0266
     85  CG1       34.0820   15.8270   20.2420 C.3   480  VAL480      0.0020
     86  CG2       33.7740   16.7060   22.5540 C.3   480  VAL480      0.0020
     87  N         33.4470   12.4790   20.5300 N.am  481  HIS481     -0.1962
     88  CA        33.7400   11.6170   19.3910 C.3   481  HIS481      0.1787
     89  C         32.4650   11.3820   18.6090 C.2   481  HIS481      0.2620
     90  O         31.5050   12.1580   18.7390 O.2   481  HIS481     -0.2715
     91  CB        34.3610   10.3080   19.8480 C.3   481  HIS481      0.0785
     92  CG        33.5840    9.5940   20.9500 C.ar  481  HIS481      0.0821
     93  ND1       32.4120    8.9460   20.7190 N.ar  481  HIS481     -0.2267
     94  CD2       33.9050    9.3450   22.2860 C.ar  481  HIS481      0.1154
     95  CE1       31.9890    8.3620   21.8600 C.ar  481  HIS481      0.1986
     96  NE2       32.9040    8.5910   22.8120 N.ar  481  HIS481     -0.2212
     97  N         32.4190   10.3210   17.8000 N.am  482  ALA482     -0.1977
     98  CA        31.2180   10.0500   16.9800 C.3   482  ALA482      0.1597
     99  C         30.2820    9.0380   17.6400 C.2   482  ALA482      0.2287
    100  O         30.7160    8.2390   18.4960 O.2   482  ALA482     -0.2864
    101  CB        31.6130    9.5830   15.5800 C.3   482  ALA482      0.0319
    102  N         28.2340    7.3680   12.5230 N.3   486  VAL486     -0.1231
    103  CA        28.9030    8.4460   11.7780 C.3   486  VAL486      0.1692
    104  C         30.4320    8.2610   11.6880 C.2   486  VAL486      0.2592
    105  O         31.0870    7.9070   12.6590 O.2   486  VAL486     -0.2718
    106  CB        28.5370    9.8440   12.3730 C.3   486  VAL486      0.0266
    107  CG1       29.5490   10.9170   11.9710 C.3   486  VAL486      0.0020
    108  CG2       27.1220   10.2420   11.9680 C.3   486  VAL486      0.0020
    109  N         30.9820    8.5080   10.5050 N.am  487  LYS487     -0.1966
    110  CA        32.4200    8.3080   10.2540 C.3   487  LYS487      0.1728
    111  C         33.0150    9.5440    9.6300 C.2   487  LYS487      0.2617
    112  O         32.3730   10.1890    8.8160 O.2   487  LYS487     -0.2715
    113  CB        32.6510    7.1100    9.3250 C.3   487  LYS487      0.0311
    114  CG        31.8470    5.8810    9.6950 C.3   487  LYS487      0.0038
    115  CD        32.5200    5.1080   10.8090 C.3   487  LYS487      0.0206
    116  CE        31.5230    4.2060   11.5410 C.3   487  LYS487      0.1093
    117  NZ        32.1400    3.4810   12.7010 N.3   487  LYS487     -0.1314
    118  N         34.2270    9.8980   10.0440 N.am  488  GLY488     -0.1940
    119  CA        34.9610   10.9780    9.4120 C.3   488  GLY488      0.2014
    120  C         35.0050   12.2480   10.2360 C.2   488  GLY488      0.2639
    121  O         35.8410   13.1130    9.9890 O.2   488  GLY488     -0.2714
    122  N         34.1180   12.3530   11.2330 N.am  489  TYR489     -0.1960
    123  CA        34.0700   13.5280   12.1100 C.3   489  TYR489      0.1756
    124  C         33.2270   13.2360   13.3210 C.2   489  TYR489      0.2461
    125  O         32.3350   12.3930   13.2500 O.2   489  TYR489     -0.2730
    126  CB        33.4750   14.7080   11.3720 C.3   489  TYR489      0.0574
    127  CG        32.0350   14.5140   10.9950 C.ar  489  TYR489     -0.0198
    128  CD1       31.0230   14.9830   11.8120 C.ar  489  TYR489     -0.0009
    129  CD2       31.6790   13.8520    9.8020 C.ar  489  TYR489     -0.0009
    130  CE1       29.6970   14.7990   11.4810 C.ar  489  TYR489      0.0417
    131  CE2       30.3540   13.6800    9.4490 C.ar  489  TYR489      0.0417
    132  CZ        29.3650   14.1490   10.2980 C.ar  489  TYR489      0.1957
    133  OH        28.0420   14.0040    9.9730 O.3   489  TYR489     -0.2866
    134  N         33.4570   13.9860   14.4310 N.am  490  PRO490     -0.2727
    135  CA        32.6880   13.8130   15.6760 C.3   490  PRO490      0.1402
    136  C         31.3320   14.5080   15.5910 C.2   490  PRO490      0.2269
    137  O         31.2470   15.6320   15.0870 O.2   490  PRO490     -0.2865
    138  CB        33.5650   14.5010   16.7140 C.3   490  PRO490      0.0296
    139  CG        34.2590   15.5880   15.9460 C.3   490  PRO490      0.0237
    140  CD        34.4850   15.0430   14.5620 C.3   490  PRO490      0.0939
@<TRIPOS>BOND
     1    46    44    1
     2    45    44    1
     3    44    43    2
     4   112   111    2
     5    43    42    1
     6   113   114    1
     7   113   110    1
     8   119   118    1
     9   119   120    1
    10   131   129   ar
    11   131   132   ar
    12   111   118   am
    13   111   110    1
    14   114   115    1
    15   129   127   ar
    16    42    41    1
    17   133   132    1
    18   121   120    2
    19   120   122   am
    20   110   109    1
    21   132   130   ar
    22   109   104   am
    23   115   116    1
    24    34    35    1
    25    34    31    1
    26   127   126    1
    27   127   128   ar
    28   122   123    1
    29    41    40    1
    30   126   123    1
    31   130   128   ar
    32   116   117    1
    33   104   103    1
    34   104   105    2
    35   103   106    1
    36   103   102    1
    37    40    37    1
    38   108   106    1
    39   107   106    1
    40    31    30    1
    41    31    32    1
    42   123   124    1
    43    33    32    2
    44    30    24   am
    45    37    36    1
    46    37    38    1
    47   125   124    2
    48   124   134   am
    49    26    27    1
    50    26    23    1
    51    24    25    2
    52    24    23    1
    53    29    27   am
    54    27    28    2
    55    38    39    2
    56    38    47   am
    57    23    22    1
    58   134   140    1
    59   134   135    1
    60   140   139    1
    61    58    57    1
    62    47    48    1
    63    22    18   am
    64   137   136    2
    65    52    51    1
    66    56    55    2
    67   101    98    1
    68   136   135    1
    69   135   138    1
    70    57    59    1
    71    57    54    1
    72    55    54    1
    73    21    20    1
    74    48    51    1
    75    48    49    1
    76   139   138    1
    77    18    17    1
    78    18    19    2
    79    68    67    1
    80    54    53    1
    81    17    20    1
    82    17    16    1
    83    98    99    1
    84    98    97    1
    85    49    50    2
    86    78    77    1
    87    67    66    1
    88    79    77    1
    89    99   100    2
    90    11    10    2
    91    97    89   am
    92    77    76    2
    93    16    10   am
    94    10     9    1
    95    89    90    2
    96    89    88    1
    97    66    65    1
    98    76    75    1
    99    88    91    1
   100    88    87    1
   101    12     9    1
   102    12    13    1
   103    75    74    1
   104    65    64    1
   105     9     8    1
   106    91    92    1
   107     7     5    1
   108    85    84    1
   109    87    82   am
   110    14    13    1
   111     8     3   am
   112    60    61    1
   113    93    92   ar
   114    93    95   ar
   115    13    15    1
   116    92    94   ar
   117    83    82    2
   118    74    73    1
   119    64    61    1
   120    82    81    1
   121    61    62    1
   122     3     4    2
   123     3     2    1
   124     5     6    1
   125     5     2    1
   126    84    81    1
   127    84    86    1
   128    95    96   ar
   129    73    70    1
   130     2     1    1
   131    81    80    1
   132    94    96   ar
   133    62    63    2
   134    70    69    1
   135    70    71    1
   136    71    72    2
