@<TRIPOS>MOLECULE
tmp/4ks2A00.pdb
 183 172 0 0 0
SMALL
GASTEIGER

@<TRIPOS>ATOM
      1  N        -14.8090  -13.7690   -8.5510 N.3    36  ARG36      -0.1231
      2  CA       -15.2940  -15.1370   -8.6700 C.3    36  ARG36       0.1694
      3  C        -15.6430  -15.4260  -10.1260 C.2    36  ARG36       0.2591
      4  O        -15.8140  -14.5030  -10.9230 O.2    36  ARG36      -0.2718
      5  CB       -16.5180  -15.3540   -7.7790 C.3    36  ARG36       0.0321
      6  CG       -16.2030  -15.9890   -6.4350 C.3    36  ARG36       0.0489
      7  CD       -17.0500  -17.2290   -6.1980 C.3    36  ARG36       0.2205
      8  NE       -16.6350  -18.3440   -7.0430 N.pl3  36  ARG36      -0.0865
      9  CZ       -17.3370  -19.4610   -7.2040 C.cat  36  ARG36       0.5346
     10  NH1      -16.8830  -20.4250   -7.9930 N.pl3  36  ARG36       0.1354
     11  NH2      -18.4950  -19.6150   -6.5760 N.pl3  36  ARG36       0.1354
     12  N        -15.7450  -16.7050  -10.4740 N.am   37  GLU37      -0.1979
     13  CA       -16.0340  -17.1070  -11.8590 C.3    37  GLU37       0.1602
     14  C        -15.0860  -16.6680  -12.9760 C.2    37  GLU37       0.2287
     15  O        -15.5470  -16.1950  -14.0110 O.2    37  GLU37      -0.2864
     16  CB       -17.4480  -16.6080  -12.1960 C.3    37  GLU37       0.0415
     17  CG       -18.5410  -17.1200  -11.3080 C.3    37  GLU37       0.1163
     18  CD       -18.6090  -16.4000   -9.9890 C.2    37  GLU37       0.3649
     19  OE1      -18.3020  -15.1990   -9.9570 O.co2  37  GLU37      -0.2457
     20  OE2      -18.9700  -17.0300   -8.9750 O.co2  37  GLU37      -0.2457
     21  N        -15.3550  -11.8940  -12.7140 N.3    52  LEU52      -0.1245
     22  CA       -16.3460  -11.0410  -12.0980 C.3    52  LEU52       0.1561
     23  C        -15.7620  -10.4640  -10.8250 C.2    52  LEU52       0.2260
     24  O        -15.4170  -11.2020   -9.9090 O.2    52  LEU52      -0.2867
     25  CB       -17.6000  -11.8340  -11.7690 C.3    52  LEU52       0.0270
     26  CG       -18.2650  -12.5070  -12.9600 C.3    52  LEU52       0.0019
     27  CD1      -19.5410  -13.2060  -12.5250 C.3    52  LEU52       0.0001
     28  CD2      -18.5370  -11.4880  -14.0480 C.3    52  LEU52       0.0001
     29  N        -23.4230  -13.9010   -4.1640 N.3    69  ASP69      -0.1225
     30  CA       -23.3440  -14.1670   -5.5870 C.3    69  ASP69       0.1805
     31  C        -23.5850  -12.9380   -6.4260 C.2    69  ASP69       0.2597
     32  O        -22.8150  -12.6420   -7.3300 O.2    69  ASP69      -0.2718
     33  CB       -24.3490  -15.2310   -5.9700 C.3    69  ASP69       0.1424
     34  CG       -23.9230  -16.5900   -5.5390 C.2    69  ASP69       0.3668
     35  OD1      -22.8000  -16.9930   -5.8940 O.co2  69  ASP69      -0.2456
     36  OD2      -24.7070  -17.2500   -4.8370 O.co2  69  ASP69      -0.2456
     37  N        -24.6570  -12.2240   -6.1360 N.am   70  ARG70      -0.1979
     38  CA       -25.0430  -11.1140   -6.9850 C.3    70  ARG70       0.1597
     39  C        -25.0460   -9.8360   -6.1870 C.2    70  ARG70       0.2287
     40  O        -25.4250   -9.8250   -5.0250 O.2    70  ARG70      -0.2864
     41  CB       -26.4100  -11.3790   -7.6130 C.3    70  ARG70       0.0334
     42  CG       -26.4740  -12.7310   -8.3220 C.3    70  ARG70       0.0492
     43  CD       -27.8760  -13.1370   -8.7570 C.3    70  ARG70       0.2205
     44  NE       -28.7930  -13.2740   -7.6330 N.pl3  70  ARG70      -0.0865
     45  CZ       -28.8750  -14.3500   -6.8570 C.cat  70  ARG70       0.5346
     46  NH1      -29.7410  -14.3900   -5.8560 N.pl3  70  ARG70       0.1354
     47  NH2      -28.0920  -15.3860   -7.0730 N.pl3  70  ARG70       0.1354
     48  N        -20.7510   -5.7610   -8.7850 N.3    74  ARG74      -0.1245
     49  CA       -20.0150   -6.7860   -9.5240 C.3    74  ARG74       0.1563
     50  C        -19.8750   -6.4460  -10.9910 C.2    74  ARG74       0.2260
     51  O        -20.8610   -6.2090  -11.6710 O.2    74  ARG74      -0.2867
     52  CB       -20.6670   -8.1590   -9.3760 C.3    74  ARG74       0.0307
     53  CG       -20.5550   -8.7560   -7.9890 C.3    74  ARG74       0.0489
     54  CD       -20.8030  -10.2550   -8.0080 C.3    74  ARG74       0.2205
     55  NE       -19.6180  -11.0080   -8.4030 N.pl3  74  ARG74      -0.0865
     56  CZ       -19.3540  -12.2420   -7.9830 C.cat  74  ARG74       0.5346
     57  NH1      -18.2550  -12.8720   -8.3730 N.pl3  74  ARG74       0.1354
     58  NH2      -20.1970  -12.8470   -7.1630 N.pl3  74  ARG74       0.1354
     59  N        -22.8960   -9.7590  -12.8170 N.3    97  TRP97      -0.1227
     60  CA       -22.6980  -10.8110  -11.8250 C.3    97  TRP97       0.1737
     61  C        -22.8490  -12.2180  -12.4140 C.2    97  TRP97       0.2596
     62  O        -22.8460  -13.2110  -11.6950 O.2    97  TRP97      -0.2718
     63  CB       -23.5590  -10.6180  -10.5750 C.3    97  TRP97       0.0564
     64  CG       -24.9500  -10.1490  -10.8050 C.ar   97  TRP97       0.0003
     65  CD1      -25.4750   -8.9550  -10.4130 C.ar   97  TRP97       0.0946
     66  CD2      -26.0010  -10.8650  -11.4560 C.ar   97  TRP97       0.0152
     67  NE1      -26.7860   -8.8740  -10.7850 N.ar   97  TRP97      -0.2442
     68  CE2      -27.1450  -10.0310  -11.4250 C.ar   97  TRP97       0.0810
     69  CE3      -26.1110  -12.1180  -12.0610 C.ar   97  TRP97       0.0012
     70  CZ2      -28.3680  -10.4140  -11.9800 C.ar   97  TRP97       0.0191
     71  CZ3      -27.3270  -12.4960  -12.6120 C.ar   97  TRP97       0.0001
     72  CH2      -28.4390  -11.6460  -12.5640 C.ar   97  TRP97       0.0015
     73  N        -22.9580  -12.2630  -13.7370 N.am   98  SER98      -0.1952
     74  CA       -22.9600  -13.4770  -14.5300 C.3    98  SER98       0.1924
     75  C        -22.5560  -13.0370  -15.9310 C.2    98  SER98       0.2314
     76  O        -23.0080  -12.0090  -16.4060 O.2    98  SER98      -0.2863
     77  CB       -24.3510  -14.1170  -14.5430 C.3    98  SER98       0.2116
     78  OG       -24.4130  -15.2230  -15.4310 O.3    98  SER98      -0.2180
     79  N        -33.4880  -14.7850  -12.1190 N.3   141  ILE141     -0.1245
     80  CA       -32.0260  -14.8130  -12.2480 C.3   141  ILE141      0.1561
     81  C        -31.4400  -15.1610  -13.6270 C.2   141  ILE141      0.2260
     82  O        -30.6260  -16.0710  -13.7410 O.2   141  ILE141     -0.2867
     83  CB       -31.3860  -15.7390  -11.1940 C.3   141  ILE141      0.0252
     84  CG1      -31.7150  -15.2460   -9.7860 C.3   141  ILE141      0.0019
     85  CG2      -29.8840  -15.8100  -11.3980 C.3   141  ILE141      0.0019
     86  CD1      -31.4980  -16.2790   -8.7140 C.3   141  ILE141      0.0001
     87  N        -29.1570  -15.7910  -16.4010 N.3   143  ARG143     -0.1245
     88  CA       -27.7230  -16.0260  -16.2550 C.3   143  ARG143      0.1563
     89  C        -27.0970  -16.6460  -17.4970 C.2   143  ARG143      0.2260
     90  O        -27.7920  -16.9620  -18.4560 O.2   143  ARG143     -0.2867
     91  CB       -27.4480  -16.9060  -15.0330 C.3   143  ARG143      0.0307
     92  CG       -28.3560  -18.1190  -14.9220 C.3   143  ARG143      0.0489
     93  CD       -28.5130  -18.5660  -13.4780 C.3   143  ARG143      0.2205
     94  NE       -29.3340  -19.7670  -13.3650 N.pl3 143  ARG143     -0.0865
     95  CZ       -30.6600  -19.7610  -13.2880 C.cat 143  ARG143      0.5346
     96  NH1      -31.3280  -20.9000  -13.1890 N.pl3 143  ARG143      0.1354
     97  NH2      -31.3190  -18.6140  -13.3130 N.pl3 143  ARG143      0.1354
     98  N        -20.6290  -18.2500  -17.7560 N.3   146  GLU146     -0.1245
     99  CA       -19.5810  -18.0290  -16.7740 C.3   146  GLU146      0.1567
    100  C        -18.2810  -18.5780  -17.3510 C.2   146  GLU146      0.2260
    101  O        -17.3600  -18.9430  -16.6250 O.2   146  GLU146     -0.2867
    102  CB       -19.9240  -18.6840  -15.4380 C.3   146  GLU146      0.0388
    103  CG       -21.2920  -18.3020  -14.8870 C.3   146  GLU146      0.1160
    104  CD       -21.4940  -16.8020  -14.7720 C.2   146  GLU146      0.3649
    105  OE1      -20.5040  -16.0570  -14.8780 O.co2 146  GLU146     -0.2457
    106  OE2      -22.6430  -16.3660  -14.5650 O.co2 146  GLU146     -0.2457
    107  N        -33.2090  -22.5210   -9.7060 N.3   165  ALA165     -0.1245
    108  CA       -31.8870  -23.1310   -9.6710 C.3   165  ALA165      0.1562
    109  C        -31.9700  -24.5490   -9.1250 C.2   165  ALA165      0.2260
    110  O        -30.9640  -25.2480   -9.0680 O.2   165  ALA165     -0.2867
    111  CB       -30.9430  -22.2980   -8.8310 C.3   165  ALA165      0.0290
    112  N        -27.1880  -25.4090  -16.5900 N.3   195  GLU195     -0.1231
    113  CA       -26.5890  -24.1920  -16.0370 C.3   195  GLU195      0.1699
    114  C        -25.1480  -24.0450  -16.5030 C.2   195  GLU195      0.2592
    115  O        -24.4480  -25.0400  -16.6390 O.2   195  GLU195     -0.2718
    116  CB       -26.5890  -24.2190  -14.5090 C.3   195  GLU195      0.0402
    117  CG       -27.9460  -24.3660  -13.8520 C.3   195  GLU195      0.1161
    118  CD       -28.6770  -23.0600  -13.6940 C.2   195  GLU195      0.3649
    119  OE1      -29.8870  -23.0950  -13.3850 O.co2 195  GLU195     -0.2457
    120  OE2      -28.0520  -21.9980  -13.8810 O.co2 195  GLU195     -0.2457
    121  N        -24.7170  -22.8080  -16.7470 N.am  196  GLU196     -0.1979
    122  CA       -23.3010  -22.4900  -16.9140 C.3   196  GLU196      0.1602
    123  C        -22.5620  -23.4100  -17.8760 C.2   196  GLU196      0.2287
    124  O        -21.5830  -24.0540  -17.5040 O.2   196  GLU196     -0.2864
    125  CB       -22.6020  -22.5120  -15.5530 C.3   196  GLU196      0.0415
    126  CG       -23.2740  -21.6320  -14.5290 C.3   196  GLU196      0.1163
    127  CD       -22.7470  -21.8190  -13.1270 C.2   196  GLU196      0.3649
    128  OE1      -22.0550  -22.8140  -12.8620 O.co2 196  GLU196     -0.2457
    129  OE2      -23.0290  -20.9630  -12.2760 O.co2 196  GLU196     -0.2457
    130  N        -24.0390  -27.8680  -16.6680 N.3   211  ARG211     -0.1245
    131  CA       -24.2420  -28.2080  -15.2670 C.3   211  ARG211      0.1563
    132  C        -25.7220  -28.4330  -14.9730 C.2   211  ARG211      0.2260
    133  O        -26.5810  -27.6370  -15.3560 O.2   211  ARG211     -0.2867
    134  CB       -23.6780  -27.1020  -14.3700 C.3   211  ARG211      0.0307
    135  CG       -24.0910  -27.1540  -12.9080 C.3   211  ARG211      0.0489
    136  CD       -23.5720  -25.9300  -12.1590 C.3   211  ARG211      0.2205
    137  NE       -23.9690  -25.9230  -10.7570 N.pl3 211  ARG211     -0.0865
    138  CZ       -23.5760  -25.0170   -9.8640 C.cat 211  ARG211      0.5346
    139  NH1      -23.9940  -25.1050   -8.6050 N.pl3 211  ARG211      0.1354
    140  NH2      -22.7660  -24.0250  -10.2240 N.pl3 211  ARG211      0.1354
    141  N        -28.1600  -28.5310  -12.0150 N.3   213  ASN213     -0.1240
    142  CA       -28.2460  -28.1650  -10.6180 C.3   213  ASN213      0.1653
    143  C        -29.5100  -28.7050   -9.9700 C.2   213  ASN213      0.2266
    144  O        -29.8370  -28.3610   -8.8360 O.2   213  ASN213     -0.2867
    145  CB       -28.1460  -26.6590  -10.4530 C.3   213  ASN213      0.1155
    146  CG       -27.4740  -26.2670   -9.1590 C.2   213  ASN213      0.2627
    147  OD1      -26.3390  -26.6660   -8.8910 O.2   213  ASN213     -0.2716
    148  ND2      -28.1640  -25.4800   -8.3470 N.am  213  ASN213     -0.0877
    149  N        -27.7360  -30.1830   -6.3710 N.3   264  TYR264     -0.1241
    150  CA       -26.5890  -29.2760   -6.3670 C.3   264  TYR264      0.1605
    151  C        -25.6810  -29.4140   -7.6130 C.2   264  TYR264      0.2264
    152  O        -26.0760  -30.0090   -8.6280 O.2   264  TYR264     -0.2867
    153  CB       -25.8120  -29.4440   -5.0630 C.3   264  TYR264      0.0534
    154  CG       -24.8990  -28.2840   -4.6960 C.ar  264  TYR264     -0.0201
    155  CD1      -25.2660  -26.9770   -4.9440 C.ar  264  TYR264     -0.0009
    156  CD2      -23.6740  -28.5120   -4.0870 C.ar  264  TYR264     -0.0009
    157  CE1      -24.4280  -25.9110   -4.6110 C.ar  264  TYR264      0.0417
    158  CE2      -22.8300  -27.4800   -3.7470 C.ar  264  TYR264      0.0417
    159  CZ       -23.2150  -26.1690   -4.0110 C.ar  264  TYR264      0.1957
    160  OH       -22.3810  -25.1330   -3.6730 O.3   264  TYR264     -0.2866
    161  N        -15.5260  -29.1960   -2.9950 N.3   288  ARG288     -0.1245
    162  CA       -14.8770  -28.5900   -4.1450 C.3   288  ARG288      0.1563
    163  C        -13.3610  -28.5850   -3.9860 C.2   288  ARG288      0.2260
    164  O        -12.7140  -27.5330   -4.0100 O.2   288  ARG288     -0.2867
    165  CB       -15.4280  -27.1890   -4.4020 C.3   288  ARG288      0.0307
    166  CG       -16.8540  -27.1980   -4.9260 C.3   288  ARG288      0.0489
    167  CD       -17.4020  -25.8000   -5.0420 C.3   288  ARG288      0.2205
    168  NE       -18.6880  -25.7760   -5.7260 N.pl3 288  ARG288     -0.0865
    169  CZ       -19.3270  -24.6650   -6.0730 C.cat 288  ARG288      0.5346
    170  NH1      -20.4870  -24.7360   -6.6990 N.pl3 288  ARG288      0.1354
    171  NH2      -18.8050  -23.4840   -5.7930 N.pl3 288  ARG288      0.1354
    172  N        -14.7930  -24.1030   -9.9100 N.3   322  TYR322     -0.1241
    173  CA       -15.1850  -24.0430  -11.3180 C.3   322  TYR322      0.1605
    174  C        -14.0710  -24.4730  -12.2940 C.2   322  TYR322      0.2264
    175  O        -12.8900  -24.4600  -11.9750 O.2   322  TYR322     -0.2867
    176  CB       -15.6670  -22.6320  -11.6850 C.3   322  TYR322      0.0534
    177  CG       -17.1080  -22.3250  -11.3560 C.ar  322  TYR322     -0.0201
    178  CD1      -17.7420  -22.9020  -10.2710 C.ar  322  TYR322     -0.0009
    179  CD2      -17.8370  -21.4520  -12.1400 C.ar  322  TYR322     -0.0009
    180  CE1      -19.0620  -22.6090   -9.9780 C.ar  322  TYR322      0.0417
    181  CE2      -19.1520  -21.1640  -11.8560 C.ar  322  TYR322      0.0417
    182  CZ       -19.7560  -21.7440  -10.7790 C.ar  322  TYR322      0.1957
    183  OH       -21.0650  -21.4580  -10.5150 O.3   322  TYR322     -0.2866
@<TRIPOS>BOND
     1    90    89    2
     2   123   124    2
     3   123   122    1
     4    98    99    1
     5    89    88    1
     6   100    99    1
     7   100   101    2
     8   122   121    1
     9   122   125    1
    10    99   102    1
    11   121   114   am
    12   130   131    1
    13   115   114    2
    14   112   113    1
    15   114   113    1
    16    76    75    2
    17    87    88    1
    18    88    91    1
    19   113   116    1
    20    75    74    1
    21   125   126    1
    22   102   103    1
    23    78    77    1
    24   133   132    2
    25   131   132    1
    26   131   134    1
    27    91    92    1
    28    92    93    1
    29   103   104    1
    30   105   104   ar
    31   104   106   ar
    32    77    74    1
    33    74    73    1
    34   126   127    1
    35   116   117    1
    36   134   135    1
    37    28    26    1
    38    15    14    2
    39   120   118   ar
    40   117   118    1
    41    82    81    2
    42    73    61   am
    43   118   119   ar
    44    81    80    1
    45    93    94    1
    46    94    95    2
    47    97    95    1
    48    95    96    1
    49   127   128   ar
    50   127   129   ar
    51    14    13    1
    52    26    27    1
    53    26    25    1
    54   135   136    1
    55    59    60    1
    56    21    22    1
    57    71    72   ar
    58    71    69   ar
    59    72    70   ar
    60    61    60    1
    61    61    62    2
    62   174   175    2
    63   174   173    1
    64    80    79    1
    65    80    83    1
    66    16    13    1
    67    16    17    1
    68   136   137    1
    69   179   181   ar
    70   179   177   ar
    71    22    25    1
    72    22    23    1
    73    69    66   ar
    74   141   142    1
    75    70    68   ar
    76    13    12    1
    77   181   182   ar
    78    60    63    1
    79   176   177    1
    80   176   173    1
    81    51    50    2
    82    66    68   ar
    83    66    64   ar
    84    68    67   ar
    85    85    83    1
    86   177   178   ar
    87   173   172    1
    88    17    18    1
    89    83    84    1
    90    50    49    1
    91     4     3    2
    92    23    24    2
    93    64    63    1
    94    64    65   ar
    95    67    65   ar
    96   182   183    1
    97   182   180   ar
    98   137   138    2
    99   142   145    1
   100   142   143    1
   101    12     3   am
   102   145   146    1
   103   178   180   ar
   104   140   138    1
   105     3     2    1
   106    18    19   ar
   107    18    20   ar
   108   143   144    2
   109   138   139    1
   110    84    86    1
   111   107   108    1
   112   108   109    1
   113   108   111    1
   114    49    52    1
   115    49    48    1
   116    52    53    1
   117   146   147    2
   118   146   148   am
   119   109   110    2
   120    43    42    1
   121    43    44    1
   122     2     1    1
   123     2     5    1
   124   152   151    2
   125    55    54    1
   126    55    56    2
   127    57    56    1
   128    42    41    1
   129    54    53    1
   130    10     9    1
   131    56    58    1
   132     5     6    1
   133    44    45    2
   134    41    38    1
   135   151   150    1
   136    32    31    2
   137     9     8    2
   138     9    11    1
   139    47    45    1
   140     8     7    1
   141    38    39    1
   142    38    37    1
   143    45    46    1
   144   170   169    1
   145     6     7    1
   146    31    37   am
   147    31    30    1
   148   149   150    1
   149   150   153    1
   150    39    40    2
   151   169   171    1
   152   169   168    2
   153    33    30    1
   154    33    34    1
   155    35    34   ar
   156   168   167    1
   157    30    29    1
   158    34    36   ar
   159   153   154    1
   160   167   166    1
   161   155   154   ar
   162   155   157   ar
   163   166   165    1
   164   154   156   ar
   165   157   159   ar
   166   165   162    1
   167   162   163    1
   168   162   161    1
   169   156   158   ar
   170   159   158   ar
   171   159   160    1
   172   164   163    2
