@<TRIPOS>MOLECULE
tmp/4ks3A00.pdb
 222 210 0 0 0
SMALL
GASTEIGER

@<TRIPOS>ATOM
      1  N        -12.7610  -11.6130  -37.0690 N.3    35  ILE35      -0.1231
      2  CA       -13.5170  -12.1200  -38.2020 C.3    35  ILE35       0.1692
      3  C        -14.0440  -13.5270  -37.9840 C.2    35  ILE35       0.2592
      4  O        -13.8270  -14.1360  -36.9420 O.2    35  ILE35      -0.2718
      5  CB       -12.6690  -12.1500  -39.5030 C.3    35  ILE35       0.0266
      6  CG1      -11.5510  -13.1880  -39.3910 C.3    35  ILE35       0.0019
      7  CG2      -12.1090  -10.7820  -39.8410 C.3    35  ILE35       0.0020
      8  CD1      -11.0550  -13.6690  -40.7150 C.3    35  ILE35       0.0001
      9  N        -14.7650  -14.0050  -38.9900 N.am   36  ARG36      -0.1966
     10  CA       -15.0650  -15.4120  -39.1870 C.3    36  ARG36       0.1729
     11  C        -15.2810  -15.5590  -40.6900 C.2    36  ARG36       0.2616
     12  O        -15.0160  -14.6260  -41.4550 O.2    36  ARG36      -0.2715
     13  CB       -16.3230  -15.8360  -38.4280 C.3    36  ARG36       0.0348
     14  CG       -16.1320  -16.1230  -36.9390 C.3    36  ARG36       0.0492
     15  CD       -15.8590  -17.5890  -36.6290 C.3    36  ARG36       0.2205
     16  NE       -16.3820  -18.4910  -37.6550 N.pl3  36  ARG36      -0.0865
     17  CZ       -17.5010  -19.2100  -37.5590 C.cat  36  ARG36       0.5346
     18  NH1      -17.8610  -19.9850  -38.5620 N.pl3  36  ARG36       0.1354
     19  NH2      -18.2630  -19.1620  -36.4820 N.pl3  36  ARG36       0.1354
     20  N        -15.7690  -16.7210  -41.1050 N.am   37  GLU37      -0.1977
     21  CA       -16.0250  -17.0200  -42.5170 C.3    37  GLU37       0.1602
     22  C        -14.9840  -16.5030  -43.5100 C.2    37  GLU37       0.2287
     23  O        -15.3290  -15.8170  -44.4660 O.2    37  GLU37      -0.2864
     24  CB       -17.4030  -16.5100  -42.9280 C.3    37  GLU37       0.0415
     25  CG       -18.5460  -17.1530  -42.1830 C.3    37  GLU37       0.1163
     26  CD       -18.7450  -16.5700  -40.8040 C.2    37  GLU37       0.3649
     27  OE1      -18.5060  -15.3610  -40.6260 O.co2  37  GLU37      -0.2457
     28  OE2      -19.1280  -17.3270  -39.8930 O.co2  37  GLU37      -0.2457
     29  N        -15.8280   -8.2340  -37.7670 N.3    54  GLN54      -0.1245
     30  CA       -16.8320   -7.9400  -36.7700 C.3    54  GLN54       0.1566
     31  C        -16.7940   -6.4630  -36.4690 C.2    54  GLN54       0.2260
     32  O        -17.1430   -6.0340  -35.3670 O.2    54  GLN54      -0.2867
     33  CB       -16.5820   -8.7330  -35.4960 C.3    54  GLN54       0.0367
     34  CG       -17.4430   -9.9620  -35.3830 C.3    54  GLN54       0.0905
     35  CD       -18.9160   -9.6310  -35.4530 C.2    54  GLN54       0.2608
     36  OE1      -19.3370   -8.4990  -35.1960 O.2    54  GLN54      -0.2717
     37  NE2      -19.7150  -10.6210  -35.8030 N.am   54  GLN54      -0.0878
     38  N        -18.2760  -11.1320  -29.9480 N.3    66  THR66      -0.1203
     39  CA       -18.0920  -11.3320  -31.3850 C.3    66  THR66       0.1994
     40  C        -18.3690  -12.7750  -31.8310 C.2    66  THR66       0.2618
     41  O        -17.9620  -13.1980  -32.9160 O.2    66  THR66      -0.2717
     42  CB       -16.7210  -10.8400  -31.8770 C.3    66  THR66       0.1784
     43  OG1      -15.7060  -11.2580  -30.9590 O.3    66  THR66      -0.2211
     44  CG2      -16.7130   -9.3180  -31.9690 C.3    66  THR66       0.0376
     45  N        -19.0750  -13.5160  -30.9790 N.am   67  VAL67      -0.1965
     46  CA       -19.5520  -14.8500  -31.3100 C.3    67  VAL67       0.1727
     47  C        -20.9130  -14.7700  -31.9980 C.2    67  VAL67       0.2616
     48  O        -21.3100  -15.6820  -32.7270 O.2    67  VAL67      -0.2715
     49  CB       -19.6520  -15.7250  -30.0480 C.3    67  VAL67       0.0290
     50  CG1      -20.7730  -15.2400  -29.1460 C.3    67  VAL67       0.0023
     51  CG2      -19.8730  -17.1690  -30.4220 C.3    67  VAL67       0.0023
     52  N        -21.6190  -13.6630  -31.7670 N.am   68  LYS68      -0.1963
     53  CA       -22.8830  -13.3810  -32.4440 C.3    68  LYS68       0.1728
     54  C        -22.6780  -13.4940  -33.9440 C.2    68  LYS68       0.2616
     55  O        -21.5590  -13.3300  -34.4300 O.2    68  LYS68      -0.2715
     56  CB       -23.3920  -11.9810  -32.0900 C.3    68  LYS68       0.0311
     57  CG       -23.9200  -11.8550  -30.6690 C.3    68  LYS68       0.0038
     58  CD       -24.5660  -10.5000  -30.4250 C.3    68  LYS68       0.0206
     59  CE       -25.1470  -10.4200  -29.0160 C.3    68  LYS68       0.1093
     60  NZ       -25.8500   -9.1340  -28.7430 N.3    68  LYS68      -0.1314
     61  N        -23.7480  -13.7810  -34.6780 N.am   69  ASP69      -0.1957
     62  CA       -23.6080  -14.0240  -36.1070 C.3    69  ASP69       0.1840
     63  C        -23.8640  -12.7980  -36.9730 C.2    69  ASP69       0.2621
     64  O        -23.1310  -12.5410  -37.9280 O.2    69  ASP69      -0.2715
     65  CB       -24.4580  -15.2140  -36.5540 C.3    69  ASP69       0.1450
     66  CG       -23.9630  -16.5230  -35.9740 C.2    69  ASP69       0.3671
     67  OD1      -22.7300  -16.7070  -35.8850 O.co2  69  ASP69      -0.2456
     68  OD2      -24.8000  -17.3670  -35.5920 O.co2  69  ASP69      -0.2456
     69  N        -24.8910  -12.0310  -36.6390 N.am   70  ARG70      -0.1977
     70  CA       -25.3210  -10.9680  -37.5360 C.3    70  ARG70       0.1597
     71  C        -25.4400   -9.6190  -36.8280 C.2    70  ARG70       0.2287
     72  O        -26.3870   -9.3760  -36.0830 O.2    70  ARG70      -0.2864
     73  CB       -26.6300  -11.3730  -38.2360 C.3    70  ARG70       0.0334
     74  CG       -26.5430  -12.7520  -38.9410 C.3    70  ARG70       0.0492
     75  CD       -27.8960  -13.3280  -39.3640 C.3    70  ARG70       0.2205
     76  NE       -28.7400  -13.6480  -38.2170 N.pl3  70  ARG70      -0.0865
     77  CZ       -28.7420  -14.8110  -37.5670 C.cat  70  ARG70       0.5346
     78  NH1      -29.5580  -14.9890  -36.5360 N.pl3  70  ARG70       0.1354
     79  NH2      -27.9440  -15.8020  -37.9430 N.pl3  70  ARG70       0.1354
     80  N        -20.9480   -5.5500  -39.4210 N.3    74  ARG74      -0.1245
     81  CA       -20.3360   -6.6210  -40.1700 C.3    74  ARG74       0.1563
     82  C        -20.0400   -6.1790  -41.5940 C.2    74  ARG74       0.2260
     83  O        -20.9170   -5.6620  -42.2740 O.2    74  ARG74      -0.2867
     84  CB       -21.2910   -7.8040  -40.1870 C.3    74  ARG74       0.0307
     85  CG       -20.6100   -9.1080  -40.1420 C.3    74  ARG74       0.0489
     86  CD       -20.1440   -9.4080  -38.7680 C.3    74  ARG74       0.2205
     87  NE       -19.1740  -10.4800  -38.8460 N.pl3  74  ARG74      -0.0865
     88  CZ       -19.5070  -11.7390  -39.0670 C.cat  74  ARG74       0.5346
     89  NH1      -18.5740  -12.6750  -39.1340 N.pl3  74  ARG74       0.1354
     90  NH2      -20.7860  -12.0590  -39.2150 N.pl3  74  ARG74       0.1354
     91  N        -23.0050   -9.8830  -43.3320 N.3    97  TRP97      -0.1227
     92  CA       -22.8410  -10.9120  -42.3100 C.3    97  TRP97       0.1737
     93  C        -23.0340  -12.3080  -42.9140 C.2    97  TRP97       0.2596
     94  O        -23.1040  -13.3010  -42.2010 O.2    97  TRP97      -0.2718
     95  CB       -23.7500  -10.6830  -41.0940 C.3    97  TRP97       0.0564
     96  CG       -25.1480  -10.1830  -41.3940 C.ar   97  TRP97       0.0003
     97  CD1      -25.6430   -8.9470  -41.1110 C.ar   97  TRP97       0.0946
     98  CD2      -26.2240  -10.9140  -42.0050 C.ar   97  TRP97       0.0152
     99  NE1      -26.9480   -8.8580  -41.5110 N.ar   97  TRP97      -0.2442
    100  CE2      -27.3310  -10.0520  -42.0620 C.ar   97  TRP97       0.0810
    101  CE3      -26.3540  -12.2100  -42.5080 C.ar   97  TRP97       0.0012
    102  CZ2      -28.5570  -10.4400  -42.6050 C.ar   97  TRP97       0.0191
    103  CZ3      -27.5680  -12.5950  -43.0460 C.ar   97  TRP97       0.0001
    104  CH2      -28.6550  -11.7100  -43.0920 C.ar   97  TRP97       0.0015
    105  N        -23.1250  -12.3480  -44.2400 N.am   98  SER98      -0.1952
    106  CA       -23.0870  -13.5700  -45.0420 C.3    98  SER98       0.1924
    107  C        -22.6730  -13.1600  -46.4650 C.2    98  SER98       0.2314
    108  O        -23.1320  -12.1390  -46.9680 O.2    98  SER98      -0.2863
    109  CB       -24.4510  -14.2680  -45.0430 C.3    98  SER98       0.2116
    110  OG       -24.4230  -15.4810  -45.7820 O.3    98  SER98      -0.2180
    111  N        -33.6500  -14.8530  -42.5780 N.3   141  ILE141     -0.1245
    112  CA       -32.1830  -14.9160  -42.6730 C.3   141  ILE141      0.1561
    113  C        -31.5730  -15.2480  -44.0500 C.2   141  ILE141      0.2260
    114  O        -30.7410  -16.1490  -44.1570 O.2   141  ILE141     -0.2867
    115  CB       -31.5770  -15.8850  -41.6330 C.3   141  ILE141      0.0252
    116  CG1      -32.1080  -15.5660  -40.2340 C.3   141  ILE141      0.0019
    117  CG2      -30.0580  -15.8160  -41.6610 C.3   141  ILE141      0.0019
    118  CD1      -31.3650  -16.2740  -39.1230 C.3   141  ILE141      0.0001
    119  N        -29.2600  -15.8150  -46.8860 N.3   143  ARG143     -0.1245
    120  CA       -27.8550  -16.1300  -46.7030 C.3   143  ARG143      0.1563
    121  C        -27.2850  -16.9020  -47.8820 C.2   143  ARG143      0.2260
    122  O        -28.0230  -17.3580  -48.7620 O.2   143  ARG143     -0.2867
    123  CB       -27.6760  -16.9140  -45.4120 C.3   143  ARG143      0.0307
    124  CG       -28.6310  -18.0630  -45.2770 C.3   143  ARG143      0.0489
    125  CD       -28.8300  -18.4530  -43.8270 C.3   143  ARG143      0.2205
    126  NE       -29.4800  -19.7500  -43.7430 N.pl3 143  ARG143     -0.0865
    127  CZ       -30.7940  -19.9220  -43.7610 C.cat 143  ARG143      0.5346
    128  NH1      -31.3010  -21.1430  -43.6930 N.pl3 143  ARG143      0.1354
    129  NH2      -31.5980  -18.8710  -43.8430 N.pl3 143  ARG143      0.1354
    130  N        -20.5000  -18.1750  -48.2630 N.3   146  GLU146     -0.1245
    131  CA       -19.3240  -17.9490  -47.4070 C.3   146  GLU146      0.1567
    132  C        -18.0860  -18.6400  -47.9660 C.2   146  GLU146      0.2260
    133  O        -17.1830  -19.0190  -47.2250 O.2   146  GLU146     -0.2867
    134  CB       -19.5560  -18.3790  -45.9510 C.3   146  GLU146      0.0388
    135  CG       -21.0000  -18.3830  -45.4740 C.3   146  GLU146      0.1160
    136  CD       -21.5740  -17.0120  -45.2280 C.2   146  GLU146      0.3649
    137  OE1      -21.0080  -16.0050  -45.7020 O.co2 146  GLU146     -0.2457
    138  OE2      -22.6080  -16.9470  -44.5310 O.co2 146  GLU146     -0.2457
    139  N        -33.6860  -22.6620  -40.0970 N.3   165  ALA165     -0.1245
    140  CA       -32.3570  -23.2290  -39.9920 C.3   165  ALA165      0.1562
    141  C        -32.3780  -24.7490  -39.8870 C.2   165  ALA165      0.2260
    142  O        -31.4600  -25.4050  -40.3610 O.2   165  ALA165     -0.2867
    143  CB       -31.6260  -22.6230  -38.8140 C.3   165  ALA165      0.0290
    144  N        -27.1620  -25.6900  -47.6080 N.3   195  GLU195     -0.1231
    145  CA       -26.5550  -24.4590  -47.1060 C.3   195  GLU195      0.1699
    146  C        -25.0590  -24.4080  -47.4070 C.2   195  GLU195      0.2592
    147  O        -24.4230  -25.4410  -47.5830 O.2   195  GLU195     -0.2718
    148  CB       -26.7820  -24.3090  -45.5980 C.3   195  GLU195      0.0402
    149  CG       -28.1390  -23.7600  -45.2240 C.3   195  GLU195      0.1161
    150  CD       -28.2540  -23.4710  -43.7450 C.2   195  GLU195      0.3649
    151  OE1      -27.3240  -23.8390  -43.0060 O.co2 195  GLU195     -0.2457
    152  OE2      -29.2690  -22.8760  -43.3220 O.co2 195  GLU195     -0.2457
    153  N        -24.5290  -23.1890  -47.4720 N.am  196  GLU196     -0.1979
    154  CA       -23.0930  -22.9150  -47.5550 C.3   196  GLU196      0.1602
    155  C        -22.3550  -23.7760  -48.5760 C.2   196  GLU196      0.2287
    156  O        -21.4420  -24.5170  -48.2230 O.2   196  GLU196     -0.2864
    157  CB       -22.4650  -23.0400  -46.1660 C.3   196  GLU196      0.0415
    158  CG       -22.9080  -21.9330  -45.2090 C.3   196  GLU196      0.1163
    159  CD       -22.5830  -22.2280  -43.7580 C.2   196  GLU196      0.3649
    160  OE1      -22.2580  -23.3880  -43.4390 O.co2 196  GLU196     -0.2457
    161  OE2      -22.6530  -21.2970  -42.9340 O.co2 196  GLU196     -0.2457
    162  N        -24.1490  -27.8130  -47.2810 N.3   211  ARG211     -0.1245
    163  CA       -24.3590  -28.2990  -45.9200 C.3   211  ARG211      0.1563
    164  C        -25.8030  -28.5870  -45.5840 C.2   211  ARG211      0.2260
    165  O        -26.6810  -27.7950  -45.9040 O.2   211  ARG211     -0.2867
    166  CB       -23.8120  -27.2470  -44.9550 C.3   211  ARG211      0.0307
    167  CG       -24.3380  -27.3350  -43.5280 C.3   211  ARG211      0.0489
    168  CD       -23.8510  -26.1410  -42.7330 C.3   211  ARG211      0.2205
    169  NE       -24.2420  -26.1580  -41.3260 N.pl3 211  ARG211     -0.0865
    170  CZ       -23.8270  -25.2640  -40.4290 C.cat 211  ARG211      0.5346
    171  NH1      -24.2310  -25.3460  -39.1680 N.pl3 211  ARG211      0.1354
    172  NH2      -23.0060  -24.2840  -40.7930 N.pl3 211  ARG211      0.1354
    173  N        -28.2070  -28.7660  -42.6570 N.3   213  ASN213     -0.1240
    174  CA       -28.3600  -28.4310  -41.2600 C.3   213  ASN213      0.1653
    175  C        -29.6300  -29.0430  -40.6780 C.2   213  ASN213      0.2266
    176  O        -30.0000  -28.7770  -39.5360 O.2   213  ASN213     -0.2867
    177  CB       -28.3330  -26.9180  -41.0760 C.3   213  ASN213      0.1155
    178  CG       -27.6280  -26.5050  -39.8050 C.2   213  ASN213      0.2627
    179  OD1      -26.3970  -26.5430  -39.7260 O.2   213  ASN213     -0.2716
    180  ND2      -28.4010  -26.1110  -38.7970 N.am  213  ASN213     -0.0877
    181  N        -27.8470  -30.0040  -36.9350 N.3   264  TYR264     -0.1241
    182  CA       -26.6920  -29.1300  -37.0560 C.3   264  TYR264      0.1605
    183  C        -25.8810  -29.4140  -38.3260 C.2   264  TYR264      0.2264
    184  O        -26.3460  -30.0710  -39.2570 O.2   264  TYR264     -0.2867
    185  CB       -25.8190  -29.2850  -35.8070 C.3   264  TYR264      0.0534
    186  CG       -24.6630  -28.3190  -35.6700 C.ar  264  TYR264     -0.0201
    187  CD1      -24.5370  -27.2110  -36.5010 C.ar  264  TYR264     -0.0009
    188  CD2      -23.6920  -28.5240  -34.7000 C.ar  264  TYR264     -0.0009
    189  CE1      -23.4720  -26.3300  -36.3640 C.ar  264  TYR264      0.0417
    190  CE2      -22.6270  -27.6520  -34.5530 C.ar  264  TYR264      0.0417
    191  CZ       -22.5200  -26.5570  -35.3860 C.ar  264  TYR264      0.1957
    192  OH       -21.4570  -25.6970  -35.2300 O.3   264  TYR264     -0.2866
    193  N        -15.5260  -29.3510  -33.5260 N.3   288  ARG288     -0.1245
    194  CA       -14.8680  -28.7090  -34.6390 C.3   288  ARG288      0.1563
    195  C        -13.3690  -28.6680  -34.4070 C.2   288  ARG288      0.2260
    196  O        -12.7800  -27.5870  -34.3120 O.2   288  ARG288     -0.2867
    197  CB       -15.4210  -27.3040  -34.8250 C.3   288  ARG288      0.0307
    198  CG       -16.8610  -27.3060  -35.2700 C.3   288  ARG288      0.0489
    199  CD       -17.4070  -25.8990  -35.4170 C.3   288  ARG288      0.2205
    200  NE       -18.5800  -25.9050  -36.2800 N.pl3 288  ARG288     -0.0865
    201  CZ       -19.2340  -24.8210  -36.6810 C.cat 288  ARG288      0.5346
    202  NH1      -20.2840  -24.9520  -37.4680 N.pl3 288  ARG288      0.1354
    203  NH2      -18.8470  -23.6130  -36.3000 N.pl3 288  ARG288      0.1354
    204  N        -14.9530  -24.2430  -40.5330 N.3   322  TYR322     -0.1241
    205  CA       -15.2700  -24.1820  -41.9470 C.3   322  TYR322      0.1605
    206  C        -14.1240  -24.4550  -42.9110 C.2   322  TYR322      0.2264
    207  O        -12.9600  -24.2210  -42.6070 O.2   322  TYR322     -0.2867
    208  CB       -15.7230  -22.7750  -42.3340 C.3   322  TYR322      0.0534
    209  CG       -17.1490  -22.4610  -41.9710 C.ar  322  TYR322     -0.0201
    210  CD1      -17.8580  -23.2730  -41.0930 C.ar  322  TYR322     -0.0009
    211  CD2      -17.7980  -21.3610  -42.5250 C.ar  322  TYR322     -0.0009
    212  CE1      -19.1710  -22.9910  -40.7680 C.ar  322  TYR322      0.0417
    213  CE2      -19.1100  -21.0680  -42.2060 C.ar  322  TYR322      0.0417
    214  CZ       -19.7920  -21.8870  -41.3300 C.ar  322  TYR322      0.1957
    215  OH       -21.1030  -21.6060  -41.0260 O.3   322  TYR322     -0.2866
    216  N        -14.5420  -14.2660  -30.4230 N.3   358  THR358     -0.1218
    217  CA       -14.4560  -15.3960  -31.3180 C.3   358  THR358      0.1862
    218  C        -13.8810  -14.9230  -32.6400 C.2   358  THR358      0.2287
    219  O        -14.2850  -13.8870  -33.1710 O.2   358  THR358     -0.2866
    220  CB       -15.8370  -15.9880  -31.5780 C.3   358  THR358      0.1770
    221  OG1      -16.3550  -16.5500  -30.3660 O.3   358  THR358     -0.2211
    222  CG2      -15.7580  -17.0610  -32.6480 C.3   358  THR358      0.0375
@<TRIPOS>BOND
     1   122   121    2
     2   155   156    2
     3   155   154    1
     4   130   131    1
     5   132   131    1
     6   132   133    2
     7   121   120    1
     8   144   145    1
     9   147   146    2
    10   154   153    1
    11   154   157    1
    12   153   146   am
    13   146   145    1
    14   131   134    1
    15   162   163    1
    16   145   148    1
    17   108   107    2
    18   119   120    1
    19   120   123    1
    20   107   106    1
    21   157   158    1
    22   134   135    1
    23   163   164    1
    24   163   166    1
    25   165   164    2
    26   110   109    1
    27   137   136   ar
    28   148   149    1
    29   135   136    1
    30   123   124    1
    31   124   125    1
    32   136   138   ar
    33   149   150    1
    34   158   159    1
    35   109   106    1
    36   106   105    1
    37   166   167    1
    38    23    22    2
    39   105    93   am
    40   114   113    2
    41   113   112    1
    42   129   127    1
    43   125   126    1
    44   127   126    2
    45   127   128    1
    46   159   160   ar
    47   159   161   ar
    48   150   152   ar
    49   150   151   ar
    50   167   168    1
    51    22    21    1
    52    91    92    1
    53   104   103   ar
    54   104   102   ar
    55   103   101   ar
    56    24    21    1
    57    24    25    1
    58    93    92    1
    59    93    94    2
    60   206   207    2
    61   206   205    1
    62   168   169    1
    63   112   111    1
    64   112   115    1
    65   173   174    1
    66   102   100   ar
    67   211   213   ar
    68   211   209   ar
    69    21    20    1
    70   101    98   ar
    71   208   209    1
    72   208   205    1
    73    92    95    1
    74    83    82    2
    75   213   214   ar
    76    25    26    1
    77   100    98   ar
    78   100    99   ar
    79    98    96   ar
    80   209   210   ar
    81   205   204    1
    82   117   115    1
    83   115   116    1
    84    82    81    1
    85    99    97   ar
    86    12    11    2
    87    96    97   ar
    88    96    95    1
    89   214   215    1
    90   214   212   ar
    91   169   170    2
    92   174   177    1
    93   174   175    1
    94    20    11   am
    95   210   212   ar
    96   177   178    1
    97    26    27   ar
    98    26    28   ar
    99   172   170    1
   100     8     6    1
   101    11    10    1
   102   175   176    2
   103   170   171    1
   104   142   141    2
   105   116   118    1
   106    84    81    1
   107    84    85    1
   108    81    80    1
   109    85    86    1
   110   139   140    1
   111   140   141    1
   112   140   143    1
   113     7     5    1
   114   178   179    2
   115   178   180   am
   116     5     6    1
   117     5     2    1
   118    75    74    1
   119    75    76    1
   120   184   183    2
   121    90    88    1
   122    10     9    1
   123    10    13    1
   124    89    88    1
   125    88    87    2
   126     9     3   am
   127    74    73    1
   128    87    86    1
   129    18    17    1
   130    13    14    1
   131   183   182    1
   132    73    70    1
   133    76    77    2
   134     2     3    1
   135     2     1    1
   136     3     4    2
   137    79    77    1
   138    64    63    2
   139    29    30    1
   140    16    17    2
   141    16    15    1
   142    77    78    1
   143    17    19    1
   144    70    71    1
   145    70    69    1
   146   202   201    1
   147   182   181    1
   148   182   185    1
   149    63    69   am
   150    63    62    1
   151    14    15    1
   152    71    72    2
   153    30    31    1
   154    30    33    1
   155   201   203    1
   156   201   200    2
   157    65    62    1
   158    65    66    1
   159   187   189   ar
   160   187   186   ar
   161    31    32    2
   162   189   191   ar
   163   200   199    1
   164    62    61    1
   165    66    67   ar
   166    66    68   ar
   167   185   186    1
   168    37    35   am
   169   186   188   ar
   170    33    34    1
   171    35    34    1
   172    35    36    2
   173   199   198    1
   174   191   192    1
   175   191   190   ar
   176   198   197    1
   177   197   194    1
   178   188   190   ar
   179    61    54   am
   180   194   195    1
   181   194   193    1
   182    55    54    2
   183   195   196    2
   184    54    53    1
   185   219   218    2
   186    41    40    2
   187    48    47    2
   188   222   220    1
   189   218   217    1
   190    53    56    1
   191    53    52    1
   192    56    57    1
   193    47    52   am
   194    47    46    1
   195    44    42    1
   196    42    39    1
   197    42    43    1
   198    40    39    1
   199    40    45   am
   200   220   217    1
   201   220   221    1
   202    39    38    1
   203   217   216    1
   204    46    45    1
   205    46    49    1
   206    57    58    1
   207    58    59    1
   208    51    49    1
   209    49    50    1
   210    59    60    1
