@<TRIPOS>MOLECULE
tmp/4ks5A00.pdb
 183 172 0 0 0
SMALL
GASTEIGER

@<TRIPOS>ATOM
      1  N        -13.7660  -14.7620   12.6080 N.3    36  ARG36      -0.1231
      2  CA       -15.0260  -15.4660   12.6070 C.3    36  ARG36       0.1694
      3  C        -15.3280  -15.7650   14.0600 C.2    36  ARG36       0.2591
      4  O        -14.4240  -16.0580   14.8430 O.2    36  ARG36      -0.2718
      5  CB       -14.9210  -16.7630   11.8060 C.3    36  ARG36       0.0321
      6  CG       -16.2470  -17.4800   11.6090 C.3    36  ARG36       0.0489
      7  CD       -17.2510  -16.5950   10.8890 C.3    36  ARG36       0.2205
      8  NE       -18.6210  -17.0680   11.0640 N.pl3  36  ARG36      -0.0865
      9  CZ       -19.1180  -18.1520   10.4770 C.cat  36  ARG36       0.5346
     10  NH1      -20.3770  -18.5080   10.6930 N.pl3  36  ARG36       0.1354
     11  NH2      -18.3560  -18.8810    9.6730 N.pl3  36  ARG36       0.1354
     12  N        -16.6020  -15.6560   14.4220 N.am   37  GLU37      -0.1979
     13  CA       -17.0670  -15.9590   15.7720 C.3    37  GLU37       0.1602
     14  C        -16.4850  -15.0670   16.8680 C.2    37  GLU37       0.2287
     15  O        -15.7780  -15.5470   17.7520 O.2    37  GLU37      -0.2864
     16  CB       -16.8040  -17.4270   16.1060 C.3    37  GLU37       0.0415
     17  CG       -17.5720  -18.4000   15.2370 C.3    37  GLU37       0.1163
     18  CD       -17.0340  -19.8080   15.3340 C.2    37  GLU37       0.3649
     19  OE1      -15.8930  -19.9750   15.8100 O.co2  37  GLU37      -0.2457
     20  OE2      -17.7510  -20.7470   14.9360 O.co2  37  GLU37      -0.2457
     21  N        -11.5820  -15.5490   16.3840 N.3    52  LEU52      -0.1245
     22  CA       -10.6590  -16.5480   15.8880 C.3    52  LEU52       0.1561
     23  C        -10.0450  -16.0890   14.5830 C.2    52  LEU52       0.2260
     24  O        -10.7080  -15.4520   13.7800 O.2    52  LEU52      -0.2867
     25  CB       -11.3620  -17.8840   15.6770 C.3    52  LEU52       0.0270
     26  CG       -12.0770  -18.5950   16.8180 C.3    52  LEU52       0.0019
     27  CD1      -12.7050  -19.8070   16.2520 C.3    52  LEU52       0.0001
     28  CD2      -11.1560  -18.9850   17.9270 C.3    52  LEU52       0.0001
     29  N        -11.4430  -23.8570    7.3090 N.3    69  ASP69      -0.1225
     30  CA       -11.9440  -23.3610    8.5930 C.3    69  ASP69       0.1805
     31  C        -11.3580  -23.9820    9.8660 C.2    69  ASP69       0.2597
     32  O        -10.9670  -23.2580   10.7790 O.2    69  ASP69      -0.2718
     33  CB       -13.4630  -23.5340    8.6610 C.3    69  ASP69       0.1424
     34  CG       -14.1970  -22.6180    7.7040 C.2    69  ASP69       0.3668
     35  OD1      -13.5310  -21.9830    6.8610 O.co2  69  ASP69      -0.2456
     36  OD2      -15.4390  -22.5340    7.7940 O.co2  69  ASP69      -0.2456
     37  N        -11.3490  -25.3120    9.9190 N.am   70  ARG70      -0.1979
     38  CA       -10.7170  -26.0490   11.0040 C.3    70  ARG70       0.1597
     39  C         -9.2730  -26.2550   10.5910 C.2    70  ARG70       0.2287
     40  O         -8.9200  -27.2700    9.9900 O.2    70  ARG70      -0.2864
     41  CB       -11.4080  -27.3950   11.2190 C.3    70  ARG70       0.0334
     42  CG       -12.4320  -27.3940   12.3420 C.3    70  ARG70       0.0492
     43  CD       -12.7830  -28.8100   12.7710 C.3    70  ARG70       0.2205
     44  NE       -13.1440  -29.6520   11.6350 N.pl3  70  ARG70      -0.0865
     45  CZ       -14.2170  -29.4610   10.8750 C.cat  70  ARG70       0.5346
     46  NH1      -14.4680  -30.2780    9.8610 N.pl3  70  ARG70       0.1354
     47  NH2      -15.0410  -28.4530   11.1280 N.pl3  70  ARG70       0.1354
     48  N         -5.3020  -21.3210   12.9650 N.3    74  ARG74      -0.1245
     49  CA        -6.4000  -20.7380   13.6880 C.3    74  ARG74       0.1563
     50  C         -6.0340  -20.4380   15.1200 C.2    74  ARG74       0.2260
     51  O         -5.6440  -21.3180   15.8660 O.2    74  ARG74      -0.2867
     52  CB        -7.6140  -21.6590   13.6350 C.3    74  ARG74       0.0307
     53  CG        -8.9370  -20.9320   13.5710 C.3    74  ARG74       0.0489
     54  CD        -9.5750  -21.1650   12.2420 C.3    74  ARG74       0.2205
     55  NE       -10.1090  -19.9560   11.6350 N.pl3  74  ARG74      -0.0865
     56  CZ       -10.3890  -19.8520   10.3440 C.cat  74  ARG74       0.5346
     57  NH1      -10.8680  -18.7300    9.8460 N.pl3  74  ARG74       0.1354
     58  NH2      -10.1730  -20.8790    9.5470 N.pl3  74  ARG74       0.1354
     59  N         -9.5840  -23.2370   16.9300 N.3    97  TRP97      -0.1227
     60  CA       -10.6300  -23.1660   15.9270 C.3    97  TRP97       0.1737
     61  C        -12.0000  -23.2440   16.5770 C.2    97  TRP97       0.2596
     62  O        -13.0120  -23.3170   15.9080 O.2    97  TRP97      -0.2718
     63  CB       -10.4570  -24.1880   14.7910 C.3    97  TRP97       0.0564
     64  CG        -9.9330  -25.5560   15.1490 C.ar   97  TRP97       0.0003
     65  CD1       -8.6770  -26.0190   14.9530 C.ar   97  TRP97       0.0946
     66  CD2      -10.6750  -26.6430   15.6960 C.ar   97  TRP97       0.0152
     67  NE1       -8.5760  -27.3090   15.3680 N.ar   97  TRP97      -0.2442
     68  CE2       -9.7920  -27.7180   15.8340 C.ar   97  TRP97       0.0810
     69  CE3      -11.9960  -26.8030   16.1010 C.ar   97  TRP97       0.0012
     70  CZ2      -10.1820  -28.9310   16.3530 C.ar   97  TRP97       0.0191
     71  CZ3      -12.3760  -27.9950   16.6190 C.ar   97  TRP97       0.0001
     72  CH2      -11.4770  -29.0520   16.7400 C.ar   97  TRP97       0.0015
     73  N        -12.0050  -23.2070   17.8980 N.am   98  SER98      -0.1952
     74  CA       -13.2210  -23.1460   18.6740 C.3    98  SER98       0.1924
     75  C        -12.8350  -22.7000   20.0650 C.2    98  SER98       0.2314
     76  O        -11.8340  -23.1450   20.5900 O.2    98  SER98      -0.2863
     77  CB       -13.9080  -24.5060   18.7240 C.3    98  SER98       0.2116
     78  OG       -15.2000  -24.4130   19.2880 O.3    98  SER98      -0.2180
     79  N        -14.9050  -34.0210   16.2660 N.3   141  ILE141     -0.1245
     80  CA       -14.8780  -32.5460   16.3740 C.3   141  ILE141      0.1561
     81  C        -15.0880  -31.8750   17.7470 C.2   141  ILE141      0.2260
     82  O        -16.0770  -31.1770   17.9490 O.2   141  ILE141     -0.2867
     83  CB       -15.8460  -31.9000   15.3600 C.3   141  ILE141      0.0252
     84  CG1      -15.6890  -32.5570   13.9880 C.3   141  ILE141      0.0019
     85  CG2      -15.6010  -30.4040   15.2700 C.3   141  ILE141      0.0019
     86  CD1      -16.0300  -31.6500   12.8350 C.3   141  ILE141      0.0001
     87  N        -15.4680  -29.4560   20.6030 N.3   143  ARG143     -0.1245
     88  CA       -15.8120  -28.0490   20.4800 C.3   143  ARG143      0.1563
     89  C        -16.5450  -27.4900   21.6890 C.2   143  ARG143      0.2260
     90  O        -16.9850  -28.2300   22.5540 O.2   143  ARG143     -0.2867
     91  CB       -16.6330  -27.8120   19.2140 C.3   143  ARG143      0.0307
     92  CG       -17.9190  -28.5930   19.1440 C.3   143  ARG143      0.0489
     93  CD       -18.2970  -28.8810   17.7170 C.3   143  ARG143      0.2205
     94  NE       -19.5010  -29.6920   17.6150 N.pl3 143  ARG143     -0.0865
     95  CZ       -19.5330  -31.0080   17.7440 C.cat 143  ARG143      0.5346
     96  NH1      -20.6730  -31.6540   17.6290 N.pl3 143  ARG143      0.1354
     97  NH2      -18.4290  -31.6770   17.9980 N.pl3 143  ARG143      0.1354
     98  N        -18.0880  -20.6850   21.8310 N.3   146  GLU146     -0.1245
     99  CA       -17.8830  -19.5860   20.8960 C.3   146  GLU146      0.1567
    100  C        -18.4800  -18.3080   21.4820 C.2   146  GLU146      0.2260
    101  O        -18.7370  -17.3400   20.7660 O.2   146  GLU146     -0.2867
    102  CB       -18.5250  -19.9000   19.5450 C.3   146  GLU146      0.0388
    103  CG       -18.2140  -21.2920   19.0190 C.3   146  GLU146      0.1160
    104  CD       -16.7380  -21.4930   18.7390 C.2   146  GLU146      0.3649
    105  OE1      -15.9390  -20.5950   19.0790 O.co2 146  GLU146     -0.2457
    106  OE2      -16.3760  -22.5490   18.1780 O.co2 146  GLU146     -0.2457
    107  N        -22.6580  -33.3840   14.2110 N.3   165  ALA165     -0.1245
    108  CA       -23.3600  -32.1110   14.1620 C.3   165  ALA165      0.1562
    109  C        -24.8190  -32.2880   13.7820 C.2   165  ALA165      0.2260
    110  O        -25.6830  -31.6000   14.2900 O.2   165  ALA165     -0.2867
    111  CB       -22.6770  -31.1810   13.1980 C.3   165  ALA165      0.0290
    112  N        -25.5700  -27.3580   20.8840 N.3   195  GLU195     -0.1231
    113  CA       -24.3880  -26.7440   20.3050 C.3   195  GLU195      0.1699
    114  C        -24.2750  -25.3130   20.7530 C.2   195  GLU195      0.2592
    115  O        -25.2630  -24.7120   21.1480 O.2   195  GLU195     -0.2718
    116  CB       -24.4550  -26.7670   18.7840 C.3   195  GLU195      0.0402
    117  CG       -24.2360  -28.1160   18.1680 C.3   195  GLU195      0.1161
    118  CD       -22.7800  -28.5180   18.0930 C.2   195  GLU195      0.3649
    119  OE1      -22.4940  -29.5390   17.4550 O.co2 195  GLU195     -0.2457
    120  OE2      -21.9250  -27.8150   18.6570 O.co2 195  GLU195     -0.2457
    121  N        -23.0540  -24.7790   20.6480 N.am  196  GLU196     -0.1979
    122  CA       -22.7160  -23.3530   20.8000 C.3   196  GLU196      0.1602
    123  C        -23.5300  -22.5590   21.8190 C.2   196  GLU196      0.2287
    124  O        -24.2690  -21.6440   21.4580 O.2   196  GLU196     -0.2864
    125  CB       -22.7730  -22.6520   19.4390 C.3   196  GLU196      0.0415
    126  CG       -22.0710  -23.4050   18.3220 C.3   196  GLU196      0.1163
    127  CD       -22.3970  -22.8490   16.9490 C.2   196  GLU196      0.3649
    128  OE1      -23.5800  -22.5360   16.7000 O.co2 196  GLU196     -0.2457
    129  OE2      -21.4710  -22.7260   16.1210 O.co2 196  GLU196     -0.2457
    130  N        -27.9290  -24.2550   20.6330 N.3   211  ARG211     -0.1245
    131  CA       -28.3950  -24.4510   19.2660 C.3   211  ARG211      0.1563
    132  C        -28.5910  -25.9280   18.9350 C.2   211  ARG211      0.2260
    133  O        -27.7170  -26.7580   19.1870 O.2   211  ARG211     -0.2867
    134  CB       -27.4210  -23.8150   18.2720 C.3   211  ARG211      0.0307
    135  CG       -27.3730  -24.5090   16.9210 C.3   211  ARG211      0.0489
    136  CD       -26.0660  -24.2220   16.1990 C.3   211  ARG211      0.2205
    137  NE       -26.1590  -24.4990   14.7690 N.pl3 211  ARG211     -0.0865
    138  CZ       -25.3160  -24.0220   13.8590 C.cat 211  ARG211      0.5346
    139  NH1      -25.4780  -24.3260   12.5780 N.pl3 211  ARG211      0.1354
    140  NH2      -24.3110  -23.2410   14.2290 N.pl3 211  ARG211      0.1354
    141  N        -28.7760  -28.4200   16.0870 N.3   213  ASN213     -0.1240
    142  CA       -28.4030  -28.5760   14.6930 C.3   213  ASN213      0.1653
    143  C        -28.9190  -29.8950   14.1360 C.2   213  ASN213      0.2266
    144  O        -28.6260  -30.2710   13.0070 O.2   213  ASN213     -0.2867
    145  CB       -26.8860  -28.4520   14.5280 C.3   213  ASN213      0.1155
    146  CG       -26.4780  -28.1570   13.1160 C.2   213  ASN213      0.2627
    147  OD1      -26.2190  -27.0210   12.7620 O.2   213  ASN213     -0.2716
    148  ND2      -26.4290  -29.1810   12.2950 N.am  213  ASN213     -0.0877
    149  N        -30.2300  -27.9510   10.8230 N.3   264  TYR264     -0.1241
    150  CA       -29.3610  -26.7910   10.9170 C.3   264  TYR264      0.1605
    151  C        -29.6420  -25.9730   12.1650 C.2   264  TYR264      0.2264
    152  O        -30.3490  -26.3910   13.0690 O.2   264  TYR264     -0.2867
    153  CB       -29.4720  -25.9360    9.6520 C.3   264  TYR264      0.0534
    154  CG       -28.2330  -25.1620    9.2530 C.ar  264  TYR264     -0.0201
    155  CD1      -27.1140  -25.1140   10.0670 C.ar  264  TYR264     -0.0009
    156  CD2      -28.1890  -24.4770    8.0550 C.ar  264  TYR264     -0.0009
    157  CE1      -25.9940  -24.4050    9.7050 C.ar  264  TYR264      0.0417
    158  CE2      -27.0740  -23.7660    7.6830 C.ar  264  TYR264      0.0417
    159  CZ       -25.9790  -23.7330    8.5120 C.ar  264  TYR264      0.1957
    160  OH       -24.8670  -23.0290    8.1400 O.3   264  TYR264     -0.2866
    161  N        -29.6370  -15.6350    7.4530 N.3   288  ARG288     -0.1245
    162  CA       -29.1080  -15.0630    8.6780 C.3   288  ARG288      0.1563
    163  C        -29.2370  -13.5510    8.6760 C.2   288  ARG288      0.2260
    164  O        -28.7230  -12.8680    9.5440 O.2   288  ARG288     -0.2867
    165  CB       -27.6620  -15.5040    8.8840 C.3   288  ARG288      0.0307
    166  CG       -27.5240  -16.9630    9.2300 C.3   288  ARG288      0.0489
    167  CD       -26.1050  -17.3010    9.5290 C.3   288  ARG288      0.2205
    168  NE       -25.9790  -18.4560   10.4010 N.pl3 288  ARG288     -0.0865
    169  CZ       -25.1920  -19.4890   10.1550 C.cat 288  ARG288      0.5346
    170  NH1      -25.1360  -20.4920   11.0050 N.pl3 288  ARG288      0.1354
    171  NH2      -24.4630  -19.5120    9.0590 N.pl3 288  ARG288      0.1354
    172  N        -24.1370  -15.0460   14.0860 N.3   322  TYR322     -0.1241
    173  CA       -24.1110  -15.5360   15.4590 C.3   322  TYR322      0.1605
    174  C        -24.4550  -14.4760   16.4820 C.2   322  TYR322      0.2264
    175  O        -24.4640  -13.2970   16.1900 O.2   322  TYR322     -0.2867
    176  CB       -22.7240  -16.0650   15.8390 C.3   322  TYR322      0.0534
    177  CG       -22.3990  -17.4870   15.4410 C.ar  322  TYR322     -0.0201
    178  CD1      -23.0810  -18.1290   14.4280 C.ar  322  TYR322     -0.0009
    179  CD2      -21.4080  -18.1850   16.0970 C.ar  322  TYR322     -0.0009
    180  CE1      -22.7790  -19.4100   14.0830 C.ar  322  TYR322      0.0417
    181  CE2      -21.1100  -19.4600   15.7640 C.ar  322  TYR322      0.0417
    182  CZ       -21.7930  -20.0690   14.7560 C.ar  322  TYR322      0.1957
    183  OH       -21.4830  -21.3600   14.4340 O.3   322  TYR322     -0.2866
@<TRIPOS>BOND
     1    35    34   ar
     2    29    30    1
     3   161   162    1
     4   158   156   ar
     5   158   159   ar
     6    34    36   ar
     7    34    33    1
     8   156   154   ar
     9   160   159    1
    10   159   157   ar
    11    30    33    1
    12    30    31    1
    13   163   162    1
    14   163   164    2
    15   162   165    1
    16   165   166    1
    17   171   169    1
    18   166   167    1
    19   154   153    1
    20   154   155   ar
    21   167   168    1
    22    58    56    1
    23   153   150    1
    24    11     9    1
    25   157   155   ar
    26    57    56    1
    27    46    45    1
    28    31    37   am
    29    31    32    2
    30    37    38    1
    31    40    39    2
    32   169   168    2
    33   169   170    1
    34    56    55    2
    35     9    10    1
    36     9     8    2
    37    39    38    1
    38   149   150    1
    39    45    47    1
    40    45    44    2
    41     7     8    1
    42     7     6    1
    43   150   151    1
    44    38    41    1
    45    41    42    1
    46     6     5    1
    47    55    54    1
    48    44    43    1
    49     5     2    1
    50   151   152    2
    51    54    53    1
    52   148   146   am
    53    42    43    1
    54   139   138    1
    55     2     1    1
    56     2     3    1
    57   147   146    2
    58    86    84    1
    59    48    49    1
    60   144   143    2
    61   146   145    1
    62   111   108    1
    63    53    52    1
    64    52    49    1
    65    49    50    1
    66    24    23    2
    67   109   108    1
    68   109   110    2
    69   138   140    1
    70   138   137    2
    71    84    83    1
    72     3    12   am
    73     3     4    2
    74   180   178   ar
    75   180   182   ar
    76   172   173    1
    77   143   142    1
    78   108   107    1
    79    12    13    1
    80   178   177   ar
    81   183   182    1
    82   145   142    1
    83    23    22    1
    84   142   141    1
    85   182   181   ar
    86   137   136    1
    87    63    64    1
    88    63    60    1
    89    20    18   ar
    90    65    64   ar
    91    65    67   ar
    92    50    51    2
    93    64    66   ar
    94    17    18    1
    95    17    16    1
    96    85    83    1
    97    18    19   ar
    98    83    80    1
    99    67    68   ar
   100   177   176    1
   101   177   179   ar
   102   173   176    1
   103   173   174    1
   104    25    22    1
   105    25    26    1
   106    66    68   ar
   107    66    69   ar
   108   181   179   ar
   109    13    16    1
   110    13    14    1
   111    68    70   ar
   112    22    21    1
   113    62    61    2
   114    60    61    1
   115    60    59    1
   116    69    71   ar
   117   129   127   ar
   118   175   174    2
   119   136   135    1
   120    27    26    1
   121    79    80    1
   122    70    72   ar
   123    80    81    1
   124    61    73   am
   125    71    72   ar
   126   128   127   ar
   127    26    28    1
   128    14    15    2
   129   135   134    1
   130   127   126    1
   131   119   118   ar
   132    94    93    1
   133    94    95    2
   134    96    95    1
   135    93    92    1
   136    95    97    1
   137    81    82    2
   138    73    74    1
   139   118   117    1
   140   118   120   ar
   141   117   116    1
   142   106   104   ar
   143   134   131    1
   144   126   125    1
   145    74    77    1
   146    74    75    1
   147    77    78    1
   148   104   103    1
   149   104   105   ar
   150   116   113    1
   151   132   133    2
   152   132   131    1
   153   103   102    1
   154    92    91    1
   155    91    88    1
   156   131   130    1
   157   125   122    1
   158   102    99    1
   159    75    76    2
   160   113   114    1
   161   113   112    1
   162    88    87    1
   163    88    89    1
   164   121   114   am
   165   121   122    1
   166   114   115    2
   167   101   100    2
   168   122   123    1
   169    99   100    1
   170    99    98    1
   171   124   123    2
   172    89    90    2
