@<TRIPOS>MOLECULE
tmp/4ks6A00.pdb
 247 241 0 0 0
SMALL
GASTEIGER

@<TRIPOS>ATOM
      1  N         -9.1400    4.8750   33.8290 N.3    73  VAL73      -0.1245
      2  CA        -7.9090    4.4190   33.1140 C.3    73  VAL73       0.1561
      3  C         -7.5530    3.0150   33.6310 C.2    73  VAL73       0.2260
      4  O         -6.7540    2.8510   34.5390 O.2    73  VAL73      -0.2867
      5  CB        -6.7340    5.3880   33.3400 C.3    73  VAL73       0.0252
      6  CG1       -5.5120    4.9530   32.5530 C.3    73  VAL73       0.0019
      7  CG2       -7.1490    6.8330   32.9140 C.3    73  VAL73       0.0019
      8  N         -2.4520   -0.8580   33.6220 N.3   165  GLN165     -0.1231
      9  CA        -2.0720   -0.4140   34.9580 C.3   165  GLN165      0.1698
     10  C         -1.0100    0.7250   34.8630 C.2   165  GLN165      0.2592
     11  O          0.0340    0.5790   34.1930 O.2   165  GLN165     -0.2718
     12  CB        -1.5800   -1.6320   35.7410 C.3   165  GLN165      0.0381
     13  CG        -0.4430   -1.3740   36.6590 C.3   165  GLN165      0.0905
     14  CD         0.0180   -2.6130   37.3980 C.2   165  GLN165      0.2608
     15  OE1        0.3430   -3.6650   36.7830 O.2   165  GLN165     -0.2717
     16  NE2        0.0950   -2.4920   38.7340 N.am  165  GLN165     -0.0878
     17  N         -1.3000    1.8670   35.4850 N.am  166  PHE166     -0.1962
     18  CA        -0.4830    3.1010   35.2840 C.3   166  PHE166      0.1771
     19  C          0.4200    3.4000   36.4940 C.2   166  PHE166      0.2619
     20  O          1.2170    4.3150   36.4650 O.2   166  PHE166     -0.2715
     21  CB        -1.3590    4.3090   34.9550 C.3   166  PHE166      0.0574
     22  CG        -2.3540    4.6600   36.0320 C.ar  166  PHE166     -0.0200
     23  CD1       -1.9680    5.3800   37.1600 C.ar  166  PHE166     -0.0042
     24  CD2       -3.6960    4.2550   35.9120 C.ar  166  PHE166     -0.0042
     25  CE1       -2.9220    5.6860   38.1960 C.ar  166  PHE166     -0.0003
     26  CE2       -4.6350    4.5570   36.9110 C.ar  166  PHE166     -0.0003
     27  CZ        -4.2410    5.2800   38.0550 C.ar  166  PHE166     -0.0000
     28  N          0.3150    2.5800   37.5310 N.am  167  GLU167     -0.1963
     29  CA         1.1850    2.6850   38.6940 C.3   167  GLU167      0.1733
     30  C          1.0620    1.3670   39.4570 C.2   167  GLU167      0.2616
     31  O          0.0530    0.6710   39.3140 O.2   167  GLU167     -0.2715
     32  CB         0.7260    3.8300   39.5870 C.3   167  GLU167      0.0429
     33  CG        -0.6270    3.5460   40.2800 C.3   167  GLU167      0.1163
     34  CD        -1.2310    4.7740   40.9460 C.2   167  GLU167      0.3649
     35  OE1       -0.6530    5.8940   40.8090 O.co2 167  GLU167     -0.2457
     36  OE2       -2.3020    4.6220   41.5890 O.co2 167  GLU167     -0.2457
     37  N          2.0740    1.0410   40.2670 N.am  168  CYS168     -0.1968
     38  CA         2.0180   -0.1290   41.1440 C.3   168  CYS168      0.1712
     39  C          0.8810    0.0150   42.1550 C.2   168  CYS168      0.2296
     40  O          0.6130    1.1140   42.6490 O.2   168  CYS168     -0.2864
     41  CB         3.3690   -0.3500   41.8510 C.3   168  CYS168      0.0983
     42  SG         4.5440   -1.2920   40.7500 S.3   168  CYS168     -0.0798
     43  N          3.2780   -2.7280   45.7380 N.3   171  PHE171     -0.1241
     44  CA         4.7160   -2.8910   45.9940 C.3   171  PHE171      0.1605
     45  C          5.5300   -3.1680   44.7090 C.2   171  PHE171      0.2264
     46  O          4.9740   -3.5830   43.6740 O.2   171  PHE171     -0.2867
     47  CB         4.8970   -4.0740   46.9680 C.3   171  PHE171      0.0534
     48  CG         5.5910   -3.7160   48.2440 C.ar  171  PHE171     -0.0203
     49  CD1        5.0640   -2.7280   49.0830 C.ar  171  PHE171     -0.0042
     50  CD2        6.7570   -4.3810   48.6300 C.ar  171  PHE171     -0.0042
     51  CE1        5.7070   -2.3920   50.2900 C.ar  171  PHE171     -0.0003
     52  CE2        7.4120   -4.0560   49.8370 C.ar  171  PHE171     -0.0003
     53  CZ         6.8880   -3.0590   50.6660 C.ar  171  PHE171     -0.0000
     54  N          6.4830   -5.4800   33.6770 N.3   190  ARG190     -0.1245
     55  CA         5.2140   -5.7560   32.9510 C.3   190  ARG190      0.1563
     56  C          5.0990   -4.8310   31.7380 C.2   190  ARG190      0.2260
     57  O          5.2810   -3.6370   31.8550 O.2   190  ARG190     -0.2867
     58  CB         4.0380   -5.4980   33.8960 C.3   190  ARG190      0.0307
     59  CG         4.0490   -6.5100   35.0610 C.3   190  ARG190      0.0489
     60  CD         3.0270   -6.0780   36.1410 C.3   190  ARG190      0.2205
     61  NE         2.7810   -7.1860   37.0430 N.pl3 190  ARG190     -0.0865
     62  CZ         2.0040   -7.1260   38.1160 C.cat 190  ARG190      0.5346
     63  NH1        1.3610   -5.9960   38.4110 N.pl3 190  ARG190      0.1354
     64  NH2        1.8840   -8.2040   38.8860 N.pl3 190  ARG190      0.1354
     65  N         -0.9730    4.0880   23.7790 N.3   197  PHE197     -0.1227
     66  CA        -1.8610    5.1650   24.1970 C.3   197  PHE197      0.1736
     67  C         -1.8940    6.2770   23.2130 C.2   197  PHE197      0.2596
     68  O         -0.8790    6.5730   22.6190 O.2   197  PHE197     -0.2718
     69  CB        -1.4500    5.7100   25.5370 C.3   197  PHE197      0.0547
     70  CG        -1.5010    4.6550   26.6270 C.ar  197  PHE197     -0.0202
     71  CD1       -0.4150    3.8250   26.8420 C.ar  197  PHE197     -0.0042
     72  CD2       -2.6250    4.5060   27.4220 C.ar  197  PHE197     -0.0042
     73  CE1       -0.4400    2.8390   27.8630 C.ar  197  PHE197     -0.0003
     74  CE2       -2.6660    3.5230   28.4590 C.ar  197  PHE197     -0.0003
     75  CZ        -1.5930    2.7000   28.6600 C.ar  197  PHE197     -0.0000
     76  N         -3.0810    6.8300   22.9930 N.am  198  GLY198     -0.1942
     77  CA        -3.2060    8.0950   22.2400 C.3   198  GLY198      0.2014
     78  C         -3.0320    9.3210   23.1160 C.2   198  GLY198      0.2638
     79  O         -3.4280    9.3080   24.2860 O.2   198  GLY198     -0.2714
     80  N         -2.3970   10.3530   22.5690 N.am  199  PHE199     -0.1973
     81  CA        -2.1540   11.6310   23.2790 C.3   199  PHE199      0.1639
     82  C         -2.4830   12.7460   22.3020 C.2   199  PHE199      0.2290
     83  O         -2.8260   12.4830   21.1400 O.2   199  PHE199     -0.2864
     84  CB        -0.6930   11.7130   23.8100 C.3   199  PHE199      0.0560
     85  CG         0.3600   11.7440   22.7020 C.ar  199  PHE199     -0.0200
     86  CD1        0.7760   10.5640   22.0970 C.ar  199  PHE199     -0.0042
     87  CD2        0.8310   12.9450   22.2070 C.ar  199  PHE199     -0.0042
     88  CE1        1.7180   10.6330   21.0240 C.ar  199  PHE199     -0.0003
     89  CE2        1.7420   13.0020   21.1770 C.ar  199  PHE199     -0.0003
     90  CZ         2.1570   11.8560   20.5860 C.ar  199  PHE199     -0.0000
     91  N          1.3730    6.9770   21.0000 N.3   218  THR218     -0.1218
     92  CA         2.7180    6.8320   21.5480 C.3   218  THR218      0.1862
     93  C          3.4410    5.6390   20.8800 C.2   218  THR218      0.2287
     94  O          2.8600    4.5130   20.7280 O.2   218  THR218     -0.2866
     95  CB         2.5690    6.4540   23.0440 C.3   218  THR218      0.1770
     96  OG1        1.9460    7.5570   23.7190 O.3   218  THR218     -0.2211
     97  CG2        3.9060    6.1920   23.6270 C.3   218  THR218      0.0375
     98  N          7.7920    3.8190   25.3540 N.3   223  THR223     -0.1218
     99  CA         7.1900    3.2360   26.5870 C.3   223  THR223      0.1862
    100  C          8.0790    2.1610   27.1910 C.2   223  THR223      0.2287
    101  O          8.3310    2.1620   28.4100 O.2   223  THR223     -0.2866
    102  CB         5.8080    2.6330   26.3320 C.3   223  THR223      0.1770
    103  OG1        4.9400    3.5930   25.7750 O.3   223  THR223     -0.2211
    104  CG2        5.1730    2.0460   27.6390 C.3   223  THR223      0.0375
    105  N         11.1560    3.9170   28.5880 N.3   226  HIS226     -0.1226
    106  CA        10.7690    4.4900   29.9030 C.3   226  HIS226      0.1752
    107  C         11.0030    3.4540   31.0430 C.2   226  HIS226      0.2595
    108  O         11.7030    3.7380   32.0370 O.2   226  HIS226     -0.2718
    109  CB         9.3430    5.0280   29.8470 C.3   226  HIS226      0.0759
    110  CG         8.8460    5.6490   31.1350 C.ar  226  HIS226      0.0818
    111  ND1        8.6620    7.0050   31.2640 N.ar  226  HIS226     -0.2268
    112  CD2        8.4740    5.0970   32.3320 C.ar  226  HIS226      0.1154
    113  CE1        8.1990    7.2720   32.4810 C.ar  226  HIS226      0.1986
    114  NE2        8.0750    6.1290   33.1430 N.ar  226  HIS226     -0.2212
    115  N         10.4700    2.2750   30.8870 N.am  227  GLU227     -0.1979
    116  CA        10.6150    1.1730   31.9350 C.3   227  GLU227      0.1602
    117  C         12.0720    0.7010   32.0630 C.2   227  GLU227      0.2287
    118  O         12.5460    0.3690   33.1500 O.2   227  GLU227     -0.2864
    119  CB         9.6950    0.0120   31.6240 C.3   227  GLU227      0.0415
    120  CG         8.1900    0.4050   31.5360 C.3   227  GLU227      0.1163
    121  CD         7.7040    0.9830   32.8980 C.2   227  GLU227      0.3649
    122  OE1        7.6370    0.2390   33.9070 O.co2 227  GLU227     -0.2457
    123  OE2        7.4230    2.1820   32.9590 O.co2 227  GLU227     -0.2457
    124  N         13.8260    3.1670   34.3850 N.3   230  HIS230     -0.1241
    125  CA        13.5460    2.7470   35.7850 C.3   230  HIS230      0.1621
    126  C         14.3890    1.5680   36.1920 C.2   230  HIS230      0.2264
    127  O         14.9320    1.5350   37.3080 O.2   230  HIS230     -0.2867
    128  CB        12.0460    2.3460   36.0050 C.3   230  HIS230      0.0745
    129  CG        11.1020    3.4880   36.0640 C.ar  230  HIS230      0.0817
    130  ND1       11.2880    4.5860   36.8880 N.ar  230  HIS230     -0.2268
    131  CD2        9.9960    3.7500   35.3290 C.ar  230  HIS230      0.1154
    132  CE1       10.3160    5.4390   36.6990 C.ar  230  HIS230      0.1986
    133  NE2        9.5120    4.9750   35.7600 N.ar  230  HIS230     -0.2212
    134  N         -4.5750   18.7300   38.2700 N.3   254  TYR254     -0.1241
    135  CA        -3.8980   17.8270   39.2290 C.3   254  TYR254      0.1605
    136  C         -4.1150   18.4300   40.6040 C.2   254  TYR254      0.2264
    137  O         -4.5670   17.7480   41.5400 O.2   254  TYR254     -0.2867
    138  CB        -2.3790   17.7500   38.9640 C.3   254  TYR254      0.0534
    139  CG        -1.9570   16.6970   37.9300 C.ar  254  TYR254     -0.0201
    140  CD1       -2.3540   16.7810   36.5860 C.ar  254  TYR254     -0.0009
    141  CD2       -1.1610   15.6280   38.3230 C.ar  254  TYR254     -0.0009
    142  CE1       -1.9430   15.7760   35.6370 C.ar  254  TYR254      0.0417
    143  CE2       -0.7420   14.6140   37.4110 C.ar  254  TYR254      0.0417
    144  CZ        -1.1460   14.6970   36.0880 C.ar  254  TYR254      0.1957
    145  OH        -0.6730   13.7230   35.2480 O.3   254  TYR254     -0.2866
    146  N         -3.4190   15.7550   43.4510 N.3   259  LEU259     -0.1231
    147  CA        -2.5990   14.7110   42.8540 C.3   259  LEU259      0.1693
    148  C         -1.0920   14.9150   43.0820 C.2   259  LEU259      0.2592
    149  O         -0.5860   16.0190   42.9620 O.2   259  LEU259     -0.2718
    150  CB        -2.8980   14.5850   41.3680 C.3   259  LEU259      0.0284
    151  CG        -4.3290   14.2370   41.0190 C.3   259  LEU259      0.0019
    152  CD1       -4.4750   14.1350   39.4910 C.3   259  LEU259      0.0001
    153  CD2       -4.7310   12.9240   41.6610 C.3   259  LEU259      0.0001
    154  N         -0.4020   13.8210   43.4000 N.am  260  GLU260     -0.1966
    155  CA         1.0260   13.8110   43.6680 C.3   260  GLU260      0.1733
    156  C          1.7580   12.9490   42.6530 C.2   260  GLU260      0.2616
    157  O          1.2330   11.9500   42.2050 O.2   260  GLU260     -0.2715
    158  CB         1.3050   13.3070   45.0720 C.3   260  GLU260      0.0429
    159  CG         0.8230   14.3100   46.1200 C.3   260  GLU260      0.1163
    160  CD         0.9940   13.7830   47.5280 C.2   260  GLU260      0.3649
    161  OE1        1.0440   12.5410   47.6810 O.co2 260  GLU260     -0.2457
    162  OE2        1.0900   14.6090   48.4690 O.co2 260  GLU260     -0.2457
    163  N          2.9850   13.3490   42.3110 N.am  261  VAL261     -0.1977
    164  CA         3.7920   12.6320   41.3350 C.3   261  VAL261      0.1596
    165  C          5.1660   12.4040   41.9260 C.2   261  VAL261      0.2287
    166  O          5.7900   13.3460   42.4260 O.2   261  VAL261     -0.2864
    167  CB         3.8340   13.3840   40.0200 C.3   261  VAL261      0.0276
    168  CG1        4.8550   12.7850   39.0620 C.3   261  VAL261      0.0022
    169  CG2        2.4030   13.3450   39.3600 C.3   261  VAL261      0.0022
    170  N          9.4910    9.3530   38.9660 N.3   265  GLU265     -0.1245
    171  CA         8.8250    9.5030   37.6400 C.3   265  GLU265      0.1567
    172  C          9.2370   10.7680   36.8980 C.2   265  GLU265      0.2260
    173  O          9.5240   10.7350   35.7050 O.2   265  GLU265     -0.2867
    174  CB         7.2930    9.4060   37.7840 C.3   265  GLU265      0.0388
    175  CG         6.8310    8.0430   38.2860 C.3   265  GLU265      0.1160
    176  CD         7.0190    6.9240   37.2290 C.2   265  GLU265      0.3649
    177  OE1        7.4130    7.2260   36.0600 O.co2 265  GLU265     -0.2457
    178  OE2        6.7650    5.7700   37.5340 O.co2 265  GLU265     -0.2457
    179  N          5.4190   12.7620   20.9510 N.3   365  ASN365     -0.1225
    180  CA         5.2440   12.0710   22.2190 C.3   365  ASN365      0.1785
    181  C          4.6500   13.1080   23.1790 C.2   365  ASN365      0.2597
    182  O          4.7550   14.3180   22.9550 O.2   365  ASN365     -0.2718
    183  CB         6.6510   11.6340   22.7500 C.3   365  ASN365      0.1169
    184  CG         6.5940   10.6200   23.9400 C.2   365  ASN365      0.2627
    185  OD1        6.3450    9.4220   23.7340 O.2   365  ASN365     -0.2716
    186  ND2        6.8710   11.0780   25.1430 N.am  365  ASN365     -0.0877
    187  N          4.1090   12.6530   24.3090 N.am  366  ARG366     -0.1979
    188  CA         3.7160   13.6410   25.3170 C.3   366  ARG366      0.1597
    189  C          4.9110   14.5600   25.6180 C.2   366  ARG366      0.2287
    190  O          6.0670   14.1380   25.5640 O.2   366  ARG366     -0.2864
    191  CB         3.1700   12.9260   26.5690 C.3   366  ARG366      0.0334
    192  CG         4.2380   12.0680   27.2910 C.3   366  ARG366      0.0492
    193  CD         3.6450   11.2940   28.4910 C.3   366  ARG366      0.2205
    194  NE         4.6970   10.4360   29.0530 N.pl3 366  ARG366     -0.0865
    195  CZ         4.5010    9.4980   29.9930 C.cat 366  ARG366      0.5346
    196  NH1        3.3130    9.2670   30.4930 N.pl3 366  ARG366      0.1354
    197  NH2        5.5110    8.7810   30.4390 N.pl3 366  ARG366      0.1354
    198  N          5.2940   14.5720   31.6190 N.3   369  TYR369     -0.1241
    199  CA         4.6430   13.4820   32.3720 C.3   369  TYR369      0.1605
    200  C          3.2900   13.9320   32.9790 C.2   369  TYR369      0.2264
    201  O          2.3910   13.1050   33.2040 O.2   369  TYR369     -0.2867
    202  CB         5.5720   12.9930   33.4900 C.3   369  TYR369      0.0534
    203  CG         5.2030   11.6950   34.1400 C.ar  369  TYR369     -0.0201
    204  CD1        5.4930   10.4860   33.4940 C.ar  369  TYR369     -0.0009
    205  CD2        4.5590   11.6510   35.3960 C.ar  369  TYR369     -0.0009
    206  CE1        5.1960    9.2650   34.0500 C.ar  369  TYR369      0.0417
    207  CE2        4.2450   10.4390   35.9640 C.ar  369  TYR369      0.0417
    208  CZ         4.5550    9.2530   35.3110 C.ar  369  TYR369      0.1957
    209  OH         4.2690    8.0350   35.8810 O.3   369  TYR369     -0.2866
    210  N          0.2650   14.9450   32.3810 N.3   371  ASN371     -0.1225
    211  CA        -0.8160   15.1200   31.4040 C.3   371  ASN371      0.1785
    212  C         -1.9650   14.2260   31.7430 C.2   371  ASN371      0.2597
    213  O         -1.9630   13.5760   32.8020 O.2   371  ASN371     -0.2718
    214  CB        -0.3180   14.8980   29.9890 C.3   371  ASN371      0.1169
    215  CG        -0.0430   13.4710   29.7200 C.2   371  ASN371      0.2627
    216  OD1       -0.0520   12.6200   30.6520 O.2   371  ASN371     -0.2716
    217  ND2        0.2170   13.1540   28.4590 N.am  371  ASN371     -0.0877
    218  N         -2.9700   14.1730   30.8610 N.am  372  PHE372     -0.1962
    219  CA        -4.0690   13.2150   31.0300 C.3   372  PHE372      0.1771
    220  C         -4.1920   12.3580   29.7910 C.2   372  PHE372      0.2619
    221  O         -4.2800   12.8860   28.7090 O.2   372  PHE372     -0.2715
    222  CB        -5.3730   13.9390   31.3230 C.3   372  PHE372      0.0574
    223  CG        -5.3880   14.6130   32.6690 C.ar  372  PHE372     -0.0200
    224  CD1       -4.9140   15.9010   32.8030 C.ar  372  PHE372     -0.0042
    225  CD2       -5.8550   13.9330   33.7860 C.ar  372  PHE372     -0.0042
    226  CE1       -4.9320   16.5680   34.0520 C.ar  372  PHE372     -0.0003
    227  CE2       -5.8670   14.5420   35.0180 C.ar  372  PHE372     -0.0003
    228  CZ        -5.4160   15.8450   35.1690 C.ar  372  PHE372     -0.0000
    229  N         -4.1740   11.0280   29.9710 N.am  373  ASP373     -0.1971
    230  CA        -4.3390   10.0950   28.8510 C.3   373  ASP373      0.1709
    231  C         -5.6780   10.2160   28.1970 C.2   373  ASP373      0.2293
    232  O         -6.6710   10.5220   28.8600 O.2   373  ASP373     -0.2864
    233  CB        -4.1660    8.6300   29.3240 C.3   373  ASP373      0.1436
    234  CG        -2.7930    8.3730   29.9180 C.2   373  ASP373      0.3671
    235  OD1       -1.8020    8.9030   29.3460 O.co2 373  ASP373     -0.2456
    236  OD2       -2.7090    7.6600   30.9450 O.co2 373  ASP373     -0.2456
    237  N        -12.4270   11.2550   34.0790 N.3   426  PHE426     -0.1241
    238  CA       -11.3930   11.2060   35.1230 C.3   426  PHE426      0.1605
    239  C        -11.9240   11.2650   36.5630 C.2   426  PHE426      0.2264
    240  O        -11.8010   10.2900   37.3250 O.2   426  PHE426     -0.2867
    241  CB       -10.2850   12.2270   34.8460 C.3   426  PHE426      0.0534
    242  CG        -9.1920   11.7030   33.9390 C.ar  426  PHE426     -0.0203
    243  CD1       -8.0910   10.9820   34.4710 C.ar  426  PHE426     -0.0042
    244  CD2       -9.2750   11.8970   32.5520 C.ar  426  PHE426     -0.0042
    245  CE1       -7.0450   10.4920   33.5980 C.ar  426  PHE426     -0.0003
    246  CE2       -8.2570   11.3920   31.6740 C.ar  426  PHE426     -0.0003
    247  CZ        -7.1450   10.7180   32.1830 C.ar  426  PHE426     -0.0000
@<TRIPOS>BOND
     1    90    88   ar
     2    90    89   ar
     3    94    93    2
     4    93    92    1
     5   179   180    1
     6    91    92    1
     7    88    86   ar
     8    83    82    2
     9    89    87   ar
    10    92    95    1
    11    86    85   ar
    12    87    85   ar
    13   180   183    1
    14   180   181    1
    15    77    76    1
    16    77    78    1
    17    82    81    1
    18    80    78   am
    19    80    81    1
    20    68    67    2
    21    85    84    1
    22   183   184    1
    23   182   181    2
    24    76    67   am
    25    95    97    1
    26    95    96    1
    27    78    79    2
    28   181   187   am
    29    67    66    1
    30    81    84    1
    31   185   184    2
    32    65    66    1
    33   184   186   am
    34    66    69    1
    35   187   188    1
    36   188   189    1
    37   188   191    1
    38    98    99    1
    39    69    70    1
    40   190   189    2
    41   103   102    1
    42   102    99    1
    43   102   104    1
    44   191   192    1
    45    99   100    1
    46    70    71   ar
    47    70    72   ar
    48    71    73   ar
    49   100   101    2
    50   192   193    1
    51    72    74   ar
    52    73    75   ar
    53   231   230    1
    54   231   232    2
    55    74    75   ar
    56   217   215   am
    57   193   194    1
    58   105   106    1
    59   221   220    2
    60   230   233    1
    61   230   229    1
    62   194   195    2
    63   233   234    1
    64   235   234   ar
    65   215   214    1
    66   215   216    2
    67   220   229   am
    68   220   219    1
    69   109   106    1
    70   109   110    1
    71   106   107    1
    72   234   236   ar
    73   214   211    1
    74   195   197    1
    75   195   196    1
    76   218   219    1
    77   218   212   am
    78   115   107   am
    79   115   116    1
    80   219   222    1
    81   107   108    2
    82   110   111   ar
    83   110   112   ar
    84   111   113   ar
    85   222   223    1
    86   211   212    1
    87   211   210    1
    88   120   119    1
    89   120   121    1
    90   198   199    1
    91   119   116    1
    92   246   247   ar
    93   246   244   ar
    94    56    57    2
    95    56    55    1
    96   212   213    2
    97   116   117    1
    98   117   118    2
    99   247   245   ar
   100   112   114   ar
   101   199   200    1
   102   199   202    1
   103   113   114   ar
   104   244   242   ar
   105     6     5    1
   106   223   224   ar
   107   223   225   ar
   108   224   226   ar
   109   121   123   ar
   110   121   122   ar
   111     7     5    1
   112    55    54    1
   113    55    58    1
   114   200   201    2
   115     2     5    1
   116     2     3    1
   117     2     1    1
   118   202   203    1
   119   204   206   ar
   120   204   203   ar
   121   245   243   ar
   122     8     9    1
   123     3     4    2
   124   225   227   ar
   125    58    59    1
   126   242   243   ar
   127   242   241    1
   128   206   208   ar
   129   226   228   ar
   130   237   238    1
   131   203   205   ar
   132    11    10    2
   133   124   125    1
   134   241   238    1
   135    10     9    1
   136    10    17   am
   137    21    18    1
   138    21    22    1
   139     9    12    1
   140   227   228   ar
   141    59    60    1
   142   238   239    1
   143   145   144    1
   144    18    17    1
   145    18    19    1
   146   208   209    1
   147   208   207   ar
   148   131   133   ar
   149   131   129   ar
   150   205   207   ar
   151   142   144   ar
   152   142   140   ar
   153   173   172    2
   154    12    13    1
   155   133   132   ar
   156   125   128    1
   157   125   126    1
   158    24    22   ar
   159    24    26   ar
   160   128   129    1
   161    22    23   ar
   162   177   176   ar
   163   129   130   ar
   164   144   143   ar
   165    60    61    1
   166   126   127    2
   167    20    19    2
   168    19    28   am
   169   239   240    2
   170   140   139   ar
   171    13    14    1
   172   132   130   ar
   173    15    14    2
   174   172   171    1
   175    26    27   ar
   176    61    62    2
   177    23    25   ar
   178   176   178   ar
   179   176   175    1
   180    14    16   am
   181   143   141   ar
   182    28    29    1
   183   171   174    1
   184   171   170    1
   185   174   175    1
   186   139   141   ar
   187   139   138    1
   188    27    25   ar
   189    62    63    1
   190    62    64    1
   191   134   135    1
   192    29    30    1
   193    29    32    1
   194   138   135    1
   195   168   167    1
   196   135   136    1
   197    31    30    2
   198   169   167    1
   199    30    37   am
   200   152   151    1
   201    32    33    1
   202   167   164    1
   203    37    38    1
   204    33    34    1
   205   136   137    2
   206    42    41    1
   207    35    34   ar
   208    34    36   ar
   209   151   150    1
   210   151   153    1
   211    38    41    1
   212    38    39    1
   213   164   165    1
   214   164   163    1
   215   150   147    1
   216   165   166    2
   217    39    40    2
   218   157   156    2
   219   163   156   am
   220   156   155    1
   221   147   148    1
   222   147   146    1
   223   149   148    2
   224   148   154   am
   225   154   155    1
   226   155   158    1
   227    46    45    2
   228    45    44    1
   229   158   159    1
   230    43    44    1
   231    44    47    1
   232   159   160    1
   233    47    48    1
   234   160   161   ar
   235   160   162   ar
   236    48    50   ar
   237    48    49   ar
   238    50    52   ar
   239    49    51   ar
   240    52    53   ar
   241    51    53   ar
