@<TRIPOS>MOLECULE
tmp/4ks7A00.pdb
 189 180 0 0 0
SMALL
GASTEIGER

@<TRIPOS>ATOM
      1  N         28.2240   31.4340   32.6100 N.3    28  ILE28      -0.1231
      2  CA        27.8290   31.4230   31.1840 C.3    28  ILE28       0.1692
      3  C         28.9940   31.2570   30.1970 C.2    28  ILE28       0.2593
      4  O         28.7970   31.0450   28.9860 O.2    28  ILE28      -0.2718
      5  CB        26.9600   32.6360   30.8070 C.3    28  ILE28       0.0266
      6  CG1       27.7010   33.9770   30.9860 C.3    28  ILE28       0.0019
      7  CG2       25.6320   32.6020   31.5640 C.3    28  ILE28       0.0020
      8  CD1       27.0080   35.1060   30.2400 C.3    28  ILE28       0.0001
      9  N         30.2200   31.3490   30.6960 N.am   29  GLY29      -0.1942
     10  CA        31.3650   31.0400   29.8610 C.3    29  GLY29       0.2014
     11  C         32.6710   31.1240   30.5720 C.2    29  GLY29       0.2639
     12  O         32.7440   31.4290   31.7650 O.2    29  GLY29      -0.2714
     13  N         33.7200   30.8280   29.8380 N.am   30  GLU30      -0.1963
     14  CA        35.0500   30.9130   30.3690 C.3    30  GLU30       0.1733
     15  C         35.8820   31.7190   29.3720 C.2    30  GLU30       0.2617
     16  O         35.5060   31.8680   28.2040 O.2    30  GLU30      -0.2715
     17  CB        35.6220   29.5240   30.5530 C.3    30  GLU30       0.0429
     18  CG        34.7180   28.6010   31.3470 C.3    30  GLU30       0.1163
     19  CD        35.2980   27.2130   31.4750 C.2    30  GLU30       0.3649
     20  OE1       36.0130   26.8140   30.5510 O.co2  30  GLU30      -0.2457
     21  OE2       35.0360   26.5180   32.4830 O.co2  30  GLU30      -0.2457
     22  N         36.9970   32.2470   29.8490 N.am   31  GLY31      -0.1940
     23  CA        37.9210   33.0060   29.0080 C.3    31  GLY31       0.2014
     24  C         39.3240   32.7380   29.4940 C.2    31  GLY31       0.2640
     25  O         39.5520   31.9090   30.3770 O.2    31  GLY31      -0.2714
     26  N         40.2910   33.4660   28.9600 N.am   32  SER32      -0.1935
     27  CA        41.6630   33.0510   29.1980 C.3    32  SER32       0.2055
     28  C         42.0890   33.2290   30.6730 C.2    32  SER32       0.2644
     29  O         42.9310   32.5000   31.1750 O.2    32  SER32      -0.2714
     30  CB        42.6180   33.7790   28.2490 C.3    32  SER32       0.2130
     31  OG        42.6180   35.1740   28.5220 O.3    32  SER32      -0.2179
     32  N         41.4680   34.1700   31.3710 N.am   33  THR33      -0.1936
     33  CA        41.9260   34.5080   32.7140 C.3    33  THR33       0.2028
     34  C         41.0070   33.9610   33.8240 C.2    33  THR33       0.2643
     35  O         41.2660   34.1840   35.0040 O.2    33  THR33      -0.2714
     36  CB        41.9380   36.0200   32.8570 C.3    33  THR33       0.1808
     37  OG1       40.6520   36.5100   32.4810 O.3    33  THR33      -0.2208
     38  CG2       42.9880   36.6470   31.9100 C.3    33  THR33       0.0379
     39  N         39.9180   33.2900   33.4550 N.am   34  GLY34      -0.1939
     40  CA        38.8760   33.0030   34.4440 C.3    34  GLY34       0.2014
     41  C         37.5490   32.6830   33.8180 C.2    34  GLY34       0.2639
     42  O         37.4840   32.1220   32.7030 O.2    34  GLY34      -0.2714
     43  N         36.4710   32.9780   34.5370 N.am   35  ILE35      -0.1963
     44  CA        35.1160   32.6870   34.0750 C.3    35  ILE35       0.1727
     45  C         34.2620   33.9520   34.0090 C.2    35  ILE35       0.2616
     46  O         34.6450   35.0180   34.5460 O.2    35  ILE35      -0.2715
     47  CB        34.4310   31.6060   34.9610 C.3    35  ILE35       0.0290
     48  CG1       34.0740   32.1690   36.3450 C.3    35  ILE35       0.0022
     49  CG2       35.3240   30.3800   35.0820 C.3    35  ILE35       0.0023
     50  CD1       33.1060   31.2830   37.1330 C.3    35  ILE35       0.0001
     51  N         33.1310   33.8440   33.3260 N.am   36  VAL36      -0.1977
     52  CA        32.1120   34.8750   33.3090 C.3    36  VAL36       0.1596
     53  C         30.8130   34.2900   33.8710 C.2    36  VAL36       0.2287
     54  O         30.3420   33.2800   33.3760 O.2    36  VAL36      -0.2864
     55  CB        31.8380   35.3900   31.8600 C.3    36  VAL36       0.0276
     56  CG1       30.5970   36.2660   31.7850 C.3    36  VAL36       0.0022
     57  CG2       33.0070   36.1770   31.3650 C.3    36  VAL36       0.0022
     58  N         27.1710   41.0820   33.8880 N.3    49  ALA49      -0.1245
     59  CA        28.1140   40.0180   33.6090 C.3    49  ALA49       0.1562
     60  C         29.2730   40.1960   34.6020 C.2    49  ALA49       0.2260
     61  O         29.7820   41.3060   34.7730 O.2    49  ALA49      -0.2867
     62  CB        28.6070   40.1130   32.1620 C.3    49  ALA49       0.0290
     63  N         33.1050   39.0630   35.5040 N.3    51  LYS51      -0.1245
     64  CA        34.3410   38.3620   35.2590 C.3    51  LYS51       0.1561
     65  C         35.0170   38.0210   36.5420 C.2    51  LYS51       0.2260
     66  O         35.2450   38.8980   37.3810 O.2    51  LYS51      -0.2867
     67  CB        35.3000   39.2540   34.4710 C.3    51  LYS51       0.0271
     68  CG        34.8690   39.4460   33.0630 C.3    51  LYS51       0.0035
     69  CD        35.9130   40.2420   32.2700 C.3    51  LYS51       0.0206
     70  CE        37.1490   39.4210   31.9470 C.3    51  LYS51       0.1093
     71  NZ        38.1040   40.0440   30.9240 N.3    51  LYS51      -0.1314
     72  N         38.3900   36.1170   38.2010 N.3    53  MET53      -0.1245
     73  CA        39.7450   35.7260   37.8030 C.3    53  MET53       0.1570
     74  C         40.6250   35.5550   39.0370 C.2    53  MET53       0.2261
     75  O         40.7490   36.4710   39.8480 O.2    53  MET53      -0.2867
     76  CB        40.3150   36.8600   36.9110 C.3    53  MET53       0.0387
     77  CG        39.4850   37.1360   35.6620 C.3    53  MET53       0.0595
     78  SD        39.8410   38.7560   34.8620 S.3    53  MET53      -0.1393
     79  CE        38.9200   39.8850   35.9070 C.3    53  MET53       0.0692
     80  N         32.9220   48.7860   25.9370 N.3    80  VAL80      -0.1245
     81  CA        32.1320   48.1530   27.0280 C.3    80  VAL80       0.1561
     82  C         32.2410   48.9390   28.3390 C.2    80  VAL80       0.2260
     83  O         33.2900   49.4680   28.6940 O.2    80  VAL80      -0.2867
     84  CB        32.6230   46.7130   27.2630 C.3    80  VAL80       0.0252
     85  CG1       31.9950   46.1110   28.5430 C.3    80  VAL80       0.0019
     86  CG2       32.2610   45.9130   26.0530 C.3    80  VAL80       0.0019
     87  N         30.4030   43.9780   34.7210 N.3    96  MET96      -0.1230
     88  CA        30.3720   44.6280   33.3860 C.3    96  MET96       0.1702
     89  C         28.9830   44.6080   32.8380 C.2    96  MET96       0.2592
     90  O         28.1680   43.7720   33.2290 O.2    96  MET96      -0.2718
     91  CB        31.1990   43.8610   32.3190 C.3    96  MET96       0.0401
     92  CG        32.4400   43.1710   32.7840 C.3    96  MET96       0.0596
     93  SD        33.6730   43.6060   31.5820 S.3    96  MET96      -0.1393
     94  CE        33.2260   45.2470   31.0940 C.3    96  MET96       0.0692
     95  N         28.7370   45.4750   31.8730 N.am   97  GLU97      -0.1966
     96  CA        27.4730   45.3020   31.1570 C.3    97  GLU97       0.1733
     97  C         27.4010   43.9290   30.4260 C.2    97  GLU97       0.2616
     98  O         28.3990   43.3520   29.9360 O.2    97  GLU97      -0.2715
     99  CB        27.1570   46.4700   30.2260 C.3    97  GLU97       0.0429
    100  CG        28.0690   46.5150   29.0500 C.3    97  GLU97       0.1163
    101  CD        27.7750   47.6130   28.0210 C.2    97  GLU97       0.3649
    102  OE1       28.7240   48.3020   27.6820 O.co2  97  GLU97      -0.2457
    103  OE2       26.6510   47.7860   27.4820 O.co2  97  GLU97      -0.2457
    104  N         26.1970   43.3980   30.4210 N.am   98  PHE98      -0.1960
    105  CA        25.8700   42.1870   29.7010 C.3    98  PHE98       0.1771
    106  C         25.4150   42.5640   28.2880 C.2    98  PHE98       0.2619
    107  O         24.3900   43.2230   28.1010 O.2    98  PHE98      -0.2715
    108  CB        24.7860   41.4310   30.4860 C.3    98  PHE98       0.0574
    109  CG        24.3090   40.1750   29.8180 C.ar   98  PHE98      -0.0200
    110  CD1       25.1940   39.3320   29.1420 C.ar   98  PHE98      -0.0042
    111  CD2       22.9690   39.8170   29.9040 C.ar   98  PHE98      -0.0042
    112  CE1       24.7530   38.1430   28.5340 C.ar   98  PHE98      -0.0003
    113  CE2       22.5120   38.6400   29.3130 C.ar   98  PHE98      -0.0003
    114  CZ        23.3970   37.8060   28.6180 C.ar   98  PHE98      -0.0000
    115  N         26.2050   42.1550   27.2980 N.am   99  LEU99      -0.1963
    116  CA        25.8780   42.4060   25.8910 C.3    99  LEU99       0.1728
    117  C         25.3470   41.1200   25.2840 C.2    99  LEU99       0.2616
    118  O         26.0700   40.1100   25.1430 O.2    99  LEU99      -0.2715
    119  CB        27.1210   42.9100   25.1550 C.3    99  LEU99       0.0311
    120  CG        27.5800   44.2270   25.7720 C.3    99  LEU99       0.0022
    121  CD1       29.0830   44.4420   25.6970 C.3    99  LEU99       0.0001
    122  CD2       26.8220   45.3750   25.1440 C.3    99  LEU99       0.0001
    123  N         24.0460   41.1190   24.9620 N.am  100  GLN100     -0.1963
    124  CA        23.3950   39.8860   24.5500 C.3   100  GLN100      0.1733
    125  C         23.5270   39.4480   23.0860 C.2   100  GLN100      0.2617
    126  O         23.1740   38.2980   22.7520 O.2   100  GLN100     -0.2715
    127  CB        21.8990   39.9330   24.9470 C.3   100  GLN100      0.0408
    128  CG        21.6830   39.9640   26.4500 C.3   100  GLN100      0.0908
    129  CD        20.2420   40.1300   26.8060 C.2   100  GLN100      0.2608
    130  OE1       19.4880   39.1720   26.7240 O.2   100  GLN100     -0.2717
    131  NE2       19.8380   41.3690   27.1560 N.am  100  GLN100     -0.0878
    132  N         24.0930   40.3060   22.2390 N.am  101  GLY101     -0.1940
    133  CA        24.2930   39.9970   20.8090 C.3   101  GLY101      0.2014
    134  C         25.5240   39.1590   20.5670 C.2   101  GLY101      0.2639
    135  O         25.7600   38.7260   19.4420 O.2   101  GLY101     -0.2714
    136  N         26.3210   38.9470   21.6130 N.am  102  GLY102     -0.1939
    137  CA        27.4660   38.0480   21.5300 C.3   102  GLY102      0.2014
    138  C         28.6580   38.7280   20.8530 C.2   102  GLY102      0.2638
    139  O         28.7300   39.9610   20.7100 O.2   102  GLY102     -0.2714
    140  N         29.5900   37.8930   20.4160 N.am  103  ALA103     -0.1977
    141  CA        30.8240   38.3750   19.7460 C.3   103  ALA103      0.1597
    142  C         30.7900   38.2850   18.2330 C.2   103  ALA103      0.2287
    143  O         30.1780   37.4120   17.6530 O.2   103  ALA103     -0.2864
    144  CB        31.9880   37.5770   20.2340 C.3   103  ALA103      0.0319
    145  N         40.6350   41.8280   17.5390 N.3   143  LYS143     -0.1245
    146  CA        40.2410   40.6400   16.7400 C.3   143  LYS143      0.1561
    147  C         38.7400   40.5010   16.9100 C.2   143  LYS143      0.2260
    148  O         38.1720   41.1490   17.8000 O.2   143  LYS143     -0.2867
    149  CB        40.9900   39.3460   17.1850 C.3   143  LYS143      0.0271
    150  CG        40.8710   38.9670   18.6800 C.3   143  LYS143      0.0035
    151  CD        41.6670   37.6780   18.8780 C.3   143  LYS143      0.0206
    152  CE        41.4440   36.9980   20.2100 C.3   143  LYS143      0.1093
    153  NZ        41.7110   37.8690   21.3770 N.3   143  LYS143     -0.1314
    154  N         36.9040   38.3990   18.2400 N.3   145  ASP145     -0.1225
    155  CA        36.4940   37.9580   19.5610 C.3   145  ASP145      0.1805
    156  C         36.3440   39.1020   20.5330 C.2   145  ASP145      0.2598
    157  O         35.6650   38.9530   21.5770 O.2   145  ASP145     -0.2718
    158  CB        37.4880   36.9140   20.1420 C.3   145  ASP145      0.1424
    159  CG        37.9480   35.9040   19.1300 C.2   145  ASP145      0.3668
    160  OD1       38.5960   36.2820   18.1180 O.co2 145  ASP145     -0.2456
    161  OD2       37.6950   34.6900   19.3550 O.co2 145  ASP145     -0.2456
    162  N         37.0220   40.2090   20.2960 N.am  146  SER146     -0.1952
    163  CA        37.0490   41.3680   21.1780 C.3   146  SER146      0.1924
    164  C         35.8990   42.3140   20.9110 C.2   146  SER146      0.2314
    165  O         35.7720   43.3550   21.5860 O.2   146  SER146     -0.2863
    166  CB        38.3250   42.1700   20.9750 C.3   146  SER146      0.2116
    167  OG        39.4000   41.4070   21.4200 O.3   146  SER146     -0.2180
    168  N         32.0070   42.9700   20.7940 N.3   148  LEU148     -0.1245
    169  CA        30.6970   42.4960   21.2860 C.3   148  LEU148      0.1561
    170  C         29.5750   43.3540   20.7560 C.2   148  LEU148      0.2260
    171  O         29.7320   44.5310   20.3970 O.2   148  LEU148     -0.2867
    172  CB        30.6900   42.4520   22.8250 C.3   148  LEU148      0.0270
    173  CG        31.7130   41.5100   23.4680 C.3   148  LEU148      0.0019
    174  CD1       31.6340   41.6540   24.9960 C.3   148  LEU148      0.0001
    175  CD2       31.5110   40.0650   23.0630 C.3   148  LEU148      0.0001
    176  N         35.8630   45.2750   23.6100 N.3   158  SER158     -0.1202
    177  CA        36.0260   44.6640   24.9320 C.3   158  SER158      0.2020
    178  C         37.4360   44.0660   25.0870 C.2   158  SER158      0.2618
    179  O         38.3220   44.3800   24.2600 O.2   158  SER158     -0.2717
    180  CB        34.9610   43.5890   25.1170 C.3   158  SER158      0.2103
    181  OG        35.0020   43.0080   26.4320 O.3   158  SER158     -0.2182
    182  N         37.6570   43.1990   26.0800 N.am  159  ASP159     -0.1973
    183  CA        38.9100   42.4560   26.2480 C.3   159  ASP159      0.1709
    184  C         40.1510   43.3060   26.4070 C.2   159  ASP159      0.2293
    185  O         41.0750   43.2600   25.5730 O.2   159  ASP159     -0.2864
    186  CB        39.0820   41.3750   25.1370 C.3   159  ASP159      0.1436
    187  CG        38.2130   40.1440   25.3630 C.2   159  ASP159      0.3671
    188  OD1       37.4190   40.0900   26.3320 O.co2 159  ASP159     -0.2456
    189  OD2       38.2630   39.2070   24.5440 O.co2 159  ASP159     -0.2456
@<TRIPOS>BOND
     1   146   147    1
     2   146   149    1
     3   146   145    1
     4   147   148    2
     5   149   150    1
     6   143   142    2
     7   160   159   ar
     8   142   141    1
     9   154   155    1
    10   150   151    1
    11   151   152    1
    12   159   161   ar
    13   159   158    1
    14   135   134    2
    15   155   158    1
    16   155   156    1
    17   141   144    1
    18   141   140    1
    19   152   153    1
    20   162   156   am
    21   162   163    1
    22   171   170    2
    23   140   138   am
    24   156   157    2
    25   134   133    1
    26   134   136   am
    27   139   138    2
    28   170   169    1
    29   168   169    1
    30   133   132    1
    31   138   137    1
    32   164   163    1
    33   164   165    2
    34   166   163    1
    35   166   167    1
    36   169   172    1
    37   137   136    1
    38   132   125   am
    39   126   125    2
    40   172   173    1
    41   175   173    1
    42   125   124    1
    43   173   174    1
    44   176   177    1
    45   179   178    2
    46   189   187   ar
    47   124   127    1
    48   124   123    1
    49   177   178    1
    50   177   180    1
    51   127   128    1
    52   123   117   am
    53   178   182   am
    54   180   181    1
    55   186   187    1
    56   186   183    1
    57   118   117    2
    58   122   120    1
    59   119   120    1
    60   119   116    1
    61   117   116    1
    62   187   188   ar
    63   185   184    2
    64   121   120    1
    65   116   115    1
    66    80    81    1
    67    86    84    1
    68   182   183    1
    69   183   184    1
    70   128   129    1
    71   130   129    2
    72   129   131   am
    73    81    84    1
    74    81    82    1
    75    84    85    1
    76   115   106   am
    77   103   101   ar
    78   102   101   ar
    79   101   100    1
    80   107   106    2
    81    16    15    2
    82    30    31    1
    83    30    27    1
    84   106   105    1
    85    82    83    2
    86   112   114   ar
    87   112   110   ar
    88   114   113   ar
    89    26    27    1
    90    26    24   am
    91     4     3    2
    92    23    24    1
    93    23    22    1
    94   100    99    1
    95   110   109   ar
    96    27    28    1
    97   113   111   ar
    98    15    22   am
    99    15    14    1
   100    24    25    2
   101   105   104    1
   102   105   108    1
   103   109   111   ar
   104   109   108    1
   105    13    14    1
   106    13    11   am
   107    10    11    1
   108    10     9    1
   109    98    97    2
   110     3     9   am
   111     3     2    1
   112    99    96    1
   113     8     6    1
   114    14    17    1
   115   104    97   am
   116    97    96    1
   117    20    19   ar
   118    17    18    1
   119    11    12    2
   120    28    29    2
   121    28    32   am
   122     5     6    1
   123     5     2    1
   124     5     7    1
   125    71    70    1
   126    94    93    1
   127    96    95    1
   128     2     1    1
   129    18    19    1
   130    57    55    1
   131    32    33    1
   132    19    21   ar
   133    93    92    1
   134    56    55    1
   135    55    52    1
   136    95    89   am
   137    38    36    1
   138    70    69    1
   139    62    59    1
   140    69    68    1
   141    91    92    1
   142    91    88    1
   143    37    36    1
   144    42    41    2
   145    33    36    1
   146    33    34    1
   147    89    90    2
   148    89    88    1
   149    68    67    1
   150    52    51    1
   151    52    53    1
   152    51    45   am
   153    54    53    2
   154    88    87    1
   155    39    34   am
   156    39    40    1
   157    59    58    1
   158    59    60    1
   159    41    40    1
   160    41    43   am
   161    34    35    2
   162    45    44    1
   163    45    46    2
   164    44    43    1
   165    44    47    1
   166    67    64    1
   167    60    61    2
   168    78    77    1
   169    78    79    1
   170    47    49    1
   171    47    48    1
   172    64    63    1
   173    64    65    1
   174    77    76    1
   175    48    50    1
   176    65    66    2
   177    76    73    1
   178    73    72    1
   179    73    74    1
   180    74    75    2
