@<TRIPOS>MOLECULE
tmp/4ks8A00.pdb
 128 120 0 0 0
SMALL
GASTEIGER

@<TRIPOS>ATOM
      1  N          4.4670    3.7800   30.6680 N.3    29  ILE29      -0.1231
      2  CA         4.1620    4.0850   29.2630 C.3    29  ILE29       0.1692
      3  C          5.3990    4.1400   28.3600 C.2    29  ILE29       0.2592
      4  O          5.2760    4.2540   27.1380 O.2    29  ILE29      -0.2718
      5  CB         3.3670    5.4020   29.1360 C.3    29  ILE29       0.0266
      6  CG1        4.0350    6.5300   29.9270 C.3    29  ILE29       0.0019
      7  CG2        1.9430    5.2070   29.6380 C.3    29  ILE29       0.0020
      8  CD1        3.4630    7.8980   29.6330 C.3    29  ILE29       0.0001
      9  N          6.5830    4.0450   28.9600 N.am   30  GLY30      -0.1957
     10  CA         7.8340    4.1000   28.2130 C.3    30  GLY30       0.1869
     11  C          9.0480    3.8120   29.0790 C.2    30  GLY30       0.2309
     12  O          9.0750    4.1400   30.2640 O.2    30  GLY30      -0.2863
     13  N          9.4520    6.1010   32.2050 N.3    37  VAL37      -0.1245
     14  CA         8.4210    7.1370   32.2540 C.3    37  VAL37       0.1561
     15  C          7.0620    6.4860   32.5260 C.2    37  VAL37       0.2260
     16  O          6.6580    5.5530   31.8320 O.2    37  VAL37      -0.2867
     17  CB         8.3810    8.0240   30.9790 C.3    37  VAL37       0.0252
     18  CG1        8.2170    7.1980   29.7090 C.3    37  VAL37       0.0019
     19  CG2        7.2730    9.0660   31.0840 C.3    37  VAL37       0.0019
     20  N          3.1500   12.9120   33.3470 N.3    50  ALA50      -0.1245
     21  CA         4.1960   11.9660   33.0160 C.3    50  ALA50       0.1562
     22  C          5.2310   12.1140   34.1150 C.2    50  ALA50       0.2260
     23  O          5.6050   13.2310   34.4750 O.2    50  ALA50      -0.2867
     24  CB         4.8040   12.2780   31.6570 C.3    50  ALA50       0.0290
     25  N          8.9410   10.8180   35.0660 N.3    52  LYS52      -0.1245
     26  CA        10.1540   10.1120   34.6800 C.3    52  LYS52       0.1561
     27  C         10.9060    9.7720   35.9590 C.2    52  LYS52       0.2260
     28  O         11.0930   10.6340   36.8180 O.2    52  LYS52      -0.2867
     29  CB        11.0200   10.9370   33.7310 C.3    52  LYS52       0.0271
     30  CG        12.1610   10.1410   33.1120 C.3    52  LYS52       0.0035
     31  CD        12.9910   10.9720   32.1460 C.3    52  LYS52       0.0206
     32  CE        14.0750   10.1360   31.4780 C.3    52  LYS52       0.1093
     33  NZ        14.9950   10.9320   30.6120 N.3    52  LYS52      -0.1314
     34  N          8.9620   20.6250   26.1750 N.3    81  VAL81      -0.1245
     35  CA         8.1870   19.9700   27.2250 C.3    81  VAL81       0.1561
     36  C          8.2270   20.7820   28.5220 C.2    81  VAL81       0.2260
     37  O          9.2770   21.2670   28.9400 O.2    81  VAL81      -0.2867
     38  CB         8.6800   18.5260   27.4860 C.3    81  VAL81       0.0252
     39  CG1        8.0740   17.9620   28.7640 C.3    81  VAL81       0.0019
     40  CG2        8.3330   17.6280   26.3080 C.3    81  VAL81       0.0019
     41  N          6.2190   15.9580   34.5720 N.3    97  MET97      -0.1230
     42  CA         6.0670   16.7620   33.3650 C.3    97  MET97       0.1702
     43  C          4.6960   16.5770   32.7570 C.2    97  MET97       0.2592
     44  O          3.9960   15.6010   33.0420 O.2    97  MET97      -0.2718
     45  CB         7.0950   16.3350   32.3240 C.3    97  MET97       0.0401
     46  CG         8.5380   16.5710   32.7280 C.3    97  MET97       0.0596
     47  SD         9.6750   15.6040   31.7280 S.3    97  MET97      -0.1393
     48  CE         9.3240   13.9330   32.2660 C.3    97  MET97       0.0692
     49  N          4.3430   17.5110   31.8840 N.am   98  GLU98      -0.1966
     50  CA         3.0850   17.4540   31.1660 C.3    98  GLU98       0.1733
     51  C          2.9160   16.1260   30.4380 C.2    98  GLU98       0.2616
     52  O          3.8640   15.6000   29.8500 O.2    98  GLU98      -0.2715
     53  CB         2.9730   18.6200   30.1860 C.3    98  GLU98       0.0429
     54  CG         4.0190   18.6370   29.0810 C.3    98  GLU98       0.1163
     55  CD         3.8060   19.7800   28.1130 C.2    98  GLU98       0.3649
     56  OE1        4.8020   20.4190   27.7120 O.co2  98  GLU98      -0.2457
     57  OE2        2.6340   20.0520   27.7690 O.co2  98  GLU98      -0.2457
     58  N          1.7030   15.5880   30.5100 N.am   99  PHE99      -0.1960
     59  CA         1.3450   14.3750   29.7950 C.3    99  PHE99       0.1771
     60  C          1.0160   14.7530   28.3580 C.2    99  PHE99       0.2619
     61  O          0.1760   15.6240   28.1090 O.2    99  PHE99      -0.2715
     62  CB         0.1500   13.6930   30.4650 C.3    99  PHE99       0.0574
     63  CG        -0.2960   12.4320   29.7790 C.ar   99  PHE99      -0.0200
     64  CD1        0.5860   11.3730   29.5990 C.ar   99  PHE99      -0.0042
     65  CD2       -1.5980   12.2970   29.3270 C.ar   99  PHE99      -0.0042
     66  CE1        0.1760   10.2090   28.9710 C.ar   99  PHE99      -0.0003
     67  CE2       -2.0140   11.1330   28.7030 C.ar   99  PHE99      -0.0003
     68  CZ        -1.1240   10.0900   28.5200 C.ar   99  PHE99      -0.0000
     69  N          1.6960   14.1160   27.4140 N.am  100  LEU100     -0.1963
     70  CA         1.4920   14.4030   26.0020 C.3   100  LEU100      0.1728
     71  C          0.9130   13.1550   25.3480 C.2   100  LEU100      0.2616
     72  O          1.6250   12.1940   25.0610 O.2   100  LEU100     -0.2715
     73  CB         2.8030   14.8530   25.3610 C.3   100  LEU100      0.0311
     74  CG         3.2990   16.1820   25.9500 C.3   100  LEU100      0.0022
     75  CD1        4.7870   16.4100   25.6940 C.3   100  LEU100      0.0001
     76  CD2        2.4800   17.3410   25.4100 C.3   100  LEU100      0.0001
     77  N         -0.3970   13.1980   25.1260 N.am  101  GLN101     -0.1963
     78  CA        -1.1920   12.0150   24.7820 C.3   101  GLN101      0.1733
     79  C         -0.8460   11.3840   23.4340 C.2   101  GLN101      0.2617
     80  O         -1.1040   10.1920   23.2200 O.2   101  GLN101     -0.2715
     81  CB        -2.6850   12.3730   24.8250 C.3   101  GLN101      0.0408
     82  CG        -3.6070   11.1790   25.0360 C.3   101  GLN101      0.0908
     83  CD        -4.6700   11.4400   26.0950 C.2   101  GLN101      0.2608
     84  OE1       -5.1180   12.5790   26.2890 O.2   101  GLN101     -0.2717
     85  NE2       -5.0650   10.3840   26.8020 N.am  101  GLN101     -0.0878
     86  N         -0.2590   12.1730   22.5370 N.am  102  GLY102     -0.1940
     87  CA         0.1760   11.6770   21.2310 C.3   102  GLY102      0.2014
     88  C          1.3830   10.7580   21.2700 C.2   102  GLY102      0.2639
     89  O          1.6770   10.0790   20.2890 O.2   102  GLY102     -0.2714
     90  N          2.1000   10.7330   22.3890 N.am  103  GLY103     -0.1939
     91  CA         3.2870    9.8990   22.5090 C.3   103  GLY103      0.2014
     92  C          4.4580   10.4130   21.6840 C.2   103  GLY103      0.2638
     93  O          4.4960   11.5900   21.3050 O.2   103  GLY103     -0.2714
     94  N          5.3950    9.5150   21.3950 N.am  104  ALA104     -0.1977
     95  CA         6.6580    9.8660   20.7510 C.3   104  ALA104      0.1597
     96  C          6.6150    9.6520   19.2390 C.2   104  ALA104      0.2287
     97  O          6.0050    8.7020   18.7500 O.2   104  ALA104     -0.2864
     98  CB         7.8000    9.0640   21.3700 C.3   104  ALA104      0.0319
     99  N          7.1180    6.1430   17.4860 N.3   107  ASP107     -0.1239
    100  CA         6.0760    5.1230   17.3980 C.3   107  ASP107      0.1674
    101  C          5.0760    5.4350   16.2880 C.2   107  ASP107      0.2266
    102  O          4.3950    4.5380   15.8070 O.2   107  ASP107     -0.2867
    103  CB         5.4080    4.9290   18.7560 C.3   107  ASP107      0.1410
    104  CG         6.3880    4.4220   19.8020 C.2   107  ASP107      0.3668
    105  OD1        7.1810    3.5070   19.4900 O.co2 107  ASP107     -0.2456
    106  OD2        6.3970    4.9540   20.9220 O.co2 107  ASP107     -0.2456
    107  N          7.7670   14.6260   21.0170 N.3   149  LEU149     -0.1245
    108  CA         6.4680   14.2100   21.5480 C.3   149  LEU149      0.1561
    109  C          5.3440   15.0500   20.9510 C.2   149  LEU149      0.2260
    110  O          5.5560   16.2060   20.5740 O.2   149  LEU149     -0.2867
    111  CB         6.4490   14.3520   23.0740 C.3   149  LEU149      0.0270
    112  CG         7.5040   13.5430   23.8280 C.3   149  LEU149      0.0019
    113  CD1        7.4640   13.8860   25.3060 C.3   149  LEU149      0.0001
    114  CD2        7.2980   12.0510   23.6270 C.3   149  LEU149      0.0001
    115  N         11.8640   17.0170   23.8290 N.3   159  SER159     -0.1202
    116  CA        12.0510   16.3650   25.1180 C.3   159  SER159      0.2020
    117  C         13.4720   15.7810   25.1850 C.2   159  SER159      0.2618
    118  O         14.2980   16.0620   24.3120 O.2   159  SER159     -0.2717
    119  CB        11.0110   15.2430   25.2640 C.3   159  SER159      0.2103
    120  OG        10.9230   14.8020   26.6060 O.3   159  SER159     -0.2182
    121  N         13.7400   14.9750   26.2200 N.am  160  ASP160     -0.1973
    122  CA        14.9640   14.1660   26.3420 C.3   160  ASP160      0.1709
    123  C         16.2150   15.0250   26.4290 C.2   160  ASP160      0.2293
    124  O         17.1160   14.9370   25.5920 O.2   160  ASP160     -0.2864
    125  CB        15.0910   13.1560   25.1930 C.3   160  ASP160      0.1436
    126  CG        14.3490   11.8640   25.4560 C.2   160  ASP160      0.3671
    127  OD1       13.2610   11.8940   26.0720 O.co2 160  ASP160     -0.2456
    128  OD2       14.8580   10.8090   25.0250 O.co2 160  ASP160     -0.2456
@<TRIPOS>BOND
     1   102   101    2
     2   101   100    1
     3   100    99    1
     4   100   103    1
     5    97    96    2
     6   103   104    1
     7    96    95    1
     8   105   104   ar
     9   104   106   ar
    10    89    88    2
    11   110   109    2
    12    95    98    1
    13    95    94    1
    14   109   108    1
    15   107   108    1
    16    87    88    1
    17    87    86    1
    18    88    90   am
    19    93    92    2
    20    94    92   am
    21   108   111    1
    22    92    91    1
    23    90    91    1
    24    86    79   am
    25   111   112    1
    26    80    79    2
    27    79    78    1
    28   114   112    1
    29   112   113    1
    30   115   116    1
    31   118   117    2
    32    78    81    1
    33    78    77    1
    34    81    82    1
    35   128   126   ar
    36    82    83    1
    37    72    71    2
    38   116   117    1
    39   116   119    1
    40    77    71   am
    41   117   121   am
    42   125   126    1
    43   125   122    1
    44   119   120    1
    45    71    70    1
    46    73    74    1
    47    73    70    1
    48    76    74    1
    49   126   127   ar
    50   124   123    2
    51    75    74    1
    52    70    69    1
    53    83    84    2
    54    83    85   am
    55    34    35    1
    56   121   122    1
    57    40    38    1
    58   122   123    1
    59     4     3    2
    60    35    38    1
    61    35    36    1
    62    69    60   am
    63    38    39    1
    64    56    55   ar
    65    57    55   ar
    66    61    60    2
    67    55    54    1
    68    10     9    1
    69    10    11    1
    70    60    59    1
    71     3     9   am
    72     3     2    1
    73    68    67   ar
    74    68    66   ar
    75    36    37    2
    76    67    65   ar
    77    66    64   ar
    78    11    12    2
    79    54    53    1
    80     5     2    1
    81     5     7    1
    82     5     6    1
    83     2     1    1
    84    65    63   ar
    85    64    63   ar
    86     8     6    1
    87    18    17    1
    88    63    62    1
    89    59    62    1
    90    59    58    1
    91    52    51    2
    92    53    50    1
    93    51    58   am
    94    51    50    1
    95    33    32    1
    96    17    19    1
    97    17    14    1
    98    50    49    1
    99    32    31    1
   100    24    21    1
   101    47    48    1
   102    47    46    1
   103    16    15    2
   104    49    43   am
   105    31    30    1
   106    13    14    1
   107    14    15    1
   108    45    46    1
   109    45    42    1
   110    43    44    2
   111    43    42    1
   112    21    20    1
   113    21    22    1
   114    30    29    1
   115    42    41    1
   116    29    26    1
   117    22    23    2
   118    26    25    1
   119    26    27    1
   120    27    28    2
