@<TRIPOS>MOLECULE
tmp/4ksgA00.pdb
 144 135 0 0 0
SMALL
GASTEIGER

@<TRIPOS>ATOM
      1  N         12.6960    4.1530   10.5530 N.3    28  ILE28      -0.1245
      2  CA        13.0000    2.7270   10.3840 C.3    28  ILE28       0.1561
      3  C         14.0360    2.2610   11.4150 C.2    28  ILE28       0.2260
      4  O         13.8260    1.2590   12.1050 O.2    28  ILE28      -0.2867
      5  CB        13.4570    2.3800    8.9490 C.3    28  ILE28       0.0252
      6  CG1       12.3710    2.7680    7.9240 C.3    28  ILE28       0.0019
      7  CG2       13.8050    0.8900    8.8450 C.3    28  ILE28       0.0019
      8  CD1       11.0210    2.0840    8.1240 C.3    28  ILE28       0.0001
      9  N         12.9450    1.3600   14.9570 N.3    31  ASN31      -0.1225
     10  CA        12.4420    0.0010   15.1530 C.3    31  ASN31       0.1785
     11  C         13.5640   -0.9860   15.4880 C.2    31  ASN31       0.2597
     12  O         13.4110   -1.8250   16.3770 O.2    31  ASN31      -0.2718
     13  CB        11.6570   -0.4770   13.9320 C.3    31  ASN31       0.1169
     14  CG        10.3040    0.1980   13.8040 C.2    31  ASN31       0.2627
     15  OD1        9.3580   -0.1580   14.4960 O.2    31  ASN31      -0.2716
     16  ND2       10.2040    1.1610   12.9030 N.am   31  ASN31      -0.0877
     17  N         14.6920   -0.8770   14.7840 N.am   32  SER32      -0.1952
     18  CA        15.8470   -1.7410   15.0520 C.3    32  SER32       0.1924
     19  C         16.4210   -1.4670   16.4390 C.2    32  SER32       0.2314
     20  O         16.8160   -2.3940   17.1530 O.2    32  SER32      -0.2863
     21  CB        16.9170   -1.5550   13.9800 C.3    32  SER32       0.2116
     22  OG        16.4010   -1.9310   12.7160 O.3    32  SER32      -0.2180
     23  N         14.6660   -0.4490   18.9880 N.3    34  ASP34      -0.1225
     24  CA        13.7390   -1.0620   19.9520 C.3    34  ASP34       0.1805
     25  C         14.0420   -2.5490   20.1420 C.2    34  ASP34       0.2597
     26  O         13.9110   -3.0830   21.2420 O.2    34  ASP34      -0.2718
     27  CB        12.2710   -0.8550   19.5500 C.3    34  ASP34       0.1424
     28  CG        11.6990    0.4810   20.0430 C.2    34  ASP34       0.3668
     29  OD1       10.5470    0.7880   19.6960 O.co2  34  ASP34      -0.2456
     30  OD2       12.3810    1.2290   20.7700 O.co2  34  ASP34      -0.2456
     31  N         14.4540   -3.2040   19.0610 N.am   35  GLU35      -0.1979
     32  CA        14.7790   -4.6300   19.0960 C.3    35  GLU35       0.1602
     33  C         16.1400   -4.8730   19.7680 C.2    35  GLU35       0.2287
     34  O         16.3840   -5.9520   20.3350 O.2    35  GLU35      -0.2864
     35  CB        14.6990   -5.2220   17.6790 C.3    35  GLU35       0.0415
     36  CG        14.9570   -6.7260   17.5610 C.3    35  GLU35       0.1163
     37  CD        13.9670   -7.6060   18.3230 C.2    35  GLU35       0.3649
     38  OE1       13.0600   -7.0970   19.0240 O.co2  35  GLU35      -0.2457
     39  OE2       14.1010   -8.8360   18.2230 O.co2  35  GLU35      -0.2457
     40  N         18.0700   -0.7960    5.7050 N.3    56  VAL56      -0.1231
     41  CA        18.3700   -0.9310    7.1390 C.3    56  VAL56       0.1692
     42  C         18.2980   -2.4100    7.5080 C.2    56  VAL56       0.2592
     43  O         17.2900   -3.0720    7.2500 O.2    56  VAL56      -0.2718
     44  CB        17.4070   -0.1110    8.0240 C.3    56  VAL56       0.0266
     45  CG1       17.7820   -0.2550    9.4950 C.3    56  VAL56       0.0020
     46  CG2       17.4310    1.3660    7.6320 C.3    56  VAL56       0.0020
     47  N         19.3820   -2.9220    8.0920 N.am   57  ILE57      -0.1966
     48  CA        19.5090   -4.3480    8.4150 C.3    57  ILE57       0.1727
     49  C         19.7400   -4.4710    9.9130 C.2    57  ILE57       0.2616
     50  O         20.6390   -3.8270   10.4470 O.2    57  ILE57      -0.2715
     51  CB        20.7220   -4.9830    7.6820 C.3    57  ILE57       0.0290
     52  CG1       20.5530   -4.8740    6.1530 C.3    57  ILE57       0.0022
     53  CG2       20.9190   -6.4480    8.0860 C.3    57  ILE57       0.0023
     54  CD1       21.8200   -5.1770    5.3730 C.3    57  ILE57       0.0001
     55  N         18.9430   -5.2960   10.5920 N.am   58  ASP58      -0.1971
     56  CA        19.2770   -5.6590   11.9720 C.3    58  ASP58       0.1709
     57  C         19.3450   -7.1730   12.1050 C.2    58  ASP58       0.2293
     58  O         18.9030   -7.9060   11.2090 O.2    58  ASP58      -0.2864
     59  CB        18.3310   -5.0050   13.0160 C.3    58  ASP58       0.1436
     60  CG        16.9230   -5.6320   13.0620 C.2    58  ASP58       0.3671
     61  OD1       15.9410   -4.8640   13.0280 O.co2  58  ASP58      -0.2456
     62  OD2       16.7880   -6.8740   13.1580 O.co2  58  ASP58      -0.2456
     63  N         15.2630  -10.6540   16.2670 N.3    61  ARG61      -0.1231
     64  CA        14.4520  -11.8490   16.1450 C.3    61  ARG61       0.1694
     65  C         13.7450  -11.9420   14.8080 C.2    61  ARG61       0.2593
     66  O         13.4430  -12.9870   14.3460 O.2    61  ARG61      -0.2718
     67  CB        13.4280  -11.9030   17.2390 C.3    61  ARG61       0.0321
     68  CG        13.9580  -12.2010   18.6210 C.3    61  ARG61       0.0489
     69  CD        12.9050  -11.9300   19.6800 C.3    61  ARG61       0.2205
     70  NE        12.5550  -10.5360   19.8430 N.pl3  61  ARG61      -0.0865
     71  CZ        11.6600  -10.0790   20.7100 C.cat  61  ARG61       0.5346
     72  NH1       11.4300   -8.8040   20.8270 N.pl3  61  ARG61       0.1354
     73  NH2       10.9670  -10.9120   21.4500 N.pl3  61  ARG61       0.1354
     74  N         13.4920  -10.7920   14.2220 N.am   62  GLY62      -0.1942
     75  CA        12.6490  -10.6930   13.0380 C.3    62  GLY62       0.2014
     76  C         11.2080  -10.3320   13.3660 C.2    62  GLY62       0.2639
     77  O         10.6850  -10.8460   14.2770 O.2    62  GLY62      -0.2714
     78  N         10.6300   -9.4160   12.6050 N.am   63  ILE63      -0.1963
     79  CA         9.2290   -9.0250   12.8440 C.3    63  ILE63       0.1712
     80  C          8.3530  -10.2790   12.8940 C.2    63  ILE63       0.2458
     81  O          8.5200  -11.1670   12.0600 O.2    63  ILE63      -0.2730
     82  CB         8.6790   -8.0780   11.7460 C.3    63  ILE63       0.0289
     83  CG1        9.6210   -6.8870   11.5190 C.3    63  ILE63       0.0022
     84  CG2        7.2890   -7.5670   12.1240 C.3    63  ILE63       0.0023
     85  CD1        9.2680   -6.0330   10.3090 C.3    63  ILE63       0.0001
     86  N          7.4280  -10.3610   13.8750 N.am   64  PRO64      -0.2727
     87  CA         6.5080  -11.5030   13.9080 C.3    64  PRO64       0.1402
     88  C          5.7820  -11.6650   12.5720 C.2    64  PRO64       0.2269
     89  O          5.3680  -10.6700   11.9570 O.2    64  PRO64      -0.2865
     90  CB         5.5380  -11.1360   15.0390 C.3    64  PRO64       0.0296
     91  CG         6.3650  -10.2950   15.9580 C.3    64  PRO64       0.0237
     92  CD         7.2370   -9.4760   15.0380 C.3    64  PRO64       0.0939
     93  N          1.3810  -10.2100   11.1590 N.3    75  ALA75      -0.1245
     94  CA         1.7870   -9.0380   11.9390 C.3    75  ALA75       0.1562
     95  C          2.6950   -8.1040   11.1330 C.2    75  ALA75       0.2260
     96  O          2.5310   -6.8840   11.1720 O.2    75  ALA75      -0.2867
     97  CB         2.4590   -9.4610   13.2410 C.3    75  ALA75       0.0290
     98  N          2.4360   -3.9360   10.3020 N.3    79  VAL79      -0.1231
     99  CA         3.5200   -3.0050   10.6440 C.3    79  VAL79       0.1692
    100  C          3.6730   -1.9280    9.5680 C.2    79  VAL79       0.2592
    101  O          3.9280   -0.7650    9.8760 O.2    79  VAL79      -0.2718
    102  CB         4.8570   -3.7660   10.8590 C.3    79  VAL79       0.0266
    103  CG1        6.0670   -2.8400   10.7610 C.3    79  VAL79       0.0020
    104  CG2        4.8500   -4.4730   12.2130 C.3    79  VAL79       0.0020
    105  N          3.4880   -2.3100    8.3090 N.am   80  PHE80      -0.1976
    106  CA         3.7410   -1.3850    7.2120 C.3    80  PHE80       0.1639
    107  C          2.5030   -0.7740    6.5740 C.2    80  PHE80       0.2290
    108  O          2.6150    0.1820    5.8220 O.2    80  PHE80      -0.2864
    109  CB         4.6260   -2.0540    6.1560 C.3    80  PHE80       0.0560
    110  CG         5.9890   -2.4100    6.6800 C.ar   80  PHE80      -0.0200
    111  CD1        6.9470   -1.4150    6.8990 C.ar   80  PHE80      -0.0042
    112  CD2        6.2960   -3.7270    7.0080 C.ar   80  PHE80      -0.0042
    113  CE1        8.1990   -1.7410    7.3970 C.ar   80  PHE80      -0.0003
    114  CE2        7.5430   -4.0580    7.5150 C.ar   80  PHE80      -0.0003
    115  CZ         8.4950   -3.0630    7.7070 C.ar   80  PHE80      -0.0000
    116  N          6.7930    3.1640   10.8520 N.3    85  SER85      -0.1217
    117  CA         7.1250    2.2940    9.7150 C.3    85  SER85       0.1889
    118  C          6.1030    2.3900    8.5730 C.2    85  SER85       0.2288
    119  O          6.4760    2.3600    7.3950 O.2    85  SER85      -0.2866
    120  CB         7.2650    0.8480   10.1860 C.3    85  SER85       0.2089
    121  OG         6.1590    0.4900   10.9920 O.3    85  SER85      -0.2183
    122  N         13.7600  -15.6660    9.9690 N.3   101  LYS101     -0.1245
    123  CA        13.1440  -16.2250   11.1700 C.3   101  LYS101      0.1561
    124  C         12.8880  -17.7160   10.9480 C.2   101  LYS101      0.2260
    125  O         12.3910  -18.1130    9.8920 O.2   101  LYS101     -0.2867
    126  CB        11.8120  -15.4960   11.4480 C.3   101  LYS101      0.0271
    127  CG        11.2680  -15.5610   12.8690 C.3   101  LYS101      0.0035
    128  CD        10.1290  -14.5540   13.0150 C.3   101  LYS101      0.0206
    129  CE         9.6740  -14.3640   14.4580 C.3   101  LYS101      0.1093
    130  NZ        10.5850  -13.5200   15.2660 N.3   101  LYS101     -0.1314
    131  N         15.6770   -8.4890   10.6790 N.3   130  THR130     -0.1218
    132  CA        14.7850   -7.8030    9.7420 C.3   130  THR130      0.1862
    133  C         15.5920   -6.8670    8.8430 C.2   130  THR130      0.2287
    134  O         16.4680   -6.1370    9.3140 O.2   130  THR130     -0.2866
    135  CB        13.7220   -6.9900   10.5070 C.3   130  THR130      0.1770
    136  OG1       13.0200   -7.8480   11.4140 O.3   130  THR130     -0.2211
    137  CG2       12.7100   -6.3530    9.5560 C.3   130  THR130      0.0375
    138  N         14.8190   -3.9010    5.9480 N.3   132  VAL132     -0.1245
    139  CA        13.8540   -3.0320    5.2690 C.3   132  VAL132      0.1561
    140  C         14.6010   -2.1510    4.2860 C.2   132  VAL132      0.2260
    141  O         15.5870   -1.5040    4.6460 O.2   132  VAL132     -0.2867
    142  CB        13.0730   -2.1390    6.2630 C.3   132  VAL132      0.0252
    143  CG1       12.3270   -1.0140    5.5440 C.3   132  VAL132      0.0019
    144  CG2       12.1080   -2.9890    7.0750 C.3   132  VAL132      0.0019
@<TRIPOS>BOND
     1   140   141    2
     2   140   139    1
     3   139   138    1
     4   139   142    1
     5    54    52    1
     6   143   142    1
     7    40    41    1
     8   108   107    2
     9    52    51    1
    10   109   110    1
    11   109   106    1
    12   142   144    1
    13   107   106    1
    14   110   111   ar
    15   110   112   ar
    16   111   113   ar
    17   112   114   ar
    18    41    42    1
    19    41    44    1
    20   106   105    1
    21    43    42    2
    22   119   118    2
    23   113   115   ar
    24    42    47   am
    25   114   115   ar
    26    46    44    1
    27    51    53    1
    28    51    48    1
    29     6     8    1
    30     6     5    1
    31    44    45    1
    32    47    48    1
    33   105   100   am
    34    48    49    1
    35   118   117    1
    36   133   134    2
    37   133   132    1
    38     7     5    1
    39     5     2    1
    40   137   135    1
    41   100   101    2
    42   100    99    1
    43   117   120    1
    44   117   116    1
    45   132   135    1
    46   132   131    1
    47   125   124    2
    48    49    50    2
    49    49    55   am
    50   122   123    1
    51   120   121    1
    52    98    99    1
    53    85    83    1
    54     2     1    1
    55     2     3    1
    56   135   136    1
    57    55    56    1
    58    99   102    1
    59   103   102    1
    60   102   104    1
    61   124   123    1
    62    95    96    2
    63    95    94    1
    64    93    94    1
    65   123   126    1
    66    58    57    2
    67     3     4    2
    68   126   127    1
    69    83    82    1
    70    82    84    1
    71    82    79    1
    72    94    97    1
    73    89    88    2
    74    56    57    1
    75    56    59    1
    76    81    80    2
    77    88    87    1
    78    78    79    1
    79    78    76   am
    80    22    21    1
    81    79    80    1
    82   127   128    1
    83    80    86   am
    84    16    14   am
    85   128   129    1
    86    59    60    1
    87    61    60   ar
    88    75    76    1
    89    75    74    1
    90    60    62   ar
    91    76    77    2
    92    14    13    1
    93    14    15    2
    94    86    87    1
    95    86    92    1
    96    87    90    1
    97    13    10    1
    98    21    18    1
    99    74    65   am
   100    66    65    2
   101   129   130    1
   102    17    18    1
   103    17    11   am
   104    65    64    1
   105     9    10    1
   106    92    91    1
   107    90    91    1
   108    18    19    1
   109    10    11    1
   110    11    12    2
   111    64    63    1
   112    64    67    1
   113    19    20    2
   114    67    68    1
   115    36    35    1
   116    36    37    1
   117    35    32    1
   118    39    37   ar
   119    37    38   ar
   120    68    69    1
   121    23    24    1
   122    31    32    1
   123    31    25   am
   124    32    33    1
   125    27    24    1
   126    27    28    1
   127    69    70    1
   128    29    28   ar
   129    33    34    2
   130    70    71    2
   131    24    25    1
   132    28    30   ar
   133    25    26    2
   134    71    72    1
   135    71    73    1
