@<TRIPOS>MOLECULE
tmp/4ksiA00.pdb
 102 94 0 0 0
SMALL
GASTEIGER

@<TRIPOS>ATOM
      1  N         36.4620  -42.4520   20.2960 N.3   106  PRO106     -0.2116
      2  CA        36.1710  -43.7710   19.7240 C.3   106  PRO106      0.1372
      3  C         37.1510  -44.9190   20.1680 C.2   106  PRO106      0.2244
      4  O         36.9800  -46.0460   19.7200 O.2   106  PRO106     -0.2868
      5  CB        36.3770  -43.5140   18.2320 C.3   106  PRO106      0.0268
      6  CG        37.5420  -42.5660   18.1990 C.3   106  PRO106      0.0207
      7  CD        37.4050  -41.6920   19.4410 C.3   106  PRO106      0.0892
      8  N         37.2420  -48.8810   19.0720 N.3   110  HIS110     -0.1241
      9  CA        38.3920  -49.4610   18.3290 C.3   110  HIS110      0.1621
     10  C         38.8780  -50.7420   18.9770 C.2   110  HIS110      0.2264
     11  O         39.0460  -51.7650   18.2880 O.2   110  HIS110     -0.2867
     12  CB        39.5810  -48.4870   18.1780 C.3   110  HIS110      0.0745
     13  CG        39.2980  -47.3320   17.2550 C.ar  110  HIS110      0.0817
     14  ND1       39.9060  -46.1180   17.3830 N.ar  110  HIS110     -0.2268
     15  CD2       38.3700  -47.1960   16.1950 C.ar  110  HIS110      0.1154
     16  CE1       39.4120  -45.2660   16.4610 C.ar  110  HIS110      0.1986
     17  NE2       38.4900  -45.9260   15.7210 N.ar  110  HIS110     -0.2212
     18  N         28.6780  -43.3510   15.6340 N.3   145  ASN145     -0.1240
     19  CA        30.1210  -43.2030   15.7890 C.3   145  ASN145      0.1653
     20  C         30.7390  -44.4360   16.4380 C.2   145  ASN145      0.2266
     21  O         31.8250  -44.8560   16.0570 O.2   145  ASN145     -0.2867
     22  CB        30.5120  -41.9150   16.5560 C.3   145  ASN145      0.1155
     23  CG        30.2300  -40.6490   15.7270 C.2   145  ASN145      0.2627
     24  OD1       30.0840  -40.7020   14.5070 O.2   145  ASN145     -0.2716
     25  ND2       30.1600  -39.5080   16.3980 N.am  145  ASN145     -0.0877
     26  N         30.9830  -47.0960   13.6420 N.3   148  SER148     -0.1202
     27  CA        32.0570  -47.0240   12.6730 C.3   148  SER148      0.2020
     28  C         33.4290  -47.2420   13.3170 C.2   148  SER148      0.2618
     29  O         34.3440  -47.7090   12.6590 O.2   148  SER148     -0.2717
     30  CB        32.0610  -45.7060   11.9020 C.3   148  SER148      0.2103
     31  OG        32.2990  -44.6610   12.7800 O.3   148  SER148     -0.2182
     32  N         33.5490  -46.9440   14.6020 N.am  149  ALA149     -0.1979
     33  CA        34.7830  -47.2180   15.3170 C.3   149  ALA149      0.1597
     34  C         34.9150  -48.7320   15.5200 C.2   149  ALA149      0.2287
     35  O         36.0310  -49.2790   15.4110 O.2   149  ALA149     -0.2864
     36  CB        34.8550  -46.4510   16.6400 C.3   149  ALA149      0.0319
     37  N         36.1390  -50.1180   12.2050 N.3   152  THR152     -0.1218
     38  CA        37.5990  -49.8140   12.1620 C.3   152  THR152      0.1862
     39  C         38.4680  -50.8250   12.9730 C.2   152  THR152      0.2287
     40  O         39.4770  -51.3480   12.4400 O.2   152  THR152     -0.2866
     41  CB        37.8950  -48.3580   12.5820 C.3   152  THR152      0.1770
     42  OG1       37.2110  -47.4830   11.6950 O.3   152  THR152     -0.2211
     43  CG2       39.3660  -48.0310   12.4880 C.3   152  THR152      0.0375
     44  N         28.5020  -43.8020    7.5050 N.3   190  LYS190     -0.1245
     45  CA        29.5940  -43.6650    8.4290 C.3   190  LYS190      0.1561
     46  C         30.5090  -44.9080    8.4580 C.2   190  LYS190      0.2260
     47  O         31.7360  -44.7990    8.5520 O.2   190  LYS190     -0.2867
     48  CB        29.0580  -43.3510    9.7990 C.3   190  LYS190      0.0271
     49  CG        30.1210  -42.8200   10.7100 C.3   190  LYS190      0.0035
     50  CD        30.2560  -41.3110   10.5310 C.3   190  LYS190      0.0206
     51  CE        31.4890  -40.8630   11.3320 C.3   190  LYS190      0.1093
     52  NZ        31.6720  -39.3710   11.3420 N.3   190  LYS190     -0.1314
     53  N         32.6090  -44.7150    5.2760 N.3   193  TYR193     -0.1227
     54  CA        33.6670  -43.7460    5.5570 C.3   193  TYR193      0.1736
     55  C         34.8620  -44.3890    6.3250 C.2   193  TYR193      0.2595
     56  O         36.0180  -44.2730    5.9100 O.2   193  TYR193     -0.2718
     57  CB        33.0820  -42.5360    6.3100 C.3   193  TYR193      0.0548
     58  CG        34.1360  -41.6990    6.9800 C.ar  193  TYR193     -0.0200
     59  CD1       34.9950  -40.8800    6.2250 C.ar  193  TYR193     -0.0009
     60  CD2       34.2780  -41.7120    8.3750 C.ar  193  TYR193     -0.0009
     61  CE1       35.9360  -40.0920    6.8550 C.ar  193  TYR193      0.0417
     62  CE2       35.2490  -40.9270    9.0060 C.ar  193  TYR193      0.0417
     63  CZ        36.0760  -40.1370    8.2360 C.ar  193  TYR193      0.1957
     64  OH        37.0260  -39.3630    8.8520 O.3   193  TYR193     -0.2866
     65  N         34.5580  -45.1270    7.3940 N.am  194  ALA194     -0.1980
     66  CA        35.5970  -45.8060    8.1770 C.3   194  ALA194      0.1597
     67  C         36.3460  -46.7940    7.2670 C.2   194  ALA194      0.2287
     68  O         37.5750  -46.9690    7.4000 O.2   194  ALA194     -0.2864
     69  CB        34.9770  -46.5890    9.3480 C.3   194  ALA194      0.0319
     70  N         38.8690  -44.8870    5.2020 N.3   197  VAL197     -0.1245
     71  CA        39.9970  -44.5590    6.0730 C.3   197  VAL197      0.1561
     72  C         40.8720  -45.8160    6.3200 C.2   197  VAL197      0.2260
     73  O         42.0910  -45.7450    6.1440 O.2   197  VAL197     -0.2867
     74  CB        39.5110  -43.9060    7.4020 C.3   197  VAL197      0.0252
     75  CG1       40.6950  -43.6780    8.3550 C.3   197  VAL197      0.0019
     76  CG2       38.7850  -42.5820    7.1060 C.3   197  VAL197      0.0019
     77  N         38.6020  -36.7930   17.3160 N.3   433  ALA433     -0.1231
     78  CA        37.6280  -37.5270   16.5290 C.3   433  ALA433      0.1694
     79  C         38.2300  -38.8420   16.0100 C.2   433  ALA433      0.2592
     80  O         37.5360  -39.8300   15.9200 O.2   433  ALA433     -0.2718
     81  CB        37.1030  -36.6810   15.3390 C.3   433  ALA433      0.0304
     82  N         39.5100  -38.8530   15.6540 N.am  434  SER434     -0.1952
     83  CA        40.1010  -40.0550   15.0500 C.3   434  SER434      0.1924
     84  C         40.5050  -41.0620   16.1280 C.2   434  SER434      0.2314
     85  O         40.6820  -42.2500   15.8430 O.2   434  SER434     -0.2863
     86  CB        41.3120  -39.7230   14.1710 C.3   434  SER434      0.2116
     87  OG        42.3960  -39.2660   14.9910 O.3   434  SER434     -0.2180
     88  N         44.2200  -41.4450    9.7870 N.3   508  SER508     -0.1217
     89  CA        42.8310  -41.1260   10.1340 C.3   508  SER508      0.1889
     90  C         42.7700  -39.6740   10.6360 C.2   508  SER508      0.2288
     91  O         41.8200  -38.9520   10.3440 O.2   508  SER508     -0.2866
     92  CB        42.2590  -42.0840   11.1870 C.3   508  SER508      0.2089
     93  OG        43.1690  -42.1900   12.2900 O.3   508  SER508     -0.2183
     94  N         40.4440  -36.6670    8.9720 N.3   512  GLU512     -0.1245
     95  CA        39.4890  -35.8650    9.7470 C.3   512  GLU512      0.1567
     96  C         39.7870  -34.3730    9.5930 C.2   512  GLU512      0.2260
     97  O         38.8710  -33.5670    9.4740 O.2   512  GLU512     -0.2867
     98  CB        39.5140  -36.1930   11.2440 C.3   512  GLU512      0.0388
     99  CG        38.9440  -37.5300   11.5600 C.3   512  GLU512      0.1160
    100  CD        37.3930  -37.5110   11.5150 C.2   512  GLU512      0.3649
    101  OE1       36.7350  -36.4560   11.6800 O.co2 512  GLU512     -0.2457
    102  OE2       36.8150  -38.5850   11.2860 O.co2 512  GLU512     -0.2457
@<TRIPOS>BOND
     1    70    71    1
     2    53    54    1
     3    54    57    1
     4    54    55    1
     5    56    55    2
     6    71    72    1
     7    71    74    1
     8    73    72    2
     9    59    61   ar
    10    59    58   ar
    11    57    58    1
    12    55    65   am
    13    61    63   ar
    14    58    60   ar
    15    76    74    1
    16    67    68    2
    17    67    66    1
    18    65    66    1
    19    74    75    1
    20    44    45    1
    21    66    69    1
    22    63    64    1
    23    63    62   ar
    24    60    62   ar
    25    45    46    1
    26    45    48    1
    27    46    47    2
    28    94    95    1
    29    97    96    2
    30    96    95    1
    31    95    98    1
    32    88    89    1
    33    48    49    1
    34    89    90    1
    35    89    92    1
    36    91    90    2
    37    50    49    1
    38    50    51    1
    39    92    93    1
    40    98    99    1
    41   102   100   ar
    42    51    52    1
    43   100    99    1
    44   100   101   ar
    45    42    41    1
    46    30    27    1
    47    30    31    1
    48    38    37    1
    49    38    41    1
    50    38    39    1
    51    40    39    2
    52    43    41    1
    53    29    28    2
    54    27    28    1
    55    27    26    1
    56    28    32   am
    57    86    87    1
    58    86    83    1
    59    24    23    2
    60    32    33    1
    61    83    82    1
    62    83    84    1
    63    33    34    1
    64    33    36    1
    65    81    78    1
    66    35    34    2
    67    18    19    1
    68    82    79   am
    69    17    15   ar
    70    17    16   ar
    71    23    25   am
    72    23    22    1
    73    19    20    1
    74    19    22    1
    75    85    84    2
    76    80    79    2
    77    79    78    1
    78    21    20    2
    79    15    13   ar
    80    16    14   ar
    81    78    77    1
    82    13    14   ar
    83    13    12    1
    84    12     9    1
    85     6     5    1
    86     6     7    1
    87     5     2    1
    88    11    10    2
    89     9    10    1
    90     9     8    1
    91     7     1    1
    92     4     3    2
    93     2     3    1
    94     2     1    1
