@<TRIPOS>MOLECULE
tmp/4ksmA00.pdb
 111 109 0 0 0
SMALL
GASTEIGER

@<TRIPOS>ATOM
      1  N          4.9730    1.2370    5.1800 N.3     7  TYR7       -0.1241
      2  CA         5.9410    2.2800    4.8640 C.3     7  TYR7        0.1605
      3  C          6.9270    2.2620    6.0240 C.2     7  TYR7        0.2264
      4  O          6.5230    2.1220    7.1850 O.2     7  TYR7       -0.2867
      5  CB         5.2870    3.6600    4.8480 C.3     7  TYR7        0.0534
      6  CG         4.1650    3.8560    3.8650 C.ar    7  TYR7       -0.0201
      7  CD1        4.3040    3.4970    2.5360 C.ar    7  TYR7       -0.0009
      8  CD2        2.9650    4.4100    4.2720 C.ar    7  TYR7       -0.0009
      9  CE1        3.2770    3.6880    1.6310 C.ar    7  TYR7        0.0417
     10  CE2        1.9340    4.6120    3.3820 C.ar    7  TYR7        0.0417
     11  CZ         2.0920    4.2480    2.0610 C.ar    7  TYR7        0.1957
     12  OH         1.0590    4.4550    1.1780 O.3     7  TYR7       -0.2866
     13  N          8.6740    4.6360    7.4180 N.3     9  HIS9       -0.1226
     14  CA         8.7360    5.8080    8.2820 C.3     9  HIS9        0.1752
     15  C          7.4970    5.9780    9.1450 C.2     9  HIS9        0.2597
     16  O          7.5260    6.6840   10.1510 O.2     9  HIS9       -0.2718
     17  CB         8.8860    7.0490    7.4190 C.3     9  HIS9        0.0759
     18  CG         7.6400    7.4020    6.6740 C.ar    9  HIS9        0.0818
     19  ND1        7.4180    7.0040    5.3750 N.ar    9  HIS9       -0.2268
     20  CD2        6.5420    8.0900    7.0520 C.ar    9  HIS9        0.1154
     21  CE1        6.2350    7.4420    4.9840 C.ar    9  HIS9        0.1986
     22  NE2        5.6780    8.0990    5.9820 N.ar    9  HIS9       -0.2212
     23  N          6.4040    5.3470    8.7300 N.am   10  SER10      -0.1938
     24  CA         5.0950    5.5830    9.3280 C.3    10  SER10       0.2040
     25  C          4.9250    4.8700   10.6780 C.2    10  SER10       0.2485
     26  O          5.1940    3.6660   10.7820 O.2    10  SER10      -0.2729
     27  CB         3.9900    5.1450    8.3580 C.3    10  SER10       0.2129
     28  OG         2.7100    5.5450    8.8310 O.3    10  SER10      -0.2179
     29  N          4.4480    5.6120   11.7040 N.am   11  PRO11      -0.2715
     30  CA         4.2210    5.0930   13.0550 C.3    11  PRO11       0.1536
     31  C          3.2290    3.9430   13.0320 C.2    11  PRO11       0.2598
     32  O          3.3750    2.9710   13.7760 O.2    11  PRO11      -0.2715
     33  CB         3.5840    6.2830   13.7890 C.3    11  PRO11       0.0310
     34  CG         3.9440    7.4810   13.0080 C.3    11  PRO11       0.0237
     35  CD         4.0350    7.0220   11.5840 C.3    11  PRO11       0.0939
     36  N          2.2140    4.0680   12.1820 N.am   12  TYR12      -0.1974
     37  CA         1.1620    3.0670   12.1090 C.3    12  TYR12       0.1639
     38  C          1.7010    1.7170   11.6440 C.2    12  TYR12       0.2290
     39  O          1.2610    0.6730   12.1190 O.2    12  TYR12      -0.2864
     40  CB        -0.0030    3.5650   11.2450 C.3    12  TYR12       0.0560
     41  CG        -0.7600    4.7230   11.8820 C.ar   12  TYR12      -0.0198
     42  CD1       -1.4540    4.5520   13.0760 C.ar   12  TYR12      -0.0009
     43  CD2       -0.7740    5.9830   11.2970 C.ar   12  TYR12      -0.0009
     44  CE1       -2.1350    5.6030   13.6660 C.ar   12  TYR12       0.0417
     45  CE2       -1.4660    7.0340   11.8700 C.ar   12  TYR12       0.0417
     46  CZ        -2.1360    6.8410   13.0580 C.ar   12  TYR12       0.1957
     47  OH        -2.8200    7.8840   13.6490 O.3    12  TYR12      -0.2866
     48  N          5.1530    5.2420   -1.7250 N.3    34  ASN34      -0.1240
     49  CA         4.2110    6.1400   -1.0550 C.3    34  ASN34       0.1653
     50  C          3.0430    6.5400   -1.9620 C.2    34  ASN34       0.2266
     51  O          1.9240    6.7250   -1.4910 O.2    34  ASN34      -0.2867
     52  CB         4.9470    7.3770   -0.4970 C.3    34  ASN34       0.1155
     53  CG         4.0830    8.2220    0.4530 C.2    34  ASN34       0.2627
     54  OD1        3.5870    9.2830    0.0840 O.2    34  ASN34      -0.2716
     55  ND2        3.9320    7.7610    1.6840 N.am   34  ASN34      -0.0877
     56  N          5.6750   16.2740   14.2250 N.3    99  ASN99      -0.1240
     57  CA         5.6390   16.2530   12.7730 C.3    99  ASN99       0.1653
     58  C          6.2250   17.5060   12.1440 C.2    99  ASN99       0.2266
     59  O          6.5740   17.4910   10.9690 O.2    99  ASN99      -0.2867
     60  CB         4.2260   15.9980   12.2550 C.3    99  ASN99       0.1155
     61  CG         3.8620   14.5360   12.2690 C.2    99  ASN99       0.2627
     62  OD1        4.7070   13.6730   12.4830 O.2    99  ASN99      -0.2716
     63  ND2        2.5970   14.2480   12.0270 N.am   99  ASN99      -0.0877
     64  N          8.2350   15.1870    9.4720 N.3   103  LEU103     -0.1245
     65  CA         7.7810   15.2430    8.0670 C.3   103  LEU103      0.1561
     66  C          8.8280   15.8310    7.0900 C.2   103  LEU103      0.2260
     67  O          9.1250   15.2190    6.0710 O.2   103  LEU103     -0.2867
     68  CB         6.4120   15.9440    7.9180 C.3   103  LEU103      0.0270
     69  CG         5.1830   15.3680    8.6520 C.3   103  LEU103      0.0019
     70  CD1        3.8860   15.8950    8.0450 C.3   103  LEU103      0.0001
     71  CD2        5.1730   13.8630    8.6460 C.3   103  LEU103      0.0001
     72  N         11.6770   13.2610    7.0050 N.3   106  PHE106     -0.1241
     73  CA        11.1820   12.1300    6.2330 C.3   106  PHE106      0.1605
     74  C         11.4040   12.3250    4.7280 C.2   106  PHE106      0.2264
     75  O         12.0020   11.4820    4.0720 O.2   106  PHE106     -0.2867
     76  CB         9.6830   11.9200    6.4990 C.3   106  PHE106      0.0534
     77  CG         9.3730   11.2890    7.8330 C.ar  106  PHE106     -0.0203
     78  CD1       10.2700   10.4260    8.4350 C.ar  106  PHE106     -0.0042
     79  CD2        8.1740   11.5460    8.4710 C.ar  106  PHE106     -0.0042
     80  CE1        9.9810    9.8390    9.6510 C.ar  106  PHE106     -0.0003
     81  CE2        7.8770   10.9670    9.6900 C.ar  106  PHE106     -0.0003
     82  CZ         8.7840   10.1120   10.2860 C.ar  106  PHE106     -0.0000
     83  N          4.6910   12.5310   -1.3440 N.3   123  PHE123     -0.1241
     84  CA         4.6940   12.7150    0.0960 C.3   123  PHE123      0.1605
     85  C          4.7450   14.1940    0.3880 C.2   123  PHE123      0.2264
     86  O          3.9600   14.7060    1.1950 O.2   123  PHE123     -0.2867
     87  CB         5.8960   12.0210    0.7430 C.3   123  PHE123      0.0534
     88  CG         5.9420   12.1660    2.2430 C.ar  123  PHE123     -0.0203
     89  CD1        5.2700   11.2690    3.0640 C.ar  123  PHE123     -0.0042
     90  CD2        6.6510   13.2010    2.8310 C.ar  123  PHE123     -0.0042
     91  CE1        5.3190   11.4010    4.4230 C.ar  123  PHE123     -0.0003
     92  CE2        6.6930   13.3430    4.1960 C.ar  123  PHE123     -0.0003
     93  CZ         6.0330   12.4430    4.9940 C.ar  123  PHE123     -0.0000
     94  N          1.6080   15.8900   -0.6060 N.3   126  LYS126     -0.1231
     95  CA         0.5310   15.5730    0.3110 C.3   126  LYS126      0.1693
     96  C          0.6940   16.2320    1.6900 C.2   126  LYS126      0.2591
     97  O         -0.3030   16.6200    2.2980 O.2   126  LYS126     -0.2718
     98  CB         0.3690   14.0540    0.4500 C.3   126  LYS126      0.0285
     99  CG        -0.8990   13.6160    1.1740 C.3   126  LYS126      0.0035
    100  CD        -0.9730   12.1000    1.2930 C.3   126  LYS126      0.0206
    101  CE         0.3900   11.5140    1.6720 C.3   126  LYS126      0.1093
    102  NZ         0.3390   10.0550    1.9800 N.3   126  LYS126     -0.1314
    103  N          1.9340   16.3710    2.1680 N.am  127  LYS127     -0.1980
    104  CA         2.1740   16.7460    3.5710 C.3   127  LYS127      0.1596
    105  C          2.6630   18.1680    3.7880 C.2   127  LYS127      0.2287
    106  O          2.5410   18.6950    4.8930 O.2   127  LYS127     -0.2864
    107  CB         3.1650   15.7820    4.2460 C.3   127  LYS127      0.0298
    108  CG         2.7280   14.3210    4.2840 C.3   127  LYS127      0.0038
    109  CD         1.6060   14.0980    5.2700 C.3   127  LYS127      0.0206
    110  CE         0.8910   12.8040    4.9720 C.3   127  LYS127      0.1093
    111  NZ         0.1530   12.2810    6.1510 N.3   127  LYS127     -0.1314
@<TRIPOS>BOND
     1    50    51    2
     2    50    49    1
     3    48    49    1
     4    83    84    1
     5    49    52    1
     6    94    95    1
     7    52    53    1
     8    54    53    2
     9    84    85    1
    10    84    87    1
    11    95    98    1
    12    95    96    1
    13    85    86    2
    14    98    99    1
    15    53    55   am
    16    87    88    1
    17    99   100    1
    18    12    11    1
    19   100   101    1
    20     9    11   ar
    21     9     7   ar
    22   101   102    1
    23    96   103   am
    24    96    97    2
    25    11    10   ar
    26   103   104    1
    27    88    90   ar
    28    88    89   ar
    29     7     6   ar
    30    90    92   ar
    31    89    91   ar
    32    10     8   ar
    33   104   105    1
    34   104   107    1
    35   105   106    2
    36     6     8   ar
    37     6     5    1
    38    75    74    2
    39    92    93   ar
    40   107   108    1
    41   108   109    1
    42    91    93   ar
    43    74    73    1
    44     5     2    1
    45     2     1    1
    46     2     3    1
    47   110   109    1
    48   110   111    1
    49    21    19   ar
    50    21    22   ar
    51    19    18   ar
    52    22    20   ar
    53     3     4    2
    54    67    66    2
    55    73    76    1
    56    73    72    1
    57    76    77    1
    58    18    20   ar
    59    18    17    1
    60    66    65    1
    61    13    14    1
    62    17    14    1
    63    77    78   ar
    64    77    79   ar
    65    68    65    1
    66    68    69    1
    67    70    69    1
    68    65    64    1
    69    14    15    1
    70    27    28    1
    71    27    24    1
    72    78    80   ar
    73    79    81   ar
    74    71    69    1
    75    23    15   am
    76    23    24    1
    77    15    16    2
    78    24    25    1
    79    80    82   ar
    80    81    82   ar
    81    25    26    2
    82    25    29   am
    83    59    58    2
    84    40    41    1
    85    40    37    1
    86    43    45   ar
    87    43    41   ar
    88    35    29    1
    89    35    34    1
    90    38    37    1
    91    38    39    2
    92    29    30    1
    93    45    46   ar
    94    41    42   ar
    95    63    61   am
    96    37    36    1
    97    58    57    1
    98    36    31   am
    99    60    61    1
   100    60    57    1
   101    61    62    2
   102    57    56    1
   103    34    33    1
   104    31    30    1
   105    31    32    2
   106    30    33    1
   107    46    47    1
   108    46    44   ar
   109    42    44   ar
