@<TRIPOS>MOLECULE
tmp/4kspB00.pdb
 219 209 0 0 0
SMALL
GASTEIGER

@<TRIPOS>ATOM
      1  N         23.6040  -13.4430   -7.6780 N.3    16  ILE16      -0.1245
      2  CA        22.7750  -13.9100   -6.5560 C.3    16  ILE16       0.1561
      3  C         22.1220  -12.7510   -5.8090 C.2    16  ILE16       0.2260
      4  O         20.9450  -12.8200   -5.4760 O.2    16  ILE16      -0.2867
      5  CB        23.5720  -14.7710   -5.5460 C.3    16  ILE16       0.0252
      6  CG1       24.2730  -15.9500   -6.2490 C.3    16  ILE16       0.0019
      7  CG2       22.6520  -15.2850   -4.4420 C.3    16  ILE16       0.0019
      8  CD1       23.3450  -16.9140   -6.9750 C.3    16  ILE16       0.0001
      9  N         27.2880  -10.2630   -5.1000 N.3    24  VAL24      -0.1245
     10  CA        27.6270  -11.6770   -5.0140 C.3    24  VAL24       0.1561
     11  C         27.1400  -12.4590   -6.2360 C.2    24  VAL24       0.2260
     12  O         25.9450  -12.5030   -6.5380 O.2    24  VAL24      -0.2867
     13  CB        27.1010  -12.3250   -3.7180 C.3    24  VAL24       0.0252
     14  CG1       27.4880  -13.8000   -3.6690 C.3    24  VAL24       0.0019
     15  CG2       27.6700  -11.5950   -2.5100 C.3    24  VAL24       0.0019
     16  N         31.7040  -19.0010   -4.5430 N.3    34  ALA34      -0.1245
     17  CA        30.9990  -17.7160   -4.4240 C.3    34  ALA34       0.1562
     18  C         31.9760  -16.5590   -4.6310 C.2    34  ALA34       0.2260
     19  O         33.1110  -16.6030   -4.1520 O.2    34  ALA34      -0.2867
     20  CB        30.3240  -17.5950   -3.0740 C.3    34  ALA34       0.0290
     21  N         32.2320  -12.4180   -4.2710 N.3    36  LYS36      -0.1245
     22  CA        31.7450  -11.1130   -3.8380 C.3    36  LYS36       0.1561
     23  C         32.6840  -10.0800   -4.4310 C.2    36  LYS36       0.2260
     24  O         33.8300   -9.9880   -4.0100 O.2    36  LYS36      -0.2867
     25  CB        31.7750  -11.0450   -2.3100 C.3    36  LYS36       0.0271
     26  CG        31.0560   -9.8690   -1.6550 C.3    36  LYS36       0.0035
     27  CD        31.6510   -9.5700   -0.2740 C.3    36  LYS36       0.0206
     28  CE        30.6350   -9.0520    0.7380 C.3    36  LYS36       0.1093
     29  NZ        29.8050  -10.1380    1.3410 N.3    36  LYS36      -0.1314
     30  N         38.2270   -7.1330    5.4280 N.3    54  GLU54      -0.1245
     31  CA        37.4570   -8.3630    5.2390 C.3    54  GLU54       0.1567
     32  C         38.3810   -9.5100    4.8740 C.2    54  GLU54       0.2260
     33  O         38.2620  -10.5990    5.4280 O.2    54  GLU54      -0.2867
     34  CB        36.3910   -8.1860    4.1510 C.3    54  GLU54       0.0388
     35  CG        35.3790   -9.3300    4.0550 C.3    54  GLU54       0.1160
     36  CD        34.0640   -8.9430    3.3570 C.2    54  GLU54       0.3649
     37  OE1       33.6930   -7.7440    3.3360 O.co2  54  GLU54      -0.2457
     38  OE2       33.3740   -9.8430    2.8340 O.co2  54  GLU54      -0.2457
     39  N         40.5260  -10.6830    7.6930 N.3    57  VAL57      -0.1231
     40  CA        39.8170  -11.4420    8.7230 C.3    57  VAL57       0.1692
     41  C         39.5390  -12.8680    8.2790 C.2    57  VAL57       0.2591
     42  O         39.7820  -13.8190    9.0220 O.2    57  VAL57      -0.2718
     43  CB        38.4930  -10.7500    9.1040 C.3    57  VAL57       0.0266
     44  CG1       37.5300  -11.7080    9.7950 C.3    57  VAL57       0.0020
     45  CG2       38.7780   -9.5610   10.0030 C.3    57  VAL57       0.0020
     46  N         38.9940  -13.0020    7.0800 N.am   58  LEU58      -0.1980
     47  CA        38.7770  -14.3010    6.4770 C.3    58  LEU58       0.1596
     48  C         40.0530  -15.1530    6.4480 C.2    58  LEU58       0.2287
     49  O         40.0240  -16.3330    6.8010 O.2    58  LEU58      -0.2864
     50  CB        38.2300  -14.1300    5.0610 C.3    58  LEU58       0.0297
     51  CG        36.7670  -13.7300    4.9470 C.3    58  LEU58       0.0022
     52  CD1       36.4060  -13.6740    3.4770 C.3    58  LEU58       0.0001
     53  CD2       35.8640  -14.7170    5.6710 C.3    58  LEU58       0.0001
     54  N         40.9470  -17.4070    9.3780 N.3    61  THR61      -0.1218
     55  CA        40.0620  -18.5430    9.7170 C.3    61  THR61       0.1862
     56  C         40.3480  -19.8640    8.9750 C.2    61  THR61       0.2287
     57  O         40.5570  -19.8910    7.7560 O.2    61  THR61      -0.2866
     58  CB        38.5660  -18.2040    9.5170 C.3    61  THR61       0.1770
     59  OG1       38.2750  -17.9830    8.1290 O.3    61  THR61      -0.2211
     60  CG2       38.1890  -16.9910   10.3190 C.3    61  THR61       0.0375
     61  N         33.1750  -22.2420    9.7870 N.3    66  ILE66      -0.1231
     62  CA        33.3300  -20.9150    9.1890 C.3    66  ILE66       0.1692
     63  C         33.3930  -21.0890    7.6760 C.2    66  ILE66       0.2591
     64  O         34.0320  -22.0050    7.1830 O.2    66  ILE66      -0.2718
     65  CB        34.5930  -20.1930    9.7010 C.3    66  ILE66       0.0266
     66  CG1       34.3310  -19.4570   11.0090 C.3    66  ILE66       0.0019
     67  CG2       35.0420  -19.1150    8.7290 C.3    66  ILE66       0.0020
     68  CD1       33.6120  -20.2520   12.0660 C.3    66  ILE66       0.0001
     69  N         32.7180  -20.2120    6.9490 N.am   67  LEU67      -0.1980
     70  CA        32.7830  -20.1970    5.4910 C.3    67  LEU67       0.1596
     71  C         34.2290  -20.2690    4.9970 C.2    67  LEU67       0.2287
     72  O         35.0790  -19.4910    5.4280 O.2    67  LEU67      -0.2864
     73  CB        32.1510  -18.9100    4.9620 C.3    67  LEU67       0.0297
     74  CG        31.9140  -18.8550    3.4540 C.3    67  LEU67       0.0022
     75  CD1       30.6160  -19.5660    3.1060 C.3    67  LEU67       0.0001
     76  CD2       31.8780  -17.4080    2.9830 C.3    67  LEU67       0.0001
     77  N         36.4690  -11.1950   -3.7040 N.3    80  ILE80      -0.1245
     78  CA        36.7770  -12.2330   -2.7330 C.3    80  ILE80       0.1561
     79  C         36.0710  -13.5340   -3.1280 C.2    80  ILE80       0.2260
     80  O         34.8840  -13.5380   -3.4190 O.2    80  ILE80      -0.2867
     81  CB        36.3190  -11.8150   -1.3250 C.3    80  ILE80       0.0252
     82  CG1       36.7760  -10.3830   -1.0310 C.3    80  ILE80       0.0019
     83  CG2       36.8550  -12.7760   -0.2700 C.3    80  ILE80       0.0019
     84  CD1       36.5050   -9.9290    0.3890 C.3    80  ILE80       0.0001
     85  N         34.9990  -17.4060   -2.1010 N.3    82  THR82      -0.1203
     86  CA        34.8320  -18.4060   -1.0540 C.3    82  THR82       0.1994
     87  C         34.1960  -19.6420   -1.6310 C.2    82  THR82       0.2618
     88  O         33.7720  -19.6480   -2.7860 O.2    82  THR82      -0.2717
     89  CB        33.8980  -17.9200    0.0410 C.3    82  THR82       0.1784
     90  OG1       32.6080  -17.7030   -0.5290 O.3    82  THR82      -0.2211
     91  CG2       34.4060  -16.6360    0.6330 C.3    82  THR82       0.0376
     92  N         34.1100  -20.6870   -0.8190 N.am   83  GLN83      -0.1965
     93  CA        33.3680  -21.8700   -1.2190 C.3    83  GLN83       0.1733
     94  C         31.9290  -21.4840   -1.5160 C.2    83  GLN83       0.2616
     95  O         31.4210  -20.5060   -0.9740 O.2    83  GLN83      -0.2715
     96  CB        33.4000  -22.9510   -0.1320 C.3    83  GLN83       0.0408
     97  CG        32.6500  -22.5880    1.1480 C.3    83  GLN83       0.0908
     98  CD        32.6050  -23.7240    2.1510 C.2    83  GLN83       0.2608
     99  OE1       32.8670  -23.5310    3.3450 O.2    83  GLN83      -0.2717
    100  NE2       32.2710  -24.9240    1.6690 N.am   83  GLN83      -0.0878
    101  N         31.3010  -22.2520   -2.4000 N.am   84  TRP84      -0.1960
    102  CA        29.8750  -22.1400   -2.6830 C.3    84  TRP84       0.1771
    103  C         29.1580  -23.0490   -1.7100 C.2    84  TRP84       0.2620
    104  O         29.5920  -24.1760   -1.5060 O.2    84  TRP84      -0.2715
    105  CB        29.5760  -22.5960   -4.1160 C.3    84  TRP84       0.0590
    106  CG        28.1270  -22.5100   -4.4580 C.ar   84  TRP84       0.0006
    107  CD1       27.2460  -23.5430   -4.5730 C.ar   84  TRP84       0.0946
    108  CD2       27.3800  -21.3150   -4.7040 C.ar   84  TRP84       0.0152
    109  NE1       25.9940  -23.0680   -4.8850 N.ar   84  TRP84      -0.2442
    110  CE2       26.0480  -21.7030   -4.9690 C.ar   84  TRP84       0.0810
    111  CE3       27.7080  -19.9540   -4.7270 C.ar   84  TRP84       0.0012
    112  CZ2       25.0450  -20.7820   -5.2530 C.ar   84  TRP84       0.0191
    113  CZ3       26.7140  -19.0390   -5.0130 C.ar   84  TRP84       0.0001
    114  CH2       25.3940  -19.4580   -5.2730 C.ar   84  TRP84       0.0015
    115  N         28.0690  -22.5870   -1.1050 N.am   85  CYS85      -0.1954
    116  CA        27.3110  -23.4520   -0.1910 C.3    85  CYS85       0.1843
    117  C         26.0050  -23.9720   -0.8200 C.2    85  CYS85       0.2625
    118  O         25.3320  -23.2650   -1.5790 O.2    85  CYS85      -0.2714
    119  CB        27.0470  -22.7290    1.1310 C.3    85  CYS85       0.0997
    120  SG        28.5420  -22.1210    1.9630 S.3    85  CYS85      -0.0797
    121  N         25.6640  -25.2160   -0.4990 N.am   86  GLU86      -0.1963
    122  CA        24.5420  -25.9150   -1.1090 C.3    86  GLU86       0.1733
    123  C         23.4240  -26.0100   -0.0930 C.2    86  GLU86       0.2617
    124  O         23.6370  -26.5060    1.0080 O.2    86  GLU86      -0.2715
    125  CB        24.9710  -27.3260   -1.5210 C.3    86  GLU86       0.0429
    126  CG        24.3880  -27.7990   -2.8440 C.3    86  GLU86       0.1163
    127  CD        25.2210  -27.3770   -4.0450 C.2    86  GLU86       0.3649
    128  OE1       26.3100  -26.7900   -3.8410 O.co2  86  GLU86      -0.2457
    129  OE2       24.7830  -27.6420   -5.1930 O.co2  86  GLU86      -0.2457
    130  N         22.2430  -25.5280   -0.4590 N.am   87  GLY87      -0.1940
    131  CA        21.0950  -25.5130    0.4460 C.3    87  GLY87       0.2014
    132  C         20.5530  -24.1110    0.6410 C.2    87  GLY87       0.2639
    133  O         20.1870  -23.4380   -0.3300 O.2    87  GLY87      -0.2714
    134  N         20.5030  -23.6670    1.8950 N.am   88  SER88      -0.1949
    135  CA        19.8970  -22.3770    2.2370 C.3    88  SER88       0.1924
    136  C         20.1480  -21.9990    3.6860 C.2    88  SER88       0.2314
    137  O         20.6240  -22.8020    4.4820 O.2    88  SER88      -0.2863
    138  CB        18.3900  -22.3980    1.9670 C.3    88  SER88       0.2116
    139  OG        17.7860  -23.5100    2.5910 O.3    88  SER88      -0.2180
    140  N         36.0040  -18.0010   16.4710 N.3   120  LEU120     -0.1245
    141  CA        36.2050  -16.6080   16.1270 C.3   120  LEU120      0.1561
    142  C         36.7610  -15.8230   17.3170 C.2   120  LEU120      0.2260
    143  O         37.8180  -15.2050   17.2260 O.2   120  LEU120     -0.2867
    144  CB        34.8970  -16.0000   15.6420 C.3   120  LEU120      0.0270
    145  CG        34.3390  -16.5810   14.3320 C.3   120  LEU120      0.0019
    146  CD1       33.0220  -15.8910   14.0090 C.3   120  LEU120      0.0001
    147  CD2       35.2840  -16.4480   13.1420 C.3   120  LEU120      0.0001
    148  N         38.1450  -12.2760   16.7940 N.3   125  ILE125     -0.1245
    149  CA        37.2510  -11.7280   15.7920 C.3   125  ILE125      0.1561
    150  C         35.8530  -11.5940   16.3690 C.2   125  ILE125      0.2260
    151  O         35.2270  -12.5980   16.7060 O.2   125  ILE125     -0.2867
    152  CB        37.1820  -12.6390   14.5550 C.3   125  ILE125      0.0252
    153  CG1       38.5200  -12.6170   13.8100 C.3   125  ILE125      0.0019
    154  CG2       36.0520  -12.1980   13.6340 C.3   125  ILE125      0.0019
    155  CD1       38.6700  -13.6980   12.7510 C.3   125  ILE125      0.0001
    156  N         32.1230  -10.8730   15.4140 N.3   127  HIS127     -0.1241
    157  CA        31.3130  -10.9900   14.2000 C.3   127  HIS127      0.1621
    158  C         30.5220   -9.7200   13.9000 C.2   127  HIS127      0.2264
    159  O         30.5370   -9.2360   12.7650 O.2   127  HIS127     -0.2867
    160  CB        30.3490  -12.1810   14.3090 C.3   127  HIS127      0.0745
    161  CG        29.7570  -12.5920   12.9950 C.ar  127  HIS127      0.0817
    162  ND1       28.7440  -11.8890   12.3820 N.ar  127  HIS127     -0.2268
    163  CD2       30.0520  -13.6180   12.1640 C.ar  127  HIS127      0.1154
    164  CE1       28.4400  -12.4610   11.2310 C.ar  127  HIS127      0.1986
    165  NE2       29.2160  -13.5170   11.0770 N.ar  127  HIS127     -0.2212
    166  N         24.5080  -20.5330    7.2120 N.3   136  PHE136     -0.1241
    167  CA        24.1180  -21.3410    6.0750 C.3   136  PHE136      0.1605
    168  C         24.1090  -22.7880    6.5320 C.2   136  PHE136      0.2264
    169  O         25.0200  -23.2080    7.2300 O.2   136  PHE136     -0.2867
    170  CB        25.1070  -21.1310    4.9240 C.3   136  PHE136      0.0534
    171  CG        24.4880  -21.2580    3.5590 C.ar  136  PHE136     -0.0203
    172  CD1       24.0680  -20.1280    2.8620 C.ar  136  PHE136     -0.0042
    173  CD2       24.3220  -22.5100    2.9680 C.ar  136  PHE136     -0.0042
    174  CE1       23.5020  -20.2470    1.6040 C.ar  136  PHE136     -0.0003
    175  CE2       23.7470  -22.6340    1.7130 C.ar  136  PHE136     -0.0003
    176  CZ        23.3390  -21.5000    1.0310 C.ar  136  PHE136     -0.0000
    177  N         29.0770  -20.2980    9.2120 N.3   145  ILE145     -0.1231
    178  CA        28.9370  -18.8910    9.5960 C.3   145  ILE145      0.1692
    179  C         29.6510  -17.9590    8.6170 C.2   145  ILE145      0.2593
    180  O         30.7640  -18.2610    8.1750 O.2   145  ILE145     -0.2718
    181  CB        29.5490  -18.6540   10.9820 C.3   145  ILE145      0.0266
    182  CG1       28.7690  -19.4210   12.0380 C.3   145  ILE145      0.0019
    183  CG2       29.5200  -17.1790   11.3360 C.3   145  ILE145      0.0020
    184  CD1       29.5430  -19.6260   13.3200 C.3   145  ILE145      0.0001
    185  N         29.0280  -16.8200    8.3030 N.am  146  GLY146     -0.1942
    186  CA        29.6350  -15.8180    7.4140 C.3   146  GLY146      0.2014
    187  C         28.8220  -14.5400    7.3030 C.2   146  GLY146      0.2639
    188  O         28.0720  -14.1990    8.2110 O.2   146  GLY146     -0.2714
    189  N         28.9910  -13.8110    6.2040 N.am  147  ASP147     -0.1957
    190  CA        28.0640  -12.7300    5.8610 C.3   147  ASP147      0.1840
    191  C         27.3810  -13.0220    4.5160 C.2   147  ASP147      0.2622
    192  O         28.0210  -12.9710    3.4620 O.2   147  ASP147     -0.2715
    193  CB        28.7450  -11.3580    5.8450 C.3   147  ASP147      0.1450
    194  CG        27.7410  -10.2240    6.0070 C.2   147  ASP147      0.3671
    195  OD1       27.5930   -9.7130    7.1440 O.co2 147  ASP147     -0.2456
    196  OD2       27.0570   -9.8780    5.0220 O.co2 147  ASP147     -0.2456
    197  N         26.0840  -13.3480    4.5840 N.am  148  PHE148     -0.1960
    198  CA        25.2580  -13.6620    3.4120 C.3   148  PHE148      0.1771
    199  C         24.1950  -12.5730    3.2670 C.2   148  PHE148      0.2620
    200  O         22.9960  -12.8270    3.4340 O.2   148  PHE148     -0.2715
    201  CB        24.5900  -15.0470    3.5460 C.3   148  PHE148      0.0574
    202  CG        25.5470  -16.1630    3.8950 C.ar  148  PHE148     -0.0200
    203  CD1       25.4450  -16.8330    5.1100 C.ar  148  PHE148     -0.0042
    204  CD2       26.5530  -16.5430    3.0090 C.ar  148  PHE148     -0.0042
    205  CE1       26.3260  -17.8480    5.4370 C.ar  148  PHE148     -0.0003
    206  CE2       27.4360  -17.5610    3.3310 C.ar  148  PHE148     -0.0003
    207  CZ        27.3220  -18.2130    4.5500 C.ar  148  PHE148     -0.0000
    208  N         24.6580  -11.3600    2.9600 N.am  149  GLY149     -0.1940
    209  CA        23.8070  -10.1760    2.8460 C.3   149  GLY149      0.2014
    210  C         22.6100  -10.3600    1.9320 C.2   149  GLY149      0.2638
    211  O         21.4870  -10.5380    2.4070 O.2   149  GLY149     -0.2714
    212  N         22.8420  -10.3150    0.6240 N.am  150  LEU150     -0.1977
    213  CA        21.7630  -10.4560   -0.3590 C.3   150  LEU150      0.1596
    214  C         22.1080  -11.5420   -1.3830 C.2   150  LEU150      0.2287
    215  O         23.2580  -11.6870   -1.7970 O.2   150  LEU150     -0.2864
    216  CB        21.4850   -9.1070   -1.0580 C.3   150  LEU150      0.0297
    217  CG        20.5190   -8.0390   -0.4870 C.3   150  LEU150      0.0022
    218  CD1       19.3440   -7.8020   -1.4360 C.3   150  LEU150      0.0001
    219  CD2       20.0320   -8.3090    0.9410 C.3   150  LEU150      0.0001
@<TRIPOS>BOND
     1     1     2    1
     2     8     6    1
     3     2     3    1
     4     2     5    1
     5    12    11    2
     6     6     5    1
     7    11    10    1
     8     3     4    2
     9     5     7    1
    10   114   112   ar
    11   114   113   ar
    12   112   110   ar
    13   129   127   ar
    14     9    10    1
    15    10    13    1
    16   113   111   ar
    17   110   109   ar
    18   110   108   ar
    19   109   107   ar
    20   111   108   ar
    21   108   106   ar
    22    18    17    1
    23    18    19    2
    24   107   106   ar
    25    16    17    1
    26   106   105    1
    27    23    24    2
    28    23    22    1
    29    17    20    1
    30    21    22    1
    31   105   102    1
    32   127   128   ar
    33   127   126    1
    34    22    25    1
    35    13    14    1
    36    13    15    1
    37    77    78    1
    38    80    79    2
    39    79    78    1
    40   126   125    1
    41    88    87    2
    42    78    81    1
    43   102   101    1
    44   102   103    1
    45   101    94   am
    46    25    26    1
    47    85    86    1
    48   215   214    2
    49   103   104    2
    50   103   115   am
    51    26    27    1
    52    87    86    1
    53    87    92   am
    54   118   117    2
    55   125   122    1
    56    94    93    1
    57    94    95    2
    58   218   217    1
    59   214   213    1
    60    81    82    1
    61    81    83    1
    62    93    92    1
    63    93    96    1
    64   122   121    1
    65   122   123    1
    66   115   116    1
    67   216   217    1
    68   216   213    1
    69    86    89    1
    70    82    84    1
    71   117   121   am
    72   117   116    1
    73    90    89    1
    74   217   219    1
    75   130   123   am
    76   130   131    1
    77   213   212    1
    78   133   132    2
    79    27    28    1
    80   116   119    1
    81    96    97    1
    82   123   124    2
    83    89    91    1
    84   131   132    1
    85   212   210   am
    86   132   134   am
    87    28    29    1
    88   176   174   ar
    89   176   175   ar
    90   119   120    1
    91    97    98    1
    92   174   172   ar
    93   100    98   am
    94   175   173   ar
    95   134   135    1
    96   210   211    2
    97   210   209    1
    98   138   135    1
    99   138   139    1
   100    98    99    2
   101   135   136    1
   102    38    36   ar
   103   209   208    1
   104   172   171   ar
   105   208   199   am
   106   173   171   ar
   107    76    74    1
   108   204   206   ar
   109   204   202   ar
   110    75    74    1
   111   199   198    1
   112   199   200    2
   113   206   207   ar
   114    37    36   ar
   115    36    35    1
   116   198   201    1
   117   198   197    1
   118    74    73    1
   119   192   191    2
   120    52    51    1
   121   201   202    1
   122   171   170    1
   123   136   137    2
   124   202   203   ar
   125    35    34    1
   126    34    31    1
   127   191   197   am
   128   191   190    1
   129   207   205   ar
   130    32    31    1
   131    32    33    2
   132   170   167    1
   133    51    50    1
   134    51    53    1
   135    73    70    1
   136    71    72    2
   137    71    70    1
   138   196   194   ar
   139    50    47    1
   140   203   205   ar
   141    31    30    1
   142    70    69    1
   143   193   190    1
   144   193   194    1
   145   190   189    1
   146   194   195   ar
   147   167   168    1
   148   167   166    1
   149   189   187   am
   150    48    47    1
   151    48    49    2
   152    47    46    1
   153   168   169    2
   154    69    63   am
   155    46    41   am
   156    64    63    2
   157   187   186    1
   158   187   188    2
   159   186   185    1
   160    63    62    1
   161    39    40    1
   162    57    56    2
   163    59    58    1
   164   180   179    2
   165    41    40    1
   166    41    42    2
   167   185   179   am
   168   179   178    1
   169    40    43    1
   170    67    65    1
   171    56    55    1
   172    43    44    1
   173    43    45    1
   174    62    65    1
   175    62    61    1
   176   177   178    1
   177    54    55    1
   178    58    55    1
   179    58    60    1
   180   178   181    1
   181    65    66    1
   182   181   183    1
   183   181   182    1
   184    66    68    1
   185   165   164   ar
   186   165   163   ar
   187   164   162   ar
   188   182   184    1
   189   163   161   ar
   190   162   161   ar
   191   155   153    1
   192   159   158    2
   193   161   160    1
   194   147   145    1
   195   154   152    1
   196   153   152    1
   197   158   157    1
   198   146   145    1
   199   157   160    1
   200   157   156    1
   201   145   144    1
   202   152   149    1
   203   144   141    1
   204   149   150    1
   205   149   148    1
   206   141   140    1
   207   141   142    1
   208   150   151    2
   209   143   142    2
