@<TRIPOS>MOLECULE
tmp/4ksqB00.pdb
 218 206 0 0 0
SMALL
GASTEIGER

@<TRIPOS>ATOM
      1  N         23.5560  -12.9180   -7.6120 N.3    15  ILE15      -0.1245
      2  CA        22.7920  -13.4090   -6.4600 C.3    15  ILE15       0.1561
      3  C         22.1800  -12.2580   -5.6710 C.2    15  ILE15       0.2260
      4  O         21.0930  -12.4010   -5.1160 O.2    15  ILE15      -0.2867
      5  CB        23.6490  -14.2830   -5.5120 C.3    15  ILE15       0.0252
      6  CG1       24.4600  -15.3300   -6.2940 C.3    15  ILE15       0.0019
      7  CG2       22.7670  -14.9790   -4.4810 C.3    15  ILE15       0.0019
      8  CD1       23.6270  -16.2860   -7.1300 C.3    15  ILE15       0.0001
      9  N         27.2710   -9.9700   -4.8240 N.3    23  VAL23      -0.1245
     10  CA        27.6590  -11.3810   -4.7720 C.3    23  VAL23       0.1561
     11  C         27.1540  -12.1010   -6.0160 C.2    23  VAL23       0.2260
     12  O         25.9740  -12.0140   -6.3550 O.2    23  VAL23      -0.2867
     13  CB        27.1340  -12.0910   -3.4960 C.3    23  VAL23       0.0252
     14  CG1       27.1590  -13.6050   -3.6550 C.3    23  VAL23       0.0019
     15  CG2       27.9590  -11.6930   -2.2780 C.3    23  VAL23       0.0019
     16  N         27.4470  -16.0720   -8.0310 N.3    25  LYS25      -0.1245
     17  CA        27.9490  -17.4290   -8.1060 C.3    25  LYS25       0.1561
     18  C         28.9420  -17.4510   -9.2560 C.2    25  LYS25       0.2260
     19  O         28.6030  -17.0730  -10.3750 O.2    25  LYS25      -0.2867
     20  CB        26.8210  -18.4230   -8.3660 C.3    25  LYS25       0.0271
     21  CG        27.3120  -19.8310   -8.6500 C.3    25  LYS25       0.0035
     22  CD        26.1770  -20.8280   -8.7610 C.3    25  LYS25       0.0206
     23  CE        26.6740  -22.1280   -9.3670 C.3    25  LYS25       0.1093
     24  NZ        25.8090  -23.2710   -8.9770 N.3    25  LYS25      -0.1314
     25  N         31.6730  -18.7510   -4.6520 N.3    33  ALA33      -0.1245
     26  CA        30.9070  -17.5140   -4.4880 C.3    33  ALA33       0.1562
     27  C         31.8520  -16.3240   -4.5560 C.2    33  ALA33       0.2260
     28  O         32.8450  -16.2840   -3.8270 O.2    33  ALA33      -0.2867
     29  CB        30.1720  -17.5210   -3.1580 C.3    33  ALA33       0.0290
     30  N         32.2250  -12.2080   -4.2100 N.3    35  LYS35      -0.1245
     31  CA        31.7340  -10.8970   -3.8100 C.3    35  LYS35       0.1561
     32  C         32.6830   -9.8670   -4.3800 C.2    35  LYS35       0.2260
     33  O         33.8730   -9.9040   -4.0740 O.2    35  LYS35      -0.2867
     34  CB        31.6970  -10.8010   -2.2890 C.3    35  LYS35       0.0271
     35  CG        31.2840   -9.4510   -1.7120 C.3    35  LYS35       0.0035
     36  CD        30.7770   -9.6270   -0.2810 C.3    35  LYS35       0.0206
     37  CE        31.0980   -8.4540    0.6340 C.3    35  LYS35       0.1093
     38  NZ        30.6200   -8.7080    2.0290 N.3    35  LYS35      -0.1314
     39  N         37.9220   -6.8020    5.4500 N.3    53  GLU53      -0.1245
     40  CA        37.1460   -8.0340    5.2390 C.3    53  GLU53       0.1567
     41  C         38.0710   -9.1950    4.8710 C.2    53  GLU53       0.2260
     42  O         37.9000  -10.3100    5.3620 O.2    53  GLU53      -0.2867
     43  CB        36.0640   -7.8460    4.1630 C.3    53  GLU53       0.0388
     44  CG        35.1690   -9.0730    3.9560 C.3    53  GLU53       0.1160
     45  CD        33.8360   -8.7700    3.2660 C.2    53  GLU53       0.3649
     46  OE1       33.6050   -7.6150    2.8440 O.co2  53  GLU53      -0.2457
     47  OE2       33.0020   -9.6950    3.1440 O.co2  53  GLU53      -0.2457
     48  N         40.2670  -10.1630    7.8440 N.3    56  VAL56      -0.1231
     49  CA        39.4960  -10.9810    8.7740 C.3    56  VAL56       0.1692
     50  C         39.3320  -12.4020    8.2610 C.2    56  VAL56       0.2591
     51  O         39.6070  -13.3480    8.9840 O.2    56  VAL56      -0.2718
     52  CB        38.1010  -10.3780    9.0370 C.3    56  VAL56       0.0266
     53  CG1       37.2080  -11.3770    9.7650 C.3    56  VAL56       0.0020
     54  CG2       38.2250   -9.0950    9.8460 C.3    56  VAL56       0.0020
     55  N         38.8720  -12.5450    7.0230 N.am   57  LEU57      -0.1980
     56  CA        38.5910  -13.8660    6.4540 C.3    57  LEU57       0.1596
     57  C         39.8170  -14.7720    6.3620 C.2    57  LEU57       0.2287
     58  O         39.7180  -15.9710    6.6050 O.2    57  LEU57      -0.2864
     59  CB        37.9450  -13.7380    5.0740 C.3    57  LEU57       0.0297
     60  CG        36.4540  -13.4200    5.0690 C.3    57  LEU57       0.0022
     61  CD1       35.9790  -13.1790    3.6480 C.3    57  LEU57       0.0001
     62  CD2       35.6620  -14.5450    5.7140 C.3    57  LEU57       0.0001
     63  N         40.6010  -17.0390    9.3570 N.3    60  THR60      -0.1218
     64  CA        39.6800  -18.1410    9.7120 C.3    60  THR60       0.1862
     65  C         40.0000  -19.4590    9.0070 C.2    60  THR60       0.2287
     66  O         40.2900  -19.4730    7.8130 O.2    60  THR60      -0.2866
     67  CB        38.2080  -17.8000    9.3930 C.3    60  THR60       0.1770
     68  OG1       38.0050  -17.7450    7.9730 O.3    60  THR60      -0.2211
     69  CG2       37.8170  -16.4830   10.0170 C.3    60  THR60       0.0375
     70  N         32.8070  -21.9010    9.4650 N.3    65  ILE65      -0.1231
     71  CA        32.9700  -20.5590    8.9310 C.3    65  ILE65       0.1692
     72  C         33.0230  -20.6750    7.4200 C.2    65  ILE65       0.2591
     73  O         33.6270  -21.6010    6.8810 O.2    65  ILE65      -0.2718
     74  CB        34.2660  -19.8960    9.4420 C.3    65  ILE65       0.0266
     75  CG1       34.2550  -19.7690   10.9700 C.3    65  ILE65       0.0019
     76  CG2       34.4660  -18.5280    8.8020 C.3    65  ILE65       0.0020
     77  CD1       33.1840  -18.8540   11.5190 C.3    65  ILE65       0.0001
     78  N         32.3730  -19.7440    6.7370 N.am   66  LEU66      -0.1980
     79  CA        32.4860  -19.6530    5.2970 C.3    66  LEU66       0.1596
     80  C         33.9540  -19.7820    4.9000 C.2    66  LEU66       0.2287
     81  O         34.8040  -19.0160    5.3600 O.2    66  LEU66      -0.2864
     82  CB        31.9490  -18.3140    4.8250 C.3    66  LEU66       0.0297
     83  CG        31.7740  -18.1790    3.3210 C.3    66  LEU66       0.0022
     84  CD1       30.4900  -18.8570    2.8750 C.3    66  LEU66       0.0001
     85  CD2       31.7560  -16.7110    2.9520 C.3    66  LEU66       0.0001
     86  N         36.3610  -10.9790   -3.6550 N.3    79  ILE79      -0.1245
     87  CA        36.6340  -12.0350   -2.6740 C.3    79  ILE79       0.1561
     88  C         35.9340  -13.3380   -3.0670 C.2    79  ILE79       0.2260
     89  O         34.7150  -13.3690   -3.2430 O.2    79  ILE79      -0.2867
     90  CB        36.1350  -11.6440   -1.2690 C.3    79  ILE79       0.0252
     91  CG1       36.7640  -10.3240   -0.8260 C.3    79  ILE79       0.0019
     92  CG2       36.4560  -12.7400   -0.2620 C.3    79  ILE79       0.0019
     93  CD1       36.2710   -9.8390    0.5180 C.3    79  ILE79       0.0001
     94  N         34.9180  -17.1770   -2.0160 N.3    81  THR81      -0.1203
     95  CA        34.7210  -18.1240   -0.9300 C.3    81  THR81       0.1994
     96  C         34.1430  -19.3790   -1.5230 C.2    81  THR81       0.2618
     97  O         33.9140  -19.4460   -2.7240 O.2    81  THR81      -0.2717
     98  CB        33.7230  -17.5980    0.1040 C.3    81  THR81       0.1784
     99  OG1       32.4070  -17.5660   -0.4690 O.3    81  THR81      -0.2211
    100  CG2       34.1320  -16.2170    0.5560 C.3    81  THR81       0.0376
    101  N         33.8940  -20.3740   -0.6840 N.am   82  GLN82      -0.1965
    102  CA        33.1890  -21.5720   -1.1310 C.3    82  GLN82       0.1733
    103  C         31.7500  -21.2400   -1.5010 C.2    82  GLN82       0.2616
    104  O         31.1650  -20.2910   -0.9660 O.2    82  GLN82      -0.2715
    105  CB        33.2010  -22.6550   -0.0520 C.3    82  GLN82       0.0408
    106  CG        32.4350  -22.3000    1.2160 C.3    82  GLN82       0.0908
    107  CD        32.6080  -23.3400    2.3030 C.2    82  GLN82       0.2608
    108  OE1       32.7950  -23.0060    3.4750 O.2    82  GLN82      -0.2717
    109  NE2       32.5600  -24.6110    1.9200 N.am   82  GLN82      -0.0878
    110  N         31.1910  -22.0240   -2.4180 N.am   83  TRP83      -0.1960
    111  CA        29.7900  -21.8900   -2.7800 C.3    83  TRP83       0.1771
    112  C         28.9610  -22.8160   -1.9180 C.2    83  TRP83       0.2620
    113  O         29.0460  -24.0240   -2.0600 O.2    83  TRP83      -0.2715
    114  CB        29.5630  -22.2420   -4.2460 C.3    83  TRP83       0.0590
    115  CG        28.1100  -22.2340   -4.6220 C.ar   83  TRP83       0.0006
    116  CD1       27.3220  -23.3150   -4.9000 C.ar   83  TRP83       0.0946
    117  CD2       27.2710  -21.0890   -4.7360 C.ar   83  TRP83       0.0152
    118  NE1       26.0430  -22.9090   -5.1940 N.ar   83  TRP83      -0.2442
    119  CE2       25.9840  -21.5450   -5.0970 C.ar   83  TRP83       0.0810
    120  CE3       27.4810  -19.7170   -4.5720 C.ar   83  TRP83       0.0012
    121  CZ2       24.9150  -20.6770   -5.2980 C.ar   83  TRP83       0.0191
    122  CZ3       26.4180  -18.8560   -4.7670 C.ar   83  TRP83       0.0001
    123  CH2       25.1480  -19.3400   -5.1260 C.ar   83  TRP83       0.0015
    124  N         28.1480  -22.2550   -1.0350 N.am   84  CYS84      -0.1954
    125  CA        27.2820  -23.0690   -0.1890 C.3    84  CYS84       0.1843
    126  C         26.0910  -23.6200   -0.9750 C.2    84  CYS84       0.2625
    127  O         25.7880  -23.1530   -2.0750 O.2    84  CYS84      -0.2714
    128  CB        26.8040  -22.2620    1.0160 C.3    84  CYS84       0.0997
    129  SG        28.1500  -21.6910    2.0860 S.3    84  CYS84      -0.0797
    130  N         25.4090  -24.5990   -0.3840 N.am   85  GLU85      -0.1963
    131  CA        24.3770  -25.3770   -1.0680 C.3    85  GLU85       0.1733
    132  C         23.2310  -25.6350   -0.1070 C.2    85  GLU85       0.2616
    133  O         23.4510  -26.0770    1.0170 O.2    85  GLU85      -0.2715
    134  CB        24.9450  -26.7180   -1.5350 C.3    85  GLU85       0.0429
    135  CG        24.2830  -27.2670   -2.7920 C.3    85  GLU85       0.1163
    136  CD        24.9140  -26.7430   -4.0670 C.2    85  GLU85       0.3649
    137  OE1       26.1460  -26.5360   -4.0970 O.co2  85  GLU85      -0.2457
    138  OE2       24.1750  -26.5450   -5.0480 O.co2  85  GLU85      -0.2457
    139  N         22.0110  -25.3670   -0.5550 N.am   86  GLY86      -0.1955
    140  CA        20.8390  -25.4320    0.3120 C.3    86  GLY86       0.1869
    141  C         20.2170  -24.0630    0.4840 C.2    86  GLY86       0.2309
    142  O         19.7810  -23.4500   -0.4910 O.2    86  GLY86      -0.2863
    143  N         35.7180  -17.5970   16.4350 N.3   119  LEU119     -0.1245
    144  CA        35.9490  -16.2110   16.0520 C.3   119  LEU119      0.1561
    145  C         36.4150  -15.3940   17.2470 C.2   119  LEU119      0.2260
    146  O         37.4140  -14.6790   17.1730 O.2   119  LEU119     -0.2867
    147  CB        34.6740  -15.5960   15.4760 C.3   119  LEU119      0.0270
    148  CG        34.1320  -16.2050   14.1770 C.3   119  LEU119      0.0019
    149  CD1       32.8570  -15.4960   13.7450 C.3   119  LEU119      0.0001
    150  CD2       35.1630  -16.1510   13.0630 C.3   119  LEU119      0.0001
    151  N         37.7000  -11.7290   17.0250 N.3   124  ILE124     -0.1245
    152  CA        36.8260  -11.2230   15.9750 C.3   124  ILE124      0.1561
    153  C         35.4050  -11.1240   16.4990 C.2   124  ILE124      0.2260
    154  O         34.7750  -12.1390   16.8090 O.2   124  ILE124     -0.2867
    155  CB        36.8100  -12.1420   14.7350 C.3   124  ILE124      0.0252
    156  CG1       38.2000  -12.2090   14.0930 C.3   124  ILE124      0.0019
    157  CG2       35.7810  -11.6500   13.7200 C.3   124  ILE124      0.0019
    158  CD1       38.3060  -13.2060   12.9540 C.3   124  ILE124      0.0001
    159  N         31.7000  -10.4520   15.4780 N.3   126  HIS126     -0.1241
    160  CA        30.9410  -10.5540   14.2430 C.3   126  HIS126      0.1621
    161  C         30.0860   -9.3260   13.9560 C.2   126  HIS126      0.2264
    162  O         29.8870   -8.9760   12.7960 O.2   126  HIS126     -0.2867
    163  CB        30.0420  -11.7820   14.2650 C.3   126  HIS126      0.0745
    164  CG        29.4610  -12.1150   12.9270 C.ar  126  HIS126      0.0817
    165  ND1       28.5630  -11.2920   12.2800 N.ar  126  HIS126     -0.2268
    166  CD2       29.6640  -13.1700   12.1050 C.ar  126  HIS126      0.1154
    167  CE1       28.2340  -11.8280   11.1200 C.ar  126  HIS126      0.1986
    168  NE2       28.8870  -12.9690   10.9900 N.ar  126  HIS126     -0.2212
    169  N         24.2490  -20.2700    7.0530 N.3   135  PHE135     -0.1241
    170  CA        23.8780  -21.1710    5.9700 C.3   135  PHE135      0.1605
    171  C         23.9030  -22.6070    6.4520 C.2   135  PHE135      0.2264
    172  O         24.8480  -23.0200    7.1130 O.2   135  PHE135     -0.2867
    173  CB        24.8300  -21.0070    4.7870 C.3   135  PHE135      0.0534
    174  CG        24.1530  -21.1360    3.4530 C.ar  135  PHE135     -0.0203
    175  CD1       23.7020  -20.0090    2.7780 C.ar  135  PHE135     -0.0042
    176  CD2       23.9440  -22.3810    2.8830 C.ar  135  PHE135     -0.0042
    177  CE1       23.0710  -20.1210    1.5500 C.ar  135  PHE135     -0.0003
    178  CE2       23.3130  -22.5000    1.6540 C.ar  135  PHE135     -0.0003
    179  CZ        22.8760  -21.3690    0.9860 C.ar  135  PHE135     -0.0000
    180  N         28.9770  -19.8660    9.1810 N.3   144  ILE144     -0.1231
    181  CA        28.7750  -18.4560    9.5010 C.3   144  ILE144      0.1692
    182  C         29.5270  -17.5640    8.5150 C.2   144  ILE144      0.2593
    183  O         30.7250  -17.7670    8.2840 O.2   144  ILE144     -0.2718
    184  CB        29.2830  -18.1180   10.9160 C.3   144  ILE144      0.0266
    185  CG1       28.5520  -18.9510   11.9670 C.3   144  ILE144      0.0019
    186  CG2       29.0860  -16.6350   11.2130 C.3   144  ILE144      0.0020
    187  CD1       29.0060  -18.6720   13.3850 C.3   144  ILE144      0.0001
    188  N         28.8320  -16.5670    7.9660 N.am  145  GLY145     -0.1942
    189  CA        29.4420  -15.5950    7.0610 C.3   145  GLY145      0.2014
    190  C         28.7680  -14.2360    7.1170 C.2   145  GLY145      0.2639
    191  O         28.1480  -13.8850    8.1240 O.2   145  GLY145     -0.2714
    192  N         28.9150  -13.4700    6.0320 N.am  146  ASP146     -0.1957
    193  CA        28.1390  -12.2480    5.7910 C.3   146  ASP146      0.1840
    194  C         27.3330  -12.4280    4.5010 C.2   146  ASP146      0.2622
    195  O         27.8890  -12.3750    3.4080 O.2   146  ASP146     -0.2715
    196  CB        29.0740  -11.0400    5.6770 C.3   146  ASP146      0.1450
    197  CG        28.3280   -9.7130    5.6880 C.2   146  ASP146      0.3671
    198  OD1       28.8590   -8.7400    6.2690 O.co2 146  ASP146     -0.2456
    199  OD2       27.2140   -9.6400    5.1270 O.co2 146  ASP146     -0.2456
    200  N         26.0260  -12.6400    4.6320 N.am  147  PHE147     -0.1974
    201  CA        25.1670  -12.9460    3.4820 C.3   147  PHE147      0.1639
    202  C         24.0680  -11.9110    3.2260 C.2   147  PHE147      0.2290
    203  O         23.0920  -12.2120    2.5270 O.2   147  PHE147     -0.2864
    204  CB        24.5010  -14.3130    3.6680 C.3   147  PHE147      0.0560
    205  CG        25.4650  -15.4310    3.9430 C.ar  147  PHE147     -0.0200
    206  CD1       25.2850  -16.2660    5.0340 C.ar  147  PHE147     -0.0042
    207  CD2       26.5520  -15.6510    3.1100 C.ar  147  PHE147     -0.0042
    208  CE1       26.1690  -17.2970    5.2910 C.ar  147  PHE147     -0.0003
    209  CE2       27.4390  -16.6840    3.3590 C.ar  147  PHE147     -0.0003
    210  CZ        27.2480  -17.5080    4.4520 C.ar  147  PHE147     -0.0000
    211  N         21.6300   -9.2580    1.8420 N.3   149  LEU149     -0.1245
    212  CA        21.1740   -8.9280    0.4860 C.3   149  LEU149      0.1561
    213  C         20.0040   -7.9470    0.5700 C.2   149  LEU149      0.2260
    214  O         19.4710   -7.5090   -0.4500 O.2   149  LEU149     -0.2867
    215  CB        20.7430  -10.2120   -0.2540 C.3   149  LEU149      0.0270
    216  CG        21.7330  -11.1120   -1.0430 C.3   149  LEU149      0.0019
    217  CD1       23.2090  -10.9160   -0.7180 C.3   149  LEU149      0.0001
    218  CD2       21.3580  -12.5810   -0.8710 C.3   149  LEU149      0.0001
@<TRIPOS>BOND
     1    19    18    2
     2    23    24    1
     3    23    22    1
     4    18    17    1
     5    22    21    1
     6    21    20    1
     7    20    17    1
     8    17    16    1
     9     1     2    1
    10     8     6    1
    11     2     3    1
    12     2     5    1
    13    12    11    2
    14     6     5    1
    15    11    10    1
    16     3     4    2
    17     5     7    1
    18   121   123   ar
    19   121   119   ar
    20   118   119   ar
    21   118   116   ar
    22   123   122   ar
    23   119   117   ar
    24   138   136   ar
    25   116   115   ar
    26     9    10    1
    27    10    13    1
    28   122   120   ar
    29   117   115   ar
    30   117   120   ar
    31    25    26    1
    32   115   114    1
    33    27    26    1
    34    27    28    2
    35    26    29    1
    36    32    33    2
    37    32    31    1
    38   114   111    1
    39    30    31    1
    40   137   136   ar
    41   136   135    1
    42    31    34    1
    43    86    87    1
    44    14    13    1
    45    13    15    1
    46    89    88    2
    47    88    87    1
    48   135   134    1
    49   111   110    1
    50   111   112    1
    51    97    96    2
    52    87    90    1
    53   110   103   am
    54    34    35    1
    55   127   126    2
    56   113   112    2
    57    94    95    1
    58   112   124   am
    59    35    36    1
    60   134   131    1
    61    96    95    1
    62    96   101   am
    63   103   102    1
    64   103   104    2
    65    90    91    1
    66    90    92    1
    67   102   101    1
    68   102   105    1
    69   131   130    1
    70   131   132    1
    71   216   218    1
    72   216   217    1
    73   216   215    1
    74   124   125    1
    75   126   130   am
    76   126   125    1
    77    95    98    1
    78    91    93    1
    79   139   132   am
    80   139   140    1
    81   142   141    2
    82    99    98    1
    83   214   213    2
    84    36    37    1
    85   215   212    1
    86   125   128    1
    87   132   133    2
    88   105   106    1
    89    98   100    1
    90   140   141    1
    91   212   213    1
    92   212   211    1
    93    37    38    1
    94   179   177   ar
    95   179   178   ar
    96   128   129    1
    97   106   107    1
    98   177   175   ar
    99   178   176   ar
   100   109   107   am
   101   107   108    2
   102   203   202    2
   103   175   174   ar
   104    46    45   ar
   105    84    83    1
   106   176   174   ar
   107    85    83    1
   108   207   209   ar
   109   207   205   ar
   110    47    45   ar
   111   202   201    1
   112    45    44    1
   113    83    82    1
   114   209   210   ar
   115   195   194    2
   116   174   173    1
   117   201   204    1
   118   201   200    1
   119    61    60    1
   120   204   205    1
   121   205   206   ar
   122    44    43    1
   123    43    40    1
   124   210   208   ar
   125   194   200   am
   126   194   193    1
   127   173   170    1
   128    82    79    1
   129    41    40    1
   130    41    42    2
   131    80    79    1
   132    80    81    2
   133   206   208   ar
   134    60    59    1
   135    60    62    1
   136    59    56    1
   137   199   197   ar
   138    40    39    1
   139    79    78    1
   140   196   197    1
   141   196   193    1
   142   197   198   ar
   143   193   192    1
   144   170   171    1
   145   170   169    1
   146   192   190   am
   147    57    56    1
   148    57    58    2
   149   171   172    2
   150    56    55    1
   151    78    72   am
   152    73    72    2
   153    55    50   am
   154   189   190    1
   155   189   188    1
   156   190   191    2
   157    72    71    1
   158    66    65    2
   159    48    49    1
   160   188   182   am
   161    68    67    1
   162    50    49    1
   163    50    51    2
   164   183   182    2
   165   182   181    1
   166    49    52    1
   167    76    74    1
   168    71    74    1
   169    71    70    1
   170    65    64    1
   171    52    53    1
   172    52    54    1
   173   180   181    1
   174    63    64    1
   175    67    64    1
   176    67    69    1
   177    74    75    1
   178   181   184    1
   179   184   186    1
   180   184   185    1
   181    75    77    1
   182   168   167   ar
   183   168   166   ar
   184   167   165   ar
   185   185   187    1
   186   166   164   ar
   187   165   164   ar
   188   162   161    2
   189   164   163    1
   190   158   156    1
   191   150   148    1
   192   157   155    1
   193   149   148    1
   194   161   160    1
   195   156   155    1
   196   148   147    1
   197   160   163    1
   198   160   159    1
   199   155   152    1
   200   147   144    1
   201   152   153    1
   202   152   151    1
   203   144   143    1
   204   144   145    1
   205   153   154    2
   206   146   145    2
