@<TRIPOS>MOLECULE
tmp/4kszA05.pdb
 96 94 0 0 0
SMALL
GASTEIGER

@<TRIPOS>ATOM
      1  N          9.8630    2.0340   19.2740 N.3   105  GLN105     -0.1245
      2  CA         8.9180    2.1700   20.3710 C.3   105  GLN105      0.1566
      3  C          7.4950    1.7280   19.9450 C.2   105  GLN105      0.2260
      4  O          6.7940    1.0230   20.7080 O.2   105  GLN105     -0.2867
      5  CB         8.8850    3.6020   20.9130 C.3   105  GLN105      0.0367
      6  CG         8.2100    3.6590   22.3060 C.3   105  GLN105      0.0905
      7  CD         7.9190    5.1040   22.7530 C.2   105  GLN105      0.2608
      8  OE1        7.9350    6.0430   21.9300 O.2   105  GLN105     -0.2717
      9  NE2        7.8100    5.3000   24.0690 N.am  105  GLN105     -0.0878
     10  N          5.3100   -1.5230   21.1910 N.3   109  HIS109     -0.1241
     11  CA         4.0290   -1.3660   21.8210 C.3   109  HIS109      0.1621
     12  C          3.0250   -2.2630   21.1760 C.2   109  HIS109      0.2264
     13  O          2.1400   -2.6580   21.8240 O.2   109  HIS109     -0.2867
     14  CB         3.5490    0.0970   21.8490 C.3   109  HIS109      0.0745
     15  CG         4.2710    0.9260   22.8630 C.ar  109  HIS109      0.0817
     16  ND1        3.9510    2.2440   23.1320 N.ar  109  HIS109     -0.2268
     17  CD2        5.3100    0.6120   23.6760 C.ar  109  HIS109      0.1154
     18  CE1        4.7550    2.6920   24.0780 C.ar  109  HIS109      0.1986
     19  NE2        5.5780    1.7200   24.4170 N.ar  109  HIS109     -0.2212
     20  N          3.1290   -5.6610   26.5200 N.3   113  PHE113     -0.1241
     21  CA         2.8990   -4.7160   27.5880 C.3   113  PHE113      0.1605
     22  C          2.6590   -5.5440   28.8070 C.2   113  PHE113      0.2264
     23  O          1.7130   -6.3470   28.8160 O.2   113  PHE113     -0.2867
     24  CB         1.6050   -3.9460   27.2760 C.3   113  PHE113      0.0534
     25  CG         1.2610   -2.8920   28.2870 C.ar  113  PHE113     -0.0203
     26  CD1        2.2490   -2.3240   29.0880 C.ar  113  PHE113     -0.0042
     27  CD2       -0.0540   -2.4110   28.3820 C.ar  113  PHE113     -0.0042
     28  CE1        1.9190   -1.3220   30.0150 C.ar  113  PHE113     -0.0003
     29  CE2       -0.3750   -1.3860   29.2830 C.ar  113  PHE113     -0.0003
     30  CZ         0.6030   -0.8510   30.1040 C.ar  113  PHE113     -0.0000
     31  N         -0.3790    3.4490   26.0850 N.3   254  ARG254     -0.1245
     32  CA         0.8080    4.2800   26.3180 C.3   254  ARG254      0.1563
     33  C          1.0000    5.3710   25.2820 C.2   254  ARG254      0.2260
     34  O          1.9580    6.0840   25.3710 O.2   254  ARG254     -0.2867
     35  CB         2.0930    3.4210   26.3540 C.3   254  ARG254      0.0307
     36  CG         2.0350    2.3000   27.3960 C.3   254  ARG254      0.0489
     37  CD         2.9610    1.1050   27.0830 C.3   254  ARG254      0.2205
     38  NE         2.4540    0.2460   26.0390 N.pl3 254  ARG254     -0.0865
     39  CZ         2.9600   -0.9330   25.6740 C.cat 254  ARG254      0.5346
     40  NH1        4.1350   -1.3720   26.1820 N.pl3 254  ARG254      0.1354
     41  NH2        2.3620   -1.6010   24.6850 N.pl3 254  ARG254      0.1354
     42  N          2.6290    8.7650   25.9950 N.3   257  GLU257     -0.1245
     43  CA         3.7530    8.8040   26.8380 C.3   257  GLU257      0.1567
     44  C          4.7560    9.8950   26.4400 C.2   257  GLU257      0.2260
     45  O          5.3230   10.5150   27.2990 O.2   257  GLU257     -0.2867
     46  CB         4.4160    7.4300   26.8820 C.3   257  GLU257      0.0388
     47  CG         5.6490    7.4050   27.8430 C.3   257  GLU257      0.1160
     48  CD         6.9890    7.5600   27.2080 C.2   257  GLU257      0.3649
     49  OE1        7.2040    7.5080   25.9430 O.co2 257  GLU257     -0.2457
     50  OE2        7.9220    7.7350   27.9960 O.co2 257  GLU257     -0.2457
     51  N          3.7470   12.8900   28.4290 N.3   380  PHE380     -0.1241
     52  CA         2.3220   13.1090   28.5640 C.3   380  PHE380      0.1605
     53  C          1.8760   14.4970   28.0570 C.2   380  PHE380      0.2264
     54  O          0.9350   15.0950   28.5270 O.2   380  PHE380     -0.2867
     55  CB         1.9290   12.6840   29.9600 C.3   380  PHE380      0.0534
     56  CG         2.3050   11.2290   30.2240 C.ar  380  PHE380     -0.0203
     57  CD1        1.4710   10.1840   29.7650 C.ar  380  PHE380     -0.0042
     58  CD2        3.5080   10.9050   30.8590 C.ar  380  PHE380     -0.0042
     59  CE1        1.7750    8.8500   29.9670 C.ar  380  PHE380     -0.0003
     60  CE2        3.8750    9.5190   31.0620 C.ar  380  PHE380     -0.0003
     61  CZ         3.0260    8.4870   30.5830 C.ar  380  PHE380     -0.0000
     62  N         12.3870   11.5070   34.2200 N.3   420  LEU420     -0.1231
     63  CA        11.1340   10.7910   33.7990 C.3   420  LEU420      0.1693
     64  C          9.9110   11.2010   34.6250 C.2   420  LEU420      0.2592
     65  O          9.9880   11.2640   35.8480 O.2   420  LEU420     -0.2718
     66  CB        11.3120    9.2650   33.8920 C.3   420  LEU420      0.0284
     67  CG        10.1170    8.4180   33.4170 C.3   420  LEU420      0.0019
     68  CD1       10.0090    8.5210   31.8290 C.3   420  LEU420      0.0001
     69  CD2       10.2690    7.0260   33.7950 C.3   420  LEU420      0.0001
     70  N          8.7820   11.4430   33.9560 N.am  421  PHE421     -0.1962
     71  CA         7.4940   11.5920   34.6240 C.3   421  PHE421      0.1771
     72  C          6.7210   10.2440   34.4760 C.2   421  PHE421      0.2619
     73  O          6.5550    9.7500   33.3730 O.2   421  PHE421     -0.2715
     74  CB         6.6730   12.7350   34.0030 C.3   421  PHE421      0.0574
     75  CG         5.2790   12.9670   34.6670 C.ar  421  PHE421     -0.0200
     76  CD1        5.1350   13.7580   35.7930 C.ar  421  PHE421     -0.0042
     77  CD2        4.1310   12.4310   34.1000 C.ar  421  PHE421     -0.0042
     78  CE1        3.8860   14.0000   36.3480 C.ar  421  PHE421     -0.0003
     79  CE2        2.8800   12.6230   34.6410 C.ar  421  PHE421     -0.0003
     80  CZ         2.7390   13.4010   35.7780 C.ar  421  PHE421     -0.0000
     81  N          6.2090    9.7350   35.5950 N.am  422  GLN422     -0.1964
     82  CA         5.2610    8.6160   35.5390 C.3   422  GLN422      0.1718
     83  C          3.8900    9.0750   36.0550 C.2   422  GLN422      0.2458
     84  O          3.8060    9.8100   37.0420 O.2   422  GLN422     -0.2730
     85  CB         5.7140    7.4050   36.3860 C.3   422  GLN422      0.0407
     86  CG         7.1210    7.0050   36.2130 C.3   422  GLN422      0.0908
     87  CD         7.2790    5.4920   36.2560 C.2   422  GLN422      0.2608
     88  OE1        7.3760    4.9050   37.3270 O.2   422  GLN422     -0.2717
     89  NE2        7.3180    4.8740   35.0940 N.am  422  GLN422     -0.0878
     90  N          2.8190    8.5320   35.4070 N.am  423  PRO423     -0.2727
     91  CA         1.4740    8.8940   35.8730 C.3   423  PRO423      0.1402
     92  C          1.2740    8.7810   37.3760 C.2   423  PRO423      0.2269
     93  O          1.6920    7.7940   37.9930 O.2   423  PRO423     -0.2865
     94  CB         0.5590    8.0380   35.0090 C.3   423  PRO423      0.0296
     95  CG         1.2710    8.1390   33.6710 C.3   423  PRO423      0.0237
     96  CD         2.7470    8.4090   33.9300 C.3   423  PRO423      0.0939
@<TRIPOS>BOND
     1     1     2    1
     2     3     2    1
     3     3     4    2
     4     2     5    1
     5     5     6    1
     6    12    11    1
     7    12    13    2
     8    10    11    1
     9    11    14    1
    10    14    15    1
    11     8     7    2
    12     6     7    1
    13     7     9   am
    14    15    16   ar
    15    15    17   ar
    16    16    18   ar
    17    17    19   ar
    18    18    19   ar
    19    41    39    1
    20    33    34    2
    21    33    32    1
    22    39    38    2
    23    39    40    1
    24    49    48   ar
    25    42    43    1
    26    38    37    1
    27    31    32    1
    28    32    35    1
    29    35    36    1
    30    44    43    1
    31    44    45    2
    32    20    21    1
    33    43    46    1
    34    46    47    1
    35    37    36    1
    36    48    47    1
    37    48    50   ar
    38    24    21    1
    39    24    25    1
    40    21    22    1
    41    53    54    2
    42    53    52    1
    43    25    27   ar
    44    25    26   ar
    45    27    29   ar
    46    51    52    1
    47    52    55    1
    48    22    23    2
    49    26    28   ar
    50    29    30   ar
    51    57    59   ar
    52    57    56   ar
    53    55    56    1
    54    59    61   ar
    55    28    30   ar
    56    56    58   ar
    57    61    60   ar
    58    58    60   ar
    59    68    67    1
    60    73    72    2
    61    67    69    1
    62    67    66    1
    63    95    96    1
    64    95    94    1
    65    63    66    1
    66    63    62    1
    67    63    64    1
    68    96    90    1
    69    70    71    1
    70    70    64   am
    71    74    71    1
    72    74    75    1
    73    77    79   ar
    74    77    75   ar
    75    72    71    1
    76    72    81   am
    77    64    65    2
    78    79    80   ar
    79    75    76   ar
    80    94    91    1
    81    89    87   am
    82    90    91    1
    83    90    83   am
    84    82    81    1
    85    82    83    1
    86    82    85    1
    87    80    78   ar
    88    76    78   ar
    89    91    92    1
    90    83    84    2
    91    86    87    1
    92    86    85    1
    93    87    88    2
    94    92    93    2
