@<TRIPOS>MOLECULE
tmp/4kt0A41.pdb
 230 222 0 0 0
SMALL
GASTEIGER

@<TRIPOS>ATOM
      1  N         17.7600   -4.8430   16.1590 N.3   352  ILE352     -0.1245
      2  CA        17.7740   -5.8280   17.2340 C.3   352  ILE352      0.1561
      3  C         19.2100   -6.1130   17.6760 C.2   352  ILE352      0.2260
      4  O         19.4760   -6.3210   18.8600 O.2   352  ILE352     -0.2867
      5  CB        17.0790   -7.1360   16.7930 C.3   352  ILE352      0.0252
      6  CG1       15.5650   -6.9140   16.7470 C.3   352  ILE352      0.0019
      7  CG2       17.4220   -8.2950   17.7350 C.3   352  ILE352      0.0019
      8  CD1       14.7650   -8.0850   16.2150 C.3   352  ILE352      0.0001
      9  N         21.0940   -5.7680   21.5380 N.3   356  GLN356     -0.1245
     10  CA        21.8490   -6.8140   22.2210 C.3   356  GLN356      0.1566
     11  C         23.3210   -6.4580   22.4300 C.2   356  GLN356      0.2260
     12  O         23.9840   -7.0330   23.2930 O.2   356  GLN356     -0.2867
     13  CB        21.7560   -8.1200   21.4320 C.3   356  GLN356      0.0367
     14  CG        20.3620   -8.7320   21.3960 C.3   356  GLN356      0.0905
     15  CD        20.1320   -9.7670   22.4840 C.2   356  GLN356      0.2608
     16  OE1       20.8920   -9.8590   23.4480 O.2   356  GLN356     -0.2717
     17  NE2       19.0740  -10.5560   22.3290 N.am  356  GLN356     -0.0878
     18  N         23.9390   -2.8750   25.2970 N.3   359  TYR359     -0.1241
     19  CA        23.7980   -3.0620   26.7400 C.3   359  TYR359      0.1605
     20  C         25.0040   -3.7930   27.3250 C.2   359  TYR359      0.2264
     21  O         25.5070   -3.4190   28.3840 O.2   359  TYR359     -0.2867
     22  CB        22.5050   -3.8200   27.0750 C.3   359  TYR359      0.0534
     23  CG        22.6130   -5.3300   27.0230 C.ar  359  TYR359     -0.0201
     24  CD1       22.4030   -6.0220   25.8380 C.ar  359  TYR359     -0.0009
     25  CD2       22.9160   -6.0640   28.1630 C.ar  359  TYR359     -0.0009
     26  CE1       22.4950   -7.4010   25.7890 C.ar  359  TYR359      0.0417
     27  CE2       23.0130   -7.4430   28.1230 C.ar  359  TYR359      0.0417
     28  CZ        22.8020   -8.1060   26.9320 C.ar  359  TYR359      0.1957
     29  OH        22.8960   -9.4770   26.8810 O.3   359  TYR359     -0.2866
     30  N         17.1610   -0.7570   25.2510 N.3   378  PHE378     -0.1241
     31  CA        17.1850   -2.1370   24.7830 C.3   378  PHE378      0.1605
     32  C         15.8250   -2.5840   24.2480 C.2   378  PHE378      0.2264
     33  O         15.7400   -3.1500   23.1590 O.2   378  PHE378     -0.2867
     34  CB        17.6420   -3.0590   25.9150 C.3   378  PHE378      0.0534
     35  CG        17.5230   -4.5220   25.5990 C.ar  378  PHE378     -0.0203
     36  CD1       18.5530   -5.1940   24.9620 C.ar  378  PHE378     -0.0042
     37  CD2       16.3860   -5.2290   25.9510 C.ar  378  PHE378     -0.0042
     38  CE1       18.4460   -6.5430   24.6760 C.ar  378  PHE378     -0.0003
     39  CE2       16.2730   -6.5760   25.6660 C.ar  378  PHE378     -0.0003
     40  CZ        17.3040   -7.2340   25.0300 C.ar  378  PHE378     -0.0000
     41  N         14.4170   -3.1370   20.3360 N.3   382  MET382     -0.1245
     42  CA        13.8370   -4.4590   20.1460 C.3   382  MET382      0.1570
     43  C         12.5230   -4.3530   19.3810 C.2   382  MET382      0.2261
     44  O         12.3230   -5.0430   18.3820 O.2   382  MET382     -0.2867
     45  CB        13.6100   -5.1540   21.4890 C.3   382  MET382      0.0387
     46  CG        14.8250   -5.9140   21.9870 C.3   382  MET382      0.0595
     47  SD        15.1460   -7.3870   21.0010 S.3   382  MET382     -0.1393
     48  CE        16.8170   -7.7820   21.5070 C.3   382  MET382      0.0692
     49  N         26.7400  -25.4820   25.2320 N.3   470  PHE470     -0.1227
     50  CA        27.3770  -24.8160   24.1050 C.3   470  PHE470      0.1736
     51  C         27.5930  -23.3230   24.3470 C.2   470  PHE470      0.2595
     52  O         28.6580  -22.7910   24.0410 O.2   470  PHE470     -0.2718
     53  CB        26.5370  -25.0260   22.8450 C.3   470  PHE470      0.0547
     54  CG        26.3240  -26.4680   22.4920 C.ar  470  PHE470     -0.0202
     55  CD1       27.3640  -27.3770   22.5820 C.ar  470  PHE470     -0.0042
     56  CD2       25.0840  -26.9170   22.0710 C.ar  470  PHE470     -0.0042
     57  CE1       27.1730  -28.7040   22.2580 C.ar  470  PHE470     -0.0003
     58  CE2       24.8880  -28.2450   21.7450 C.ar  470  PHE470     -0.0003
     59  CZ        25.9330  -29.1390   21.8390 C.ar  470  PHE470     -0.0000
     60  N         26.5850  -22.6500   24.8930 N.am  471  ALA471     -0.1980
     61  CA        26.6630  -21.2100   25.1150 C.3   471  ALA471      0.1597
     62  C         27.6880  -20.8730   26.1930 C.2   471  ALA471      0.2287
     63  O         28.3640  -19.8460   26.1180 O.2   471  ALA471     -0.2864
     64  CB        25.3020  -20.6610   25.4930 C.3   471  ALA471      0.0319
     65  N         30.3360  -22.5020   26.6320 N.3   473  TRP473     -0.1227
     66  CA        31.6380  -22.7790   26.0410 C.3   473  TRP473      0.1737
     67  C         32.1910  -21.5760   25.2840 C.2   473  TRP473      0.2595
     68  O         33.4020  -21.3570   25.2630 O.2   473  TRP473     -0.2718
     69  CB        31.5430  -23.9870   25.1080 C.3   473  TRP473      0.0564
     70  CG        32.8580  -24.4290   24.5520 C.ar  473  TRP473      0.0003
     71  CD1       33.9490  -24.8440   25.2590 C.ar  473  TRP473      0.0946
     72  CD2       33.2190  -24.5160   23.1690 C.ar  473  TRP473      0.0152
     73  NE1       34.9700  -25.1760   24.4010 N.ar  473  TRP473     -0.2442
     74  CE2       34.5460  -24.9840   23.1120 C.ar  473  TRP473      0.0810
     75  CE3       32.5490  -24.2400   21.9730 C.ar  473  TRP473      0.0012
     76  CZ2       35.2170  -25.1830   21.9080 C.ar  473  TRP473      0.0191
     77  CZ3       33.2160  -24.4380   20.7790 C.ar  473  TRP473      0.0001
     78  CH2       34.5360  -24.9040   20.7550 C.ar  473  TRP473      0.0015
     79  N         31.3120  -20.7920   24.6680 N.am  474  VAL474     -0.1966
     80  CA        31.7590  -19.6230   23.9210 C.3   474  VAL474      0.1727
     81  C         32.1380  -18.5030   24.8850 C.2   474  VAL474      0.2616
     82  O         33.0050  -17.6830   24.5840 O.2   474  VAL474     -0.2715
     83  CB        30.6940  -19.0990   22.9400 C.3   474  VAL474      0.0290
     84  CG1       31.3500  -18.1770   21.9310 C.3   474  VAL474      0.0023
     85  CG2       30.0050  -20.2390   22.2180 C.3   474  VAL474      0.0023
     86  N         31.4810  -18.4700   26.0410 N.am  475  GLN475     -0.1977
     87  CA        31.8290  -17.5140   27.0870 C.3   475  GLN475      0.1601
     88  C         33.2380  -17.7840   27.5880 C.2   475  GLN475      0.2287
     89  O         33.9800  -16.8610   27.9210 O.2   475  GLN475     -0.2864
     90  CB        30.8390  -17.5870   28.2500 C.3   475  GLN475      0.0394
     91  CG        29.5210  -16.8860   27.9930 C.3   475  GLN475      0.0908
     92  CD        28.5980  -16.9380   29.1910 C.2   475  GLN475      0.2608
     93  OE1       28.9260  -17.5370   30.2160 O.2   475  GLN475     -0.2717
     94  NE2       27.4360  -16.3080   29.0700 N.am  475  GLN475     -0.0878
     95  N         35.7230  -16.5120   24.9850 N.3   478  HIS478     -0.1241
     96  CA        35.7230  -15.0580   24.8440 C.3   478  HIS478      0.1621
     97  C         36.5990  -14.3770   25.8930 C.2   478  HIS478      0.2264
     98  O         37.2170  -13.3490   25.6150 O.2   478  HIS478     -0.2867
     99  CB        34.2940  -14.5120   24.9320 C.3   478  HIS478      0.0745
    100  CG        33.4870  -14.7230   23.6890 C.ar  478  HIS478      0.0817
    101  ND1       32.1280  -14.5050   23.6400 N.ar  478  HIS478     -0.2268
    102  CD2       33.8480  -15.1250   22.4470 C.ar  478  HIS478      0.1154
    103  CE1       31.6850  -14.7640   22.4230 C.ar  478  HIS478      0.1986
    104  NE2       32.7090  -15.1450   21.6800 N.ar  478  HIS478     -0.2212
    105  N         30.2910   -9.5960   30.2020 N.3   496  ALA496     -0.1231
    106  CA        29.1620  -10.5120   30.3130 C.3   496  ALA496      0.1694
    107  C         29.6120  -11.9350   30.0010 C.2   496  ALA496      0.2592
    108  O         29.0780  -12.8990   30.5480 O.2   496  ALA496     -0.2718
    109  CB        28.0370  -10.0900   29.3800 C.3   496  ALA496      0.0304
    110  N         30.5970  -12.0550   29.1160 N.am  497  PHE497     -0.1976
    111  CA        31.1860  -13.3500   28.7950 C.3   497  PHE497      0.1639
    112  C         31.9560  -13.9050   29.9900 C.2   497  PHE497      0.2290
    113  O         32.1730  -15.1130   30.0940 O.2   497  PHE497     -0.2864
    114  CB        32.1180  -13.2330   27.5850 C.3   497  PHE497      0.0560
    115  CG        31.4240  -12.8330   26.3130 C.ar  497  PHE497     -0.0200
    116  CD1       30.2240  -13.4170   25.9430 C.ar  497  PHE497     -0.0042
    117  CD2       31.9750  -11.8690   25.4850 C.ar  497  PHE497     -0.0042
    118  CE1       29.5890  -13.0490   24.7710 C.ar  497  PHE497     -0.0003
    119  CE2       31.3450  -11.4960   24.3140 C.ar  497  PHE497     -0.0003
    120  CZ        30.1490  -12.0850   23.9570 C.ar  497  PHE497     -0.0000
    121  N         27.5790  -12.5600   33.0530 N.3   513  ILE513     -0.1245
    122  CA        26.2100  -13.0500   32.9690 C.3   513  ILE513      0.1561
    123  C         26.2180  -14.5640   32.7850 C.2   513  ILE513      0.2260
    124  O         26.2740  -15.0660   31.6620 O.2   513  ILE513     -0.2867
    125  CB        25.4390  -12.3810   31.8110 C.3   513  ILE513      0.0252
    126  CG1       25.5560  -10.8560   31.9200 C.3   513  ILE513      0.0019
    127  CG2       23.9780  -12.8290   31.8200 C.3   513  ILE513      0.0019
    128  CD1       24.8070  -10.0780   30.8510 C.3   513  ILE513      0.0001
    129  N         25.0300  -18.4850   32.6700 N.3   515  LEU515     -0.1245
    130  CA        23.9020  -19.1350   32.0130 C.3   515  LEU515      0.1561
    131  C         23.6180  -20.5000   32.6310 C.2   515  LEU515      0.2260
    132  O         24.5120  -21.3420   32.7400 O.2   515  LEU515     -0.2867
    133  CB        24.1730  -19.2820   30.5140 C.3   515  LEU515      0.0270
    134  CG        24.4360  -17.9720   29.7670 C.3   515  LEU515      0.0019
    135  CD1       24.8070  -18.2440   28.3170 C.3   515  LEU515      0.0001
    136  CD2       23.2290  -17.0470   29.8470 C.3   515  LEU515      0.0001
    137  N         18.0550  -20.0970   31.8590 N.3   519  ASP519     -0.1239
    138  CA        18.3760  -19.4300   30.6030 C.3   519  ASP519      0.1674
    139  C         18.0860  -20.3510   29.4260 C.2   519  ASP519      0.2266
    140  O         17.5850  -19.9140   28.3890 O.2   519  ASP519     -0.2867
    141  CB        19.8450  -18.9980   30.5770 C.3   519  ASP519      0.1410
    142  CG        20.1430  -17.8790   31.5540 C.2   519  ASP519      0.3668
    143  OD1       19.9260  -16.7030   31.1930 O.co2 519  ASP519     -0.2456
    144  OD2       20.6020  -18.1730   32.6780 O.co2 519  ASP519     -0.2456
    145  N         15.5790  -19.3840   26.2310 N.3   523  HIS523     -0.1241
    146  CA        16.2490  -19.3170   24.9380 C.3   523  HIS523      0.1621
    147  C         15.5360  -20.2100   23.9260 C.2   523  HIS523      0.2264
    148  O         15.5530  -19.9390   22.7250 O.2   523  HIS523     -0.2867
    149  CB        17.7190  -19.7200   25.0610 C.3   523  HIS523      0.0745
    150  CG        18.6430  -18.5620   25.2740 C.ar  523  HIS523      0.0817
    151  ND1       19.0300  -18.1360   26.5270 N.ar  523  HIS523     -0.2268
    152  CD2       19.2500  -17.7330   24.3920 C.ar  523  HIS523      0.1154
    153  CE1       19.8400  -17.0990   26.4070 C.ar  523  HIS523      0.1986
    154  NE2       19.9900  -16.8340   25.1220 N.ar  523  HIS523     -0.2212
    155  N         12.3560  -18.3550   23.0100 N.3   526  HIS526     -0.1226
    156  CA        12.6690  -17.3270   22.0290 C.3   526  HIS526      0.1752
    157  C         12.8320  -17.9480   20.6510 C.2   526  HIS526      0.2595
    158  O         12.4140  -17.3750   19.6460 O.2   526  HIS526     -0.2718
    159  CB        13.9330  -16.5750   22.4390 C.3   526  HIS526      0.0759
    160  CG        13.7540  -15.7290   23.6600 C.ar  526  HIS526      0.0818
    161  ND1       14.7950  -15.0590   24.2650 N.ar  526  HIS526     -0.2268
    162  CD2       12.6490  -15.4440   24.3910 C.ar  526  HIS526      0.1154
    163  CE1       14.3390  -14.3950   25.3120 C.ar  526  HIS526      0.1986
    164  NE2       13.0410  -14.6140   25.4110 N.ar  526  HIS526     -0.2212
    165  N         13.4380  -19.1270   20.6110 N.am  527  ALA527     -0.1980
    166  CA        13.5370  -19.8880   19.3750 C.3   527  ALA527      0.1597
    167  C         12.1470  -20.2800   18.8890 C.2   527  ALA527      0.2287
    168  O         11.8570  -20.2360   17.6930 O.2   527  ALA527     -0.2864
    169  CB        14.3880  -21.1190   19.5790 C.3   527  ALA527      0.0319
    170  N          9.8610  -17.1840   17.6220 N.3   530  ILE530     -0.1245
    171  CA        10.4250  -16.5880   16.4150 C.3   530  ILE530      0.1561
    172  C         10.1400  -17.4690   15.1990 C.2   530  ILE530      0.2260
    173  O          9.8310  -16.9630   14.1190 O.2   530  ILE530     -0.2867
    174  CB        11.9470  -16.3510   16.5630 C.3   530  ILE530      0.0252
    175  CG1       12.1930  -15.2050   17.5490 C.3   530  ILE530      0.0019
    176  CG2       12.5900  -16.0070   15.2170 C.3   530  ILE530      0.0019
    177  CD1       13.6430  -15.0150   17.9530 C.3   530  ILE530      0.0001
    178  N          8.5600  -10.7560   21.2830 N.3   590  LEU590     -0.1245
    179  CA         9.4620   -9.7370   21.8110 C.3   590  LEU590      0.1561
    180  C          9.1280   -9.3570   23.2510 C.2   590  LEU590      0.2260
    181  O         10.0030   -8.9290   24.0020 O.2   590  LEU590     -0.2867
    182  CB         9.4310   -8.4910   20.9220 C.3   590  LEU590      0.0270
    183  CG        10.5250   -8.4330   19.8520 C.3   590  LEU590      0.0019
    184  CD1       10.5680   -9.7130   19.0270 C.3   590  LEU590      0.0001
    185  CD2       10.3230   -7.2290   18.9480 C.3   590  LEU590      0.0001
    186  N         11.0280  -11.5170   25.3190 N.3   593  VAL593     -0.1245
    187  CA        12.4480  -11.1920   25.2090 C.3   593  VAL593      0.1561
    188  C         12.7970  -10.0430   26.1520 C.2   593  VAL593      0.2260
    189  O         13.8100  -10.0950   26.8490 O.2   593  VAL593     -0.2867
    190  CB        12.8460  -10.8190   23.7590 C.3   593  VAL593      0.0252
    191  CG1       14.2710  -10.2680   23.7000 C.3   593  VAL593      0.0019
    192  CG2       12.7240  -12.0300   22.8470 C.3   593  VAL593      0.0019
    193  N         12.5560  -11.3880   29.6890 N.3   596  HIS596     -0.1226
    194  CA        13.7850  -12.1310   29.9580 C.3   596  HIS596      0.1752
    195  C         14.8990  -11.1540   30.3400 C.2   596  HIS596      0.2596
    196  O         15.6460  -11.3910   31.2880 O.2   596  HIS596     -0.2718
    197  CB        14.1700  -12.9710   28.7310 C.3   596  HIS596      0.0759
    198  CG        15.4590  -13.7260   28.8700 C.ar  596  HIS596      0.0818
    199  ND1       16.0220  -14.4220   27.8210 N.ar  596  HIS596     -0.2268
    200  CD2       16.2880  -13.9070   29.9250 C.ar  596  HIS596      0.1154
    201  CE1       17.1450  -14.9890   28.2190 C.ar  596  HIS596      0.1986
    202  NE2       17.3310  -14.6930   29.4930 N.ar  596  HIS596     -0.2212
    203  N         14.9850  -10.0400   29.6200 N.am  597  PHE597     -0.1976
    204  CA        16.0300   -9.0530   29.8750 C.3   597  PHE597      0.1639
    205  C         15.8770   -8.4090   31.2490 C.2   597  PHE597      0.2290
    206  O         16.8140   -8.4070   32.0450 O.2   597  PHE597     -0.2864
    207  CB        16.0250   -7.9680   28.7970 C.3   597  PHE597      0.0560
    208  CG        17.1620   -6.9930   28.9190 C.ar  597  PHE597     -0.0200
    209  CD1       18.4450   -7.3610   28.5570 C.ar  597  PHE597     -0.0042
    210  CD2       16.9490   -5.7110   29.3970 C.ar  597  PHE597     -0.0042
    211  CE1       19.4960   -6.4720   28.6680 C.ar  597  PHE597     -0.0003
    212  CE2       17.9960   -4.8150   29.5090 C.ar  597  PHE597     -0.0003
    213  CZ        19.2710   -5.1970   29.1430 C.ar  597  PHE597     -0.0000
    214  N         16.4660  -10.9370   34.2200 N.3   600  LYS600     -0.1231
    215  CA        17.8290  -11.4640   34.2290 C.3   600  LYS600      0.1693
    216  C         18.8470  -10.4190   34.6800 C.2   600  LYS600      0.2591
    217  O         19.8200  -10.7490   35.3580 O.2   600  LYS600     -0.2718
    218  CB        18.2080  -11.9890   32.8400 C.3   600  LYS600      0.0285
    219  CG        19.5770  -12.6620   32.7700 C.3   600  LYS600      0.0035
    220  CD        19.6080  -13.9720   33.5450 C.3   600  LYS600      0.0206
    221  CE        20.9860  -14.6160   33.4870 C.3   600  LYS600      0.1093
    222  NZ        21.0170  -15.9470   34.1530 N.3   600  LYS600     -0.1314
    223  N         18.6250   -9.1620   34.3040 N.am  601  MET601     -0.1979
    224  CA        19.5690   -8.0950   34.6290 C.3   601  MET601      0.1605
    225  C         19.4370   -7.6500   36.0850 C.2   601  MET601      0.2287
    226  O         20.4370   -7.4020   36.7560 O.2   601  MET601     -0.2864
    227  CB        19.3680   -6.8980   33.6950 C.3   601  MET601      0.0413
    228  CG        19.7490   -7.1690   32.2420 C.3   601  MET601      0.0598
    229  SD        21.4910   -7.5850   32.0090 S.3   601  MET601     -0.1393
    230  CE        22.2530   -5.9640   32.0590 C.3   601  MET601      0.0692
@<TRIPOS>BOND
     1   173   172    2
     2   172   171    1
     3   176   174    1
     4     1     2    1
     5     8     6    1
     6   171   174    1
     7   171   170    1
     8   174   175    1
     9     6     5    1
    10     5     2    1
    11     5     7    1
    12     2     3    1
    13   175   177    1
    14     3     4    2
    15   168   167    2
    16    44    43    2
    17   167   166    1
    18   185   183    1
    19   184   183    1
    20   166   169    1
    21   166   165    1
    22    43    42    1
    23   158   157    2
    24   183   182    1
    25    42    41    1
    26    42    45    1
    27   165   157   am
    28   157   156    1
    29    78    77   ar
    30    78    76   ar
    31    77    75   ar
    32   182   179    1
    33    47    48    1
    34    47    46    1
    35   178   179    1
    36    14    13    1
    37    14    15    1
    38    13    10    1
    39    45    46    1
    40     9    10    1
    41   104   103   ar
    42   104   102   ar
    43    58    59   ar
    44    58    56   ar
    45   179   180    1
    46    59    57   ar
    47    76    74   ar
    48    84    83    1
    49    75    72   ar
    50   156   159    1
    51   156   155    1
    52    56    54   ar
    53    85    83    1
    54    10    11    1
    55    57    55   ar
    56    17    15   am
    57   103   101   ar
    58    11    12    2
    59   159   160    1
    60   102   100   ar
    61    15    16    2
    62    54    55   ar
    63    54    53    1
    64   148   147    2
    65    53    50    1
    66   192   190    1
    67    83    80    1
    68    74    72   ar
    69    74    73   ar
    70    33    32    2
    71    72    70   ar
    72   180   181    2
    73   101   100   ar
    74   160   161   ar
    75   160   162   ar
    76   100    99    1
    77   191   190    1
    78   190   187    1
    79    80    79    1
    80    80    81    1
    81   147   146    1
    82   120   119   ar
    83   120   118   ar
    84    52    51    2
    85    50    51    1
    86    50    49    1
    87    32    31    1
    88   161   163   ar
    89   119   117   ar
    90    51    60   am
    91   162   164   ar
    92   152   154   ar
    93   152   150   ar
    94    73    71   ar
    95    70    69    1
    96    70    71   ar
    97    82    81    2
    98    79    67   am
    99    38    36   ar
   100    38    40   ar
   101   118   116   ar
   102    31    30    1
   103    31    34    1
   104    96    99    1
   105    96    95    1
   106    96    97    1
   107    81    86   am
   108    60    61    1
   109   146   149    1
   110   146   145    1
   111    36    35   ar
   112    40    39   ar
   113   149   150    1
   114    69    66    1
   115    61    64    1
   116    61    62    1
   117   154   153   ar
   118   187   186    1
   119   187   188    1
   120    68    67    2
   121   150   151   ar
   122    67    66    1
   123    18    19    1
   124   163   164   ar
   125   117   115   ar
   126    35    34    1
   127    35    37   ar
   128    98    97    2
   129    39    37   ar
   130    26    24   ar
   131    26    28   ar
   132    24    23   ar
   133   116   115   ar
   134    86    87    1
   135    66    65    1
   136    63    62    2
   137   188   189    2
   138   115   114    1
   139   153   151   ar
   140    19    22    1
   141    19    20    1
   142    29    28    1
   143    28    27   ar
   144    23    22    1
   145    23    25   ar
   146    87    88    1
   147    87    90    1
   148    20    21    2
   149   114   111    1
   150    88    89    2
   151   199   201   ar
   152   199   198   ar
   153    91    90    1
   154    91    92    1
   155    27    25   ar
   156   201   202   ar
   157   135   134    1
   158   140   139    2
   159   209   211   ar
   160   209   208   ar
   161   211   213   ar
   162   197   198    1
   163   197   194    1
   164   111   110    1
   165   111   112    1
   166   207   208    1
   167   207   204    1
   168   198   200   ar
   169   208   210   ar
   170    94    92   am
   171   110   107   am
   172   213   212   ar
   173    92    93    2
   174   109   106    1
   175   210   212   ar
   176   139   138    1
   177   202   200   ar
   178   203   204    1
   179   203   195   am
   180   193   194    1
   181   134   136    1
   182   134   133    1
   183   204   205    1
   184   194   195    1
   185   112   113    2
   186   107   106    1
   187   107   108    2
   188   105   106    1
   189   195   196    2
   190   133   130    1
   191   141   138    1
   192   141   142    1
   193   138   137    1
   194   128   126    1
   195   143   142   ar
   196   205   206    2
   197   142   144   ar
   198   124   123    2
   199   125   127    1
   200   125   126    1
   201   125   122    1
   202   229   230    1
   203   229   228    1
   204   130   131    1
   205   130   129    1
   206   228   227    1
   207   131   132    2
   208   219   218    1
   209   219   220    1
   210   123   122    1
   211   218   215    1
   212   122   121    1
   213   221   220    1
   214   221   222    1
   215   227   224    1
   216   214   215    1
   217   215   216    1
   218   223   224    1
   219   223   216   am
   220   224   225    1
   221   216   217    2
   222   225   226    2
