@<TRIPOS>MOLECULE
tmp/4kt0B53.pdb
 65 60 0 0 0
SMALL
GASTEIGER

@<TRIPOS>ATOM
      1  N        -53.7810  -17.9770   68.0680 N.3   229  GLY229     -0.1225
      2  CA       -52.8580  -17.2510   68.9220 C.3   229  GLY229      0.1811
      3  C        -51.9580  -18.1560   69.7420 C.2   229  GLY229      0.2280
      4  O        -50.8410  -17.7780   70.0940 O.2   229  GLY229     -0.2866
      5  N        -48.3890  -19.0690   68.6740 N.3   232  ALA232     -0.1231
      6  CA       -47.3830  -18.0310   68.8690 C.3   232  ALA232      0.1694
      7  C        -47.2920  -17.7020   70.3560 C.2   232  ALA232      0.2591
      8  O        -47.1390  -16.5430   70.7400 O.2   232  ALA232     -0.2718
      9  CB       -47.7270  -16.7900   68.0590 C.3   232  ALA232      0.0304
     10  N        -47.3880  -18.7380   71.1860 N.am  233  ALA233     -0.1980
     11  CA       -47.4310  -18.5720   72.6350 C.3   233  ALA233      0.1597
     12  C        -46.0840  -18.1430   73.2090 C.2   233  ALA233      0.2287
     13  O        -45.8880  -16.9730   73.5390 O.2   233  ALA233     -0.2864
     14  CB       -47.8910  -19.8650   73.2950 C.3   233  ALA233      0.0319
     15  N        -42.2900  -17.9920   72.2640 N.3   235  PRO235     -0.2116
     16  CA       -41.1890  -18.1250   71.3030 C.3   235  PRO235      0.1372
     17  C        -39.8700  -18.4960   71.9670 C.2   235  PRO235      0.2244
     18  O        -39.7660  -18.4500   73.1920 O.2   235  PRO235     -0.2868
     19  CB       -41.0910  -16.7290   70.6760 C.3   235  PRO235      0.0268
     20  CG       -42.3920  -16.0740   70.9640 C.3   235  PRO235      0.0207
     21  CD       -42.8370  -16.6250   72.2780 C.3   235  PRO235      0.0892
     22  N        -41.4890  -13.0940   64.4460 N.3   256  LEU256     -0.1245
     23  CA       -40.6000  -12.3160   65.3010 C.3   256  LEU256      0.1561
     24  C        -39.8830  -11.2080   64.5420 C.2   256  LEU256      0.2260
     25  O        -39.7900  -10.0790   65.0250 O.2   256  LEU256     -0.2867
     26  CB       -39.5700  -13.2350   65.9680 C.3   256  LEU256      0.0270
     27  CG       -40.1130  -14.2720   66.9590 C.3   256  LEU256      0.0019
     28  CD1      -38.9790  -15.0980   67.5500 C.3   256  LEU256      0.0001
     29  CD2      -40.9190  -13.6110   68.0690 C.3   256  LEU256      0.0001
     30  N        -47.2270    6.6440   60.7270 N.3   480  ILE480     -0.1245
     31  CA       -48.3320    5.7090   60.8920 C.3   480  ILE480      0.1561
     32  C        -47.8260    4.2920   60.6370 C.2   480  ILE480      0.2260
     33  O        -48.4150    3.3170   61.1010 O.2   480  ILE480     -0.2867
     34  CB       -49.5140    6.0040   59.9280 C.3   480  ILE480      0.0252
     35  CG1      -49.7530    7.5080   59.7390 C.3   480  ILE480      0.0019
     36  CG2      -50.7900    5.3550   60.4460 C.3   480  ILE480      0.0019
     37  CD1      -49.9980    7.8960   58.2980 C.3   480  ILE480      0.0001
     38  N        -46.3490    2.7060   63.9120 N.3   483  THR483     -0.1203
     39  CA       -47.3310    2.5500   64.9750 C.3   483  THR483      0.1994
     40  C        -48.4360    1.5850   64.5650 C.2   483  THR483      0.2619
     41  O        -49.5020    1.5490   65.1700 O.2   483  THR483     -0.2717
     42  CB       -47.9550    3.9050   65.3470 C.3   483  THR483      0.1784
     43  OG1      -49.0070    4.2240   64.4310 O.3   483  THR483     -0.2211
     44  CG2      -46.9080    4.9960   65.2980 C.3   483  THR483      0.0376
     45  N        -48.1270    0.7690   63.5640 N.am  484  THR484     -0.1938
     46  CA       -49.1180    0.0110   62.8100 C.3   484  THR484      0.2028
     47  C        -49.9360   -1.0030   63.6090 C.2   484  THR484      0.2643
     48  O        -51.1320   -1.1470   63.3680 O.2   484  THR484     -0.2714
     49  CB       -48.4500   -0.7350   61.6350 C.3   484  THR484      0.1808
     50  OG1      -47.1730   -1.2390   62.0440 O.3   484  THR484     -0.2208
     51  CG2      -48.2700    0.1880   60.4430 C.3   484  THR484      0.0379
     52  N        -49.3090   -1.7310   64.5250 N.am  485  GLY485     -0.1939
     53  CA       -47.9370   -1.5060   64.9290 C.3   485  GLY485      0.2014
     54  C        -47.3330   -2.7660   65.5170 C.2   485  GLY485      0.2639
     55  O        -48.0250   -3.7610   65.7180 O.2   485  GLY485     -0.2714
     56  N        -46.0320   -2.7230   65.7760 N.am  486  ALA486     -0.1963
     57  CA       -45.3220   -3.8500   66.3690 C.3   486  ALA486      0.1728
     58  C        -45.3560   -5.0880   65.4680 C.2   486  ALA486      0.2616
     59  O        -45.0200   -4.9910   64.2890 O.2   486  ALA486     -0.2715
     60  CB       -45.8920   -4.1540   67.7470 C.3   486  ALA486      0.0334
     61  N        -45.7330   -6.2500   65.9960 N.am  487  ALA487     -0.1977
     62  CA       -45.5920   -7.4740   65.2310 C.3   487  ALA487      0.1597
     63  C        -44.0970   -7.6880   64.9470 C.2   487  ALA487      0.2287
     64  O        -43.3110   -7.7960   65.8820 O.2   487  ALA487     -0.2864
     65  CB       -46.4280   -7.4100   63.9630 C.3   487  ALA487      0.0319
@<TRIPOS>BOND
     1    37    35    1
     2    35    34    1
     3    34    36    1
     4    34    31    1
     5    51    49    1
     6    32    31    1
     7    32    33    2
     8    30    31    1
     9    49    50    1
    10    49    46    1
    11    46    45    1
    12    46    47    1
    13    48    47    2
    14    45    40   am
    15    47    52   am
    16    38    39    1
    17    65    62    1
    18    59    58    2
    19    43    42    1
    20    22    23    1
    21    52    53    1
    22    24    25    2
    23    24    23    1
    24    40    39    1
    25    40    41    2
    26    53    54    1
    27    63    62    1
    28    63    64    2
    29    39    42    1
    30    62    61    1
    31    44    42    1
    32    23    26    1
    33    58    61   am
    34    58    57    1
    35    54    55    2
    36    54    56   am
    37    56    57    1
    38    26    27    1
    39    57    60    1
    40    27    28    1
    41    27    29    1
    42     9     6    1
    43     1     2    1
    44     5     6    1
    45     6     7    1
    46     2     3    1
    47     3     4    2
    48     7     8    2
    49     7    10   am
    50    19    20    1
    51    19    16    1
    52    20    21    1
    53    10    11    1
    54    16    17    1
    55    16    15    1
    56    17    18    2
    57    15    21    1
    58    11    12    1
    59    11    14    1
    60    12    13    2
