@<TRIPOS>MOLECULE
tmp/4kt0B22.pdb
 76 73 0 0 0
SMALL
GASTEIGER

@<TRIPOS>ATOM
      1  N        -55.2210  -21.2910   46.5480 N.3   284  ILE284     -0.1231
      2  CA       -56.3460  -20.5330   46.0120 C.3   284  ILE284      0.1692
      3  C        -55.9830  -19.9980   44.6300 C.2   284  ILE284      0.2591
      4  O        -56.8520  -19.7920   43.7870 O.2   284  ILE284     -0.2718
      5  CB       -56.7600  -19.3610   46.9390 C.3   284  ILE284      0.0266
      6  CG1      -55.7050  -18.2510   46.9420 C.3   284  ILE284      0.0019
      7  CG2      -57.0220  -19.8600   48.3550 C.3   284  ILE284      0.0020
      8  CD1      -56.0520  -17.0760   46.0430 C.3   284  ILE284      0.0001
      9  N        -54.6890  -19.7890   44.4040 N.am  285  ALA285     -0.1980
     10  CA       -54.1990  -19.2870   43.1260 C.3   285  ALA285      0.1597
     11  C        -54.4000  -20.3150   42.0170 C.2   285  ALA285      0.2287
     12  O        -54.5900  -19.9570   40.8540 O.2   285  ALA285     -0.2864
     13  CB       -52.7280  -18.9140   43.2340 C.3   285  ALA285      0.0319
     14  N        -56.8620  -22.0740   41.4320 N.3   287  HIS287     -0.1226
     15  CA       -58.2890  -22.2370   41.1640 C.3   287  HIS287      0.1752
     16  C        -58.7870  -21.1780   40.1880 C.2   287  HIS287      0.2595
     17  O        -59.9920  -20.9560   40.0590 O.2   287  HIS287     -0.2718
     18  CB       -59.0880  -22.1490   42.4650 C.3   287  HIS287      0.0759
     19  CG       -58.8770  -23.3060   43.3880 C.ar  287  HIS287      0.0818
     20  ND1      -57.6390  -23.6480   43.8890 N.ar  287  HIS287     -0.2268
     21  CD2      -59.7520  -24.1980   43.9070 C.ar  287  HIS287      0.1154
     22  CE1      -57.7600  -24.7030   44.6740 C.ar  287  HIS287      0.1986
     23  NE2      -59.0330  -25.0530   44.7050 N.ar  287  HIS287     -0.2212
     24  N        -57.8580  -20.5220   39.5040 N.am  288  MET288     -0.1979
     25  CA       -58.2000  -19.3660   38.6890 C.3   288  MET288      0.1605
     26  C        -58.7590  -19.7490   37.3230 C.2   288  MET288      0.2287
     27  O        -59.7450  -19.1700   36.8660 O.2   288  MET288     -0.2864
     28  CB       -56.9750  -18.4720   38.5080 C.3   288  MET288      0.0413
     29  CG       -57.2670  -17.2180   37.7150 C.3   288  MET288      0.0598
     30  SD       -55.9130  -16.0340   37.7010 S.3   288  MET288     -0.1393
     31  CE       -56.7080  -14.7080   36.8050 C.3   288  MET288      0.0692
     32  N        -60.1860  -22.1820   34.0510 N.3   290  ARG290     -0.1245
     33  CA       -61.3090  -23.0880   33.8520 C.3   290  ARG290      0.1563
     34  C        -60.8720  -24.4820   33.4250 C.2   290  ARG290      0.2260
     35  O        -59.9670  -24.6380   32.6040 O.2   290  ARG290     -0.2867
     36  CB       -62.2690  -22.5130   32.8080 C.3   290  ARG290      0.0307
     37  CG       -63.3030  -23.5050   32.3090 C.3   290  ARG290      0.0489
     38  CD       -64.5130  -22.7980   31.7280 C.3   290  ARG290      0.2205
     39  NE       -64.1570  -21.8850   30.6420 N.pl3 290  ARG290     -0.0865
     40  CZ       -64.6220  -20.6450   30.5030 C.cat 290  ARG290      0.5346
     41  NH1      -65.4760  -20.1300   31.3780 N.pl3 290  ARG290      0.1354
     42  NH2      -64.2280  -19.9080   29.4740 N.pl3 290  ARG290      0.1354
     43  N        -67.0080  -25.4720   34.3720 N.3   294  GLY294     -0.1210
     44  CA       -67.5680  -24.1720   34.0370 C.3   294  GLY294      0.1956
     45  C        -66.9250  -22.9880   34.7410 C.2   294  GLY294      0.2612
     46  O        -66.6920  -21.9480   34.1260 O.2   294  GLY294     -0.2717
     47  N        -66.6600  -23.1320   36.0350 N.am  295  ILE295     -0.1965
     48  CA       -66.0160  -22.0810   36.8120 C.3   295  ILE295      0.1727
     49  C        -64.5590  -21.9040   36.3890 C.2   295  ILE295      0.2617
     50  O        -63.9050  -22.8650   35.9850 O.2   295  ILE295     -0.2715
     51  CB       -66.0840  -22.3840   38.3260 C.3   295  ILE295      0.0290
     52  CG1      -65.5000  -23.7690   38.6350 C.3   295  ILE295      0.0022
     53  CG2      -67.5250  -22.2980   38.8090 C.3   295  ILE295      0.0023
     54  CD1      -65.2920  -24.0310   40.1130 C.3   295  ILE295      0.0001
     55  N        -64.0660  -20.6700   36.4790 N.am  296  GLY296     -0.1940
     56  CA       -62.7010  -20.3450   36.0960 C.3   296  GLY296      0.2014
     57  C        -62.6490  -19.5040   34.8350 C.2   296  GLY296      0.2638
     58  O        -63.6870  -19.1840   34.2540 O.2   296  GLY296     -0.2714
     59  N        -61.4380  -19.1440   34.4140 N.am  297  HIS297     -0.1973
     60  CA       -61.2420  -18.3930   33.1770 C.3   297  HIS297      0.1656
     61  C        -60.7140  -19.2570   32.0510 C.2   297  HIS297      0.2291
     62  O        -60.1480  -20.3260   32.2740 O.2   297  HIS297     -0.2864
     63  CB       -60.2470  -17.2470   33.3600 C.3   297  HIS297      0.0771
     64  CG       -60.5210  -16.3730   34.5370 C.ar  297  HIS297      0.0820
     65  ND1      -59.7020  -16.3510   35.6440 N.ar  297  HIS297     -0.2267
     66  CD2      -61.5020  -15.4700   34.7730 C.ar  297  HIS297      0.1154
     67  CE1      -60.1720  -15.4800   36.5170 C.ar  297  HIS297      0.1986
     68  NE2      -61.2650  -14.9330   36.0130 N.ar  297  HIS297     -0.2212
     69  N        -59.7260  -13.8950   28.4720 N.3   302  ILE302     -0.1245
     70  CA       -59.3480  -12.7050   29.2300 C.3   302  ILE302      0.1561
     71  C        -58.1920  -11.9650   28.5620 C.2   302  ILE302      0.2260
     72  O        -58.0830  -10.7430   28.6650 O.2   302  ILE302     -0.2867
     73  CB       -58.9650  -13.0580   30.6850 C.3   302  ILE302      0.0252
     74  CG1      -57.7770  -14.0270   30.7210 C.3   302  ILE302      0.0019
     75  CG2      -60.1720  -13.6390   31.4020 C.3   302  ILE302      0.0019
     76  CD1      -57.3800  -14.4790   32.1210 C.3   302  ILE302      0.0001
@<TRIPOS>BOND
     1    69    70    1
     2    71    72    2
     3    71    70    1
     4    70    73    1
     5    42    40    1
     6    40    39    2
     7    40    41    1
     8    39    38    1
     9    73    74    1
    10    73    75    1
    11    74    76    1
    12    38    37    1
    13    61    62    2
    14    61    60    1
    15    37    36    1
    16    35    34    2
    17    36    33    1
    18    60    63    1
    19    60    59    1
    20    63    64    1
    21    34    33    1
    22    33    32    1
    23    44    43    1
    24    44    45    1
    25    46    45    2
    26    58    57    2
    27    59    57   am
    28    64    66   ar
    29    64    65   ar
    30    45    47   am
    31    66    68   ar
    32    57    56    1
    33    65    67   ar
    34    50    49    2
    35    68    67   ar
    36    47    48    1
    37    56    55    1
    38    49    55   am
    39    49    48    1
    40    31    30    1
    41    48    51    1
    42    27    26    2
    43    26    25    1
    44    30    29    1
    45    29    28    1
    46    51    52    1
    47    51    53    1
    48    28    25    1
    49    52    54    1
    50    25    24    1
    51    24    16   am
    52    17    16    2
    53    16    15    1
    54    12    11    2
    55    15    14    1
    56    15    18    1
    57    11    10    1
    58    18    19    1
    59    10    13    1
    60    10     9    1
    61    19    20   ar
    62    19    21   ar
    63     4     3    2
    64    20    22   ar
    65    21    23   ar
    66     9     3   am
    67     3     2    1
    68    22    23   ar
    69     2     1    1
    70     2     5    1
    71     8     6    1
    72     5     6    1
    73     5     7    1
