@<TRIPOS>MOLECULE
tmp/4kt0A32.pdb
 135 132 0 0 0
SMALL
GASTEIGER

@<TRIPOS>ATOM
      1  N         51.4030   10.2410    8.8240 N.3   251  PHE251     -0.1241
      2  CA        50.4730    9.1400    8.6010 C.3   251  PHE251      0.1605
      3  C         50.7650    8.4880    7.2500 C.2   251  PHE251      0.2264
      4  O         50.4280    7.3260    7.0190 O.2   251  PHE251     -0.2867
      5  CB        49.0270    9.6460    8.6710 C.3   251  PHE251      0.0534
      6  CG        48.0340    8.7690    7.9610 C.ar  251  PHE251     -0.0203
      7  CD1       47.5420    7.6220    8.5620 C.ar  251  PHE251     -0.0042
      8  CD2       47.5850    9.1020    6.6950 C.ar  251  PHE251     -0.0042
      9  CE1       46.6240    6.8200    7.9070 C.ar  251  PHE251     -0.0003
     10  CE2       46.6680    8.3050    6.0370 C.ar  251  PHE251     -0.0003
     11  CZ        46.1870    7.1630    6.6440 C.ar  251  PHE251     -0.0000
     12  N         52.5800    3.4630   11.4900 N.3   256  TRP256     -0.1227
     13  CA        51.3490    3.6050   12.2610 C.3   256  TRP256      0.1737
     14  C         51.5180    3.2580   13.7380 C.2   256  TRP256      0.2596
     15  O         50.6610    3.5890   14.5570 O.2   256  TRP256     -0.2718
     16  CB        50.2530    2.7240   11.6560 C.3   256  TRP256      0.0564
     17  CG        49.7700    3.1890   10.3130 C.ar  256  TRP256      0.0003
     18  CD1       50.1440    4.3230    9.6520 C.ar  256  TRP256      0.0946
     19  CD2       48.8200    2.5270    9.4690 C.ar  256  TRP256      0.0152
     20  NE1       49.4860    4.4080    8.4480 N.ar  256  TRP256     -0.2442
     21  CE2       48.6680    3.3180    8.3120 C.ar  256  TRP256      0.0810
     22  CE3       48.0840    1.3430    9.5790 C.ar  256  TRP256      0.0012
     23  CZ2       47.8090    2.9620    7.2730 C.ar  256  TRP256      0.0191
     24  CZ3       47.2320    0.9910    8.5460 C.ar  256  TRP256      0.0001
     25  CH2       47.1010    1.7990    7.4080 C.ar  256  TRP256      0.0015
     26  N         52.6200    2.5970   14.0760 N.am  257  GLY257     -0.1957
     27  CA        52.8480    2.1480   15.4380 C.3   257  GLY257      0.1869
     28  C         52.9200    3.2780   16.4490 C.2   257  GLY257      0.2309
     29  O         52.6470    3.0770   17.6330 O.2   257  GLY257     -0.2863
     30  N         51.0540    5.8490   16.7630 N.3   259  TYR259     -0.1227
     31  CA        49.7400    6.3230   17.1980 C.3   259  TYR259      0.1736
     32  C         49.1050    5.3920   18.2310 C.2   259  TYR259      0.2596
     33  O         47.8920    5.4230   18.4390 O.2   259  TYR259     -0.2718
     34  CB        48.7970    6.4640   15.9990 C.3   259  TYR259      0.0548
     35  CG        49.2560    7.4380   14.9350 C.ar  259  TYR259     -0.0200
     36  CD1       49.9810    8.5750   15.2640 C.ar  259  TYR259     -0.0009
     37  CD2       48.9560    7.2180   13.5990 C.ar  259  TYR259     -0.0009
     38  CE1       50.3980    9.4630   14.2900 C.ar  259  TYR259      0.0417
     39  CE2       49.3670    8.0980   12.6190 C.ar  259  TYR259      0.0417
     40  CZ        50.0880    9.2190   12.9690 C.ar  259  TYR259      0.1957
     41  OH        50.4980   10.0970   11.9920 O.3   259  TYR259     -0.2866
     42  N         49.9230    4.5690   18.8800 N.am  260  SER260     -0.1952
     43  CA        49.4200    3.6160   19.8650 C.3   260  SER260      0.1924
     44  C         48.8620    4.3190   21.1000 C.2   260  SER260      0.2314
     45  O         48.1940    3.6980   21.9270 O.2   260  SER260     -0.2863
     46  CB        50.5270    2.6450   20.2800 C.3   260  SER260      0.2116
     47  OG        51.5540    3.3150   20.9900 O.3   260  SER260     -0.2180
     48  N         45.0860    5.6220   19.4160 N.3   263  LEU263     -0.1231
     49  CA        44.3780    4.5990   18.6460 C.3   263  LEU263      0.1693
     50  C         44.6680    3.2310   19.2520 C.2   263  LEU263      0.2593
     51  O         45.4700    2.4570   18.7260 O.2   263  LEU263     -0.2718
     52  CB        44.7840    4.6360   17.1700 C.3   263  LEU263      0.0284
     53  CG        44.3420    5.8680   16.3740 C.3   263  LEU263      0.0019
     54  CD1       44.8950    5.8160   14.9580 C.3   263  LEU263      0.0001
     55  CD2       42.8250    5.9960   16.3410 C.3   263  LEU263      0.0001
     56  N         44.0010    2.9470   20.3650 N.am  264  THR264     -0.1939
     57  CA        44.2880    1.7620   21.1650 C.3   264  THR264      0.2028
     58  C         43.3800    0.5880   20.8250 C.2   264  THR264      0.2642
     59  O         42.4520    0.7110   20.0250 O.2   264  THR264     -0.2714
     60  CB        44.1400    2.0640   22.6700 C.3   264  THR264      0.1808
     61  OG1       42.7960    2.4770   22.9500 O.3   264  THR264     -0.2208
     62  CG2       45.1010    3.1600   23.0950 C.3   264  THR264      0.0379
     63  N         43.6700   -0.5510   21.4450 N.am  265  PHE265     -0.1973
     64  CA        42.8250   -1.7340   21.3510 C.3   265  PHE265      0.1639
     65  C         42.6720   -2.3260   22.7520 C.2   265  PHE265      0.2290
     66  O         42.8640   -3.5250   22.9630 O.2   265  PHE265     -0.2864
     67  CB        43.4220   -2.7560   20.3770 C.3   265  PHE265      0.0560
     68  CG        42.3920   -3.5600   19.6330 C.ar  265  PHE265     -0.0200
     69  CD1       41.5200   -4.4010   20.3070 C.ar  265  PHE265     -0.0042
     70  CD2       42.3000   -3.4750   18.2540 C.ar  265  PHE265     -0.0042
     71  CE1       40.5730   -5.1360   19.6170 C.ar  265  PHE265     -0.0003
     72  CE2       41.3580   -4.2080   17.5590 C.ar  265  PHE265     -0.0003
     73  CZ        40.4930   -5.0400   18.2410 C.ar  265  PHE265     -0.0000
     74  N         39.6020    4.2660   16.8380 N.3   283  HIS283     -0.1241
     75  CA        40.3650    3.3190   16.0360 C.3   283  HIS283      0.1621
     76  C         39.4060    2.3690   15.3280 C.2   283  HIS283      0.2264
     77  O         39.6900    1.8710   14.2380 O.2   283  HIS283     -0.2867
     78  CB        41.3460    2.5460   16.9200 C.3   283  HIS283      0.0745
     79  CG        42.2140    1.5830   16.1710 C.ar  283  HIS283      0.0817
     80  ND1       42.7680    0.4700   16.7650 N.ar  283  HIS283     -0.2268
     81  CD2       42.6320    1.5700   14.8830 C.ar  283  HIS283      0.1154
     82  CE1       43.4840   -0.1920   15.8740 C.ar  283  HIS283      0.1986
     83  NE2       43.4180    0.4550   14.7240 N.ar  283  HIS283     -0.2212
     84  N         37.8270    4.3720   12.3670 N.3   286  LEU286     -0.1231
     85  CA        38.8900    4.5980   11.3980 C.3   286  LEU286      0.1693
     86  C         39.1810    3.3130   10.6280 C.2   286  LEU286      0.2592
     87  O         39.6010    3.3510    9.4720 O.2   286  LEU286     -0.2718
     88  CB        40.1540    5.1010   12.0990 C.3   286  LEU286      0.0284
     89  CG        41.3850    5.3310   11.2210 C.3   286  LEU286      0.0019
     90  CD1       41.0690    6.2420   10.0410 C.3   286  LEU286      0.0001
     91  CD2       42.5110    5.9120   12.0570 C.3   286  LEU286      0.0001
     92  N         38.9460    2.1770   11.2760 N.am  287  ALA287     -0.1966
     93  CA        39.1720    0.8770   10.6560 C.3   287  ALA287      0.1728
     94  C         38.0200    0.5090    9.7250 C.2   287  ALA287      0.2616
     95  O         38.2380    0.0150    8.6180 O.2   287  ALA287     -0.2715
     96  CB        39.3550   -0.1890   11.7230 C.3   287  ALA287      0.0334
     97  N         36.7950    0.7490   10.1830 N.am  288  ILE288     -0.1977
     98  CA        35.6050    0.5000    9.3760 C.3   288  ILE288      0.1596
     99  C         35.5910    1.3970    8.1530 C.2   288  ILE288      0.2287
    100  O         35.2240    0.9640    7.0610 O.2   288  ILE288     -0.2864
    101  CB        34.3140    0.7430   10.1780 C.3   288  ILE288      0.0276
    102  CG1       34.2410   -0.2240   11.3610 C.3   288  ILE288      0.0022
    103  CG2       33.0750    0.6230    9.2750 C.3   288  ILE288      0.0022
    104  CD1       34.0560   -1.6700   10.9740 C.3   288  ILE288      0.0001
    105  N         37.9330    2.6440    6.2470 N.3   290  VAL290     -0.1231
    106  CA        38.7490    2.1400    5.1490 C.3   290  VAL290      0.1692
    107  C         38.0790    0.9660    4.4380 C.2   290  VAL290      0.2591
    108  O         38.0300    0.9290    3.2090 O.2   290  VAL290     -0.2718
    109  CB        40.1350    1.6970    5.6480 C.3   290  VAL290      0.0266
    110  CG1       40.9890    1.1690    4.5010 C.3   290  VAL290      0.0020
    111  CG2       40.8440    2.8480    6.3510 C.3   290  VAL290      0.0020
    112  N         37.5710    0.0100    5.2120 N.am  291  LEU291     -0.1980
    113  CA        36.8980   -1.1560    4.6450 C.3   291  LEU291      0.1596
    114  C         35.7140   -0.7400    3.7800 C.2   291  LEU291      0.2287
    115  O         35.3580   -1.4320    2.8250 O.2   291  LEU291     -0.2864
    116  CB        36.4150   -2.1010    5.7480 C.3   291  LEU291      0.0297
    117  CG        37.4630   -2.8080    6.6090 C.3   291  LEU291      0.0022
    118  CD1       36.7700   -3.7650    7.5680 C.3   291  LEU291      0.0001
    119  CD2       38.4820   -3.5510    5.7550 C.3   291  LEU291      0.0001
    120  N         46.6460   -8.8410   20.9080 N.3   488  ASN488     -0.1240
    121  CA        46.7630   -7.3930   21.0250 C.3   488  ASN488      0.1653
    122  C         45.5810   -6.7510   21.7500 C.2   488  ASN488      0.2266
    123  O         45.6130   -5.5600   22.0620 O.2   488  ASN488     -0.2867
    124  CB        46.9250   -6.7810   19.6350 C.3   488  ASN488      0.1155
    125  CG        48.2070   -7.2200   18.9570 C.2   488  ASN488      0.2627
    126  OD1       48.2990   -8.3340   18.4400 O.2   488  ASN488     -0.2716
    127  ND2       49.2090   -6.3490   18.9640 N.am  488  ASN488     -0.0877
    128  N         43.7070   -6.2550   25.0720 N.3   490  LEU490     -0.1245
    129  CA        44.0710   -6.3570   26.4820 C.3   490  LEU490      0.1561
    130  C         42.9970   -7.0670   27.3060 C.2   490  LEU490      0.2260
    131  O         43.2980   -8.0180   28.0290 O.2   490  LEU490     -0.2867
    132  CB        44.3430   -4.9660   27.0650 C.3   490  LEU490      0.0270
    133  CG        45.6680   -4.2810   26.7000 C.3   490  LEU490      0.0019
    134  CD1       46.8720   -5.1450   27.0670 C.3   490  LEU490      0.0001
    135  CD2       45.7180   -3.8900   25.2260 C.3   490  LEU490      0.0001
@<TRIPOS>BOND
     1   115   114    2
     2   108   107    2
     3   114   113    1
     4   107   106    1
     5   107   112   am
     6   110   109    1
     7   113   112    1
     8   113   116    1
     9   106   109    1
    10   106   105    1
    11   109   111    1
    12   116   117    1
    13   119   117    1
    14    10    11   ar
    15    10     8   ar
    16   117   118    1
    17    11     9   ar
    18     8     6   ar
    19     4     3    2
    20   100    99    2
    21     3     2    1
    22    23    25   ar
    23    23    21   ar
    24    25    24   ar
    25     9     7   ar
    26     6     7   ar
    27     6     5    1
    28    99    98    1
    29    21    20   ar
    30    21    19   ar
    31    20    18   ar
    32    24    22   ar
    33     2     5    1
    34     2     1    1
    35    95    94    2
    36   103   101    1
    37    98   101    1
    38    98    97    1
    39    19    22   ar
    40    19    17   ar
    41    87    86    2
    42    18    17   ar
    43    94    97   am
    44    94    93    1
    45    90    89    1
    46   101   102    1
    47    17    16    1
    48    86    92   am
    49    86    85    1
    50    93    92    1
    51    93    96    1
    52   104   102    1
    53    89    91    1
    54    89    88    1
    55    85    88    1
    56    85    84    1
    57    12    13    1
    58    16    13    1
    59    41    40    1
    60    13    14    1
    61    39    40   ar
    62    39    37   ar
    63    40    38   ar
    64    37    35   ar
    65    14    26   am
    66    14    15    2
    67    26    27    1
    68    77    76    2
    69    38    36   ar
    70    83    81   ar
    71    83    82   ar
    72    81    79   ar
    73    35    36   ar
    74    35    34    1
    75    54    53    1
    76    76    75    1
    77    27    28    1
    78    82    80   ar
    79    34    31    1
    80    75    74    1
    81    75    78    1
    82    79    80   ar
    83    79    78    1
    84    55    53    1
    85    53    52    1
    86    28    29    2
    87    30    31    1
    88    52    49    1
    89    31    32    1
    90    72    73   ar
    91    72    70   ar
    92    32    33    2
    93    32    42   am
    94    73    71   ar
    95    70    68   ar
    96   126   125    2
    97    49    50    1
    98    49    48    1
    99    51    50    2
   100    42    43    1
   101   125   127   am
   102   125   124    1
   103    50    56   am
   104    71    69   ar
   105    68    69   ar
   106    68    67    1
   107   124   121    1
   108    43    46    1
   109    43    44    1
   110    59    58    2
   111    46    47    1
   112    56    57    1
   113    67    64    1
   114    58    57    1
   115    58    63   am
   116   120   121    1
   117   121   122    1
   118    44    45    2
   119    57    60    1
   120    64    63    1
   121    64    65    1
   122   122   123    2
   123    60    61    1
   124    60    62    1
   125    65    66    2
   126   128   129    1
   127   135   133    1
   128   129   132    1
   129   129   130    1
   130   133   132    1
   131   133   134    1
   132   130   131    2
