@<TRIPOS>MOLECULE
tmp/4kt0F11.pdb
 95 89 0 0 0
SMALL
GASTEIGER

@<TRIPOS>ATOM
      1  N        -25.0850   22.8660   14.4370 N.3    81  GLY81      -0.1210
      2  CA       -24.6450   21.8110   13.5430 C.3    81  GLY81       0.1956
      3  C        -25.7670   21.3210   12.6460 C.2    81  GLY81       0.2611
      4  O        -25.5800   21.1380   11.4430 O.2    81  GLY81      -0.2717
      5  N        -26.9380   21.1080   13.2360 N.am   82  ARG82      -0.1979
      6  CA       -28.1080   20.6720   12.4850 C.3    82  ARG82       0.1597
      7  C        -28.5720   21.7650   11.5260 C.2    82  ARG82       0.2287
      8  O        -29.0890   21.4830   10.4430 O.2    82  ARG82      -0.2864
      9  CB       -29.2400   20.2910   13.4410 C.3    82  ARG82       0.0334
     10  CG       -30.5630   20.0070   12.7570 C.3    82  ARG82       0.0492
     11  CD       -31.5770   19.4460   13.7300 C.3    82  ARG82       0.2205
     12  NE       -32.8740   19.2390   13.0970 N.pl3  82  ARG82      -0.0865
     13  CZ       -33.7690   20.2020   12.8910 C.cat  82  ARG82       0.5346
     14  NH1      -33.5100   21.4510   13.2620 N.pl3  82  ARG82       0.1354
     15  NH2      -34.9260   19.9180   12.3070 N.pl3  82  ARG82       0.1354
     16  N        -26.6980   23.8170    9.9360 N.3    84  TYR84      -0.1227
     17  CA       -25.7690   23.8130    8.8120 C.3    84  TYR84       0.1736
     18  C        -25.9860   22.6020    7.9080 C.2    84  TYR84       0.2595
     19  O        -25.9070   22.7060    6.6850 O.2    84  TYR84      -0.2718
     20  CB       -24.3330   23.8320    9.3440 C.3    84  TYR84       0.0548
     21  CG       -23.2420   23.7260    8.3010 C.ar   84  TYR84      -0.0200
     22  CD1      -22.7680   22.4860    7.8850 C.ar   84  TYR84      -0.0009
     23  CD2      -22.6640   24.8640    7.7550 C.ar   84  TYR84      -0.0009
     24  CE1      -21.7620   22.3850    6.9410 C.ar   84  TYR84       0.0417
     25  CE2      -21.6570   24.7730    6.8110 C.ar   84  TYR84       0.0417
     26  CZ       -21.2100   23.5310    6.4090 C.ar   84  TYR84       0.1957
     27  OH       -20.2080   23.4350    5.4710 O.3    84  TYR84      -0.2866
     28  N        -26.2640   21.4570    8.5230 N.am   85  LEU85      -0.1980
     29  CA       -26.4310   20.2030    7.7940 C.3    85  LEU85       0.1596
     30  C        -27.6340   20.2460    6.8550 C.2    85  LEU85       0.2287
     31  O        -27.6730   19.5350    5.8500 O.2    85  LEU85      -0.2864
     32  CB       -26.5860   19.0410    8.7790 C.3    85  LEU85       0.0297
     33  CG       -26.3320   17.6300    8.2470 C.3    85  LEU85       0.0022
     34  CD1      -24.8640   17.4340    7.8970 C.3    85  LEU85       0.0001
     35  CD2      -26.7810   16.6010    9.2710 C.3    85  LEU85       0.0001
     36  N        -19.4940   18.9170    3.7130 N.3    98  GLU98      -0.1231
     37  CA       -19.3920   18.2070    4.9810 C.3    98  GLU98       0.1699
     38  C        -17.9560   17.7570    5.2360 C.2    98  GLU98       0.2592
     39  O        -17.6040   17.3680    6.3510 O.2    98  GLU98      -0.2718
     40  CB       -20.3340   17.0020    4.9880 C.3    98  GLU98       0.0402
     41  CG       -21.7930   17.3780    4.7940 C.3    98  GLU98       0.1161
     42  CD       -22.7300   16.1890    4.9000 C.2    98  GLU98       0.3649
     43  OE1      -22.2380   15.0450    4.9780 O.co2  98  GLU98      -0.2457
     44  OE2      -23.9630   16.4000    4.9100 O.co2  98  GLU98      -0.2457
     45  N        -17.1330   17.8260    4.1930 N.am   99  VAL99      -0.1980
     46  CA       -15.7540   17.3490    4.2390 C.3    99  VAL99       0.1595
     47  C        -14.7830   18.5180    4.0540 C.2    99  VAL99       0.2287
     48  O        -13.6240   18.4510    4.4650 O.2    99  VAL99      -0.2864
     49  CB       -15.5330   16.2490    3.1650 C.3    99  VAL99       0.0276
     50  CG1      -14.2710   16.4840    2.3290 C.3    99  VAL99       0.0022
     51  CG2      -15.5130   14.8740    3.8230 C.3    99  VAL99       0.0022
     52  N        -15.3520   22.5270    4.8140 N.3   101  ILE101     -0.1245
     53  CA       -16.3770   23.3840    5.3990 C.3   101  ILE101      0.1561
     54  C        -16.5780   24.7070    4.6670 C.2   101  ILE101      0.2260
     55  O        -15.6220   25.3700    4.2630 O.2   101  ILE101     -0.2867
     56  CB       -16.0480   23.7040    6.8760 C.3   101  ILE101      0.0252
     57  CG1      -15.8390   22.4160    7.6760 C.3   101  ILE101      0.0019
     58  CG2      -17.1520   24.5500    7.5150 C.3   101  ILE101      0.0019
     59  CD1      -17.0620   21.5130    7.7530 C.3   101  ILE101      0.0001
     60  N        -16.8900   27.8060    5.6060 N.3   103  VAL103     -0.1245
     61  CA       -16.5950   28.5210    6.8490 C.3   103  VAL103      0.1561
     62  C        -17.4580   29.7700    7.0320 C.2   103  VAL103      0.2260
     63  O        -17.9870   29.9910    8.1190 O.2   103  VAL103     -0.2867
     64  CB       -15.0990   28.9220    6.9300 C.3   103  VAL103      0.0252
     65  CG1      -14.8470   29.9040    8.0780 C.3   103  VAL103      0.0019
     66  CG2      -14.2330   27.6880    7.1050 C.3   103  VAL103      0.0019
     67  N        -20.6860   28.5060    8.1350 N.3   106  ALA106     -0.1231
     68  CA       -20.5990   27.8730    9.4460 C.3   106  ALA106      0.1694
     69  C        -20.6050   28.9220   10.5530 C.2   106  ALA106      0.2591
     70  O        -21.4920   28.9310   11.4070 O.2   106  ALA106     -0.2718
     71  CB       -19.3490   27.0160    9.5400 C.3   106  ALA106      0.0304
     72  N        -19.6080   29.8020   10.5220 N.am  107  ILE107     -0.1980
     73  CA       -19.4590   30.8630   11.5130 C.3   107  ILE107      0.1595
     74  C        -20.7430   31.6730   11.6710 C.2   107  ILE107      0.2287
     75  O        -21.0890   32.0850   12.7780 O.2   107  ILE107     -0.2864
     76  CB       -18.2880   31.8020   11.1360 C.3   107  ILE107      0.0276
     77  CG1      -16.9600   31.0630   11.3270 C.3   107  ILE107      0.0022
     78  CG2      -18.3100   33.0880   11.9720 C.3   107  ILE107      0.0022
     79  CD1      -15.7280   31.8430   10.9040 C.3   107  ILE107      0.0001
     80  N        -23.0000   29.5920   13.9590 N.3   110  MET110     -0.1230
     81  CA       -22.4770   29.4700   15.3160 C.3   110  MET110      0.1702
     82  C        -22.8100   30.6960   16.1590 C.2   110  MET110      0.2592
     83  O        -23.2030   30.5770   17.3200 O.2   110  MET110     -0.2718
     84  CB       -20.9660   29.2660   15.2850 C.3   110  MET110      0.0401
     85  CG       -20.5410   28.0160   14.5640 C.3   110  MET110      0.0596
     86  SD       -18.7750   27.7180   14.7000 S.3   110  MET110     -0.1393
     87  CE       -18.6620   26.2230   13.7370 C.3   110  MET110      0.0692
     88  N        -22.6540   31.8750   15.5650 N.am  111  LEU111     -0.1980
     89  CA       -22.8940   33.1270   16.2710 C.3   111  LEU111      0.1596
     90  C        -24.3840   33.4470   16.3860 C.2   111  LEU111      0.2287
     91  O        -24.7550   34.5560   16.7690 O.2   111  LEU111     -0.2864
     92  CB       -22.1700   34.2760   15.5640 C.3   111  LEU111      0.0297
     93  CG       -20.6620   34.1030   15.3610 C.3   111  LEU111      0.0022
     94  CD1      -20.1010   35.2590   14.5460 C.3   111  LEU111      0.0001
     95  CD2      -19.9380   33.9880   16.6950 C.3   111  LEU111      0.0001
@<TRIPOS>BOND
     1    50    49    1
     2    49    51    1
     3    49    46    1
     4    36    37    1
     5    47    46    1
     6    47    48    2
     7    45    46    1
     8    45    38   am
     9    55    54    2
    10    54    53    1
    11    41    42    1
    12    41    40    1
    13    52    53    1
    14    42    44   ar
    15    42    43   ar
    16    37    40    1
    17    37    38    1
    18    38    39    2
    19    53    56    1
    20    27    26    1
    21    60    61    1
    22    31    30    2
    23    26    25   ar
    24    26    24   ar
    25    19    18    2
    26    25    23   ar
    27    61    64    1
    28    61    62    1
    29    30    29    1
    30    56    58    1
    31    56    57    1
    32    64    66    1
    33    64    65    1
    34    24    22   ar
    35    62    63    2
    36    57    59    1
    37    23    21   ar
    38    29    28    1
    39    29    32    1
    40    22    21   ar
    41    34    33    1
    42    18    28   am
    43    18    17    1
    44    67    68    1
    45    33    32    1
    46    33    35    1
    47    21    20    1
    48    17    20    1
    49    17    16    1
    50    68    71    1
    51    68    69    1
    52     8     7    2
    53    72    69   am
    54    72    73    1
    55    69    70    2
    56    79    77    1
    57    76    77    1
    58    76    73    1
    59    76    78    1
    60     4     3    2
    61    73    74    1
    62     7     6    1
    63    74    75    2
    64    15    13    1
    65     6     5    1
    66     6     9    1
    67     3     5   am
    68     3     2    1
    69    10     9    1
    70    10    11    1
    71    13    12    2
    72    13    14    1
    73    12    11    1
    74     2     1    1
    75    87    86    1
    76    80    81    1
    77    94    93    1
    78    85    86    1
    79    85    84    1
    80    84    81    1
    81    81    82    1
    82    93    92    1
    83    93    95    1
    84    92    89    1
    85    88    82   am
    86    88    89    1
    87    82    83    2
    88    89    90    1
    89    90    91    2
