@<TRIPOS>MOLECULE
tmp/4kt0B40.pdb
 121 122 0 0 0
SMALL
GASTEIGER

@<TRIPOS>ATOM
      1  N        -31.1960  -36.8370   36.8240 N.3    54  ILE54      -0.1245
      2  CA       -29.7970  -36.4340   36.8980 C.3    54  ILE54       0.1561
      3  C        -29.5960  -35.4900   38.0770 C.2    54  ILE54       0.2260
      4  O        -28.5460  -35.5060   38.7220 O.2    54  ILE54      -0.2867
      5  CB       -29.3300  -35.7600   35.5890 C.3    54  ILE54       0.0252
      6  CG1      -29.1900  -36.8150   34.4890 C.3    54  ILE54       0.0019
      7  CG2      -27.9900  -35.0460   35.7800 C.3    54  ILE54       0.0019
      8  CD1      -29.0090  -36.2490   33.0960 C.3    54  ILE54       0.0001
      9  N        -29.7660  -37.5730   41.2960 N.3    57  LEU57      -0.1231
     10  CA       -28.5640  -38.4040   41.3310 C.3    57  LEU57       0.1693
     11  C        -27.3260  -37.5910   41.7120 C.2    57  LEU57       0.2592
     12  O        -26.3060  -38.1490   42.1150 O.2    57  LEU57      -0.2718
     13  CB       -28.3400  -39.0790   39.9750 C.3    57  LEU57       0.0284
     14  CG       -29.1680  -40.3320   39.6800 C.3    57  LEU57       0.0019
     15  CD1      -29.0580  -40.7050   38.2090 C.3    57  LEU57       0.0001
     16  CD2      -28.7210  -41.4940   40.5550 C.3    57  LEU57       0.0001
     17  N        -27.4290  -36.2720   41.5810 N.am   58  TRP58      -0.1976
     18  CA       -26.3200  -35.3630   41.8660 C.3    58  TRP58       0.1640
     19  C        -26.3070  -34.9720   43.3400 C.2    58  TRP58       0.2290
     20  O        -25.2510  -34.8890   43.9690 O.2    58  TRP58      -0.2864
     21  CB       -26.4280  -34.1290   40.9630 C.3    58  TRP58       0.0576
     22  CG       -25.7390  -32.8910   41.4540 C.ar   58  TRP58       0.0006
     23  CD1      -24.3970  -32.6640   41.5070 C.ar   58  TRP58       0.0946
     24  CD2      -26.3690  -31.6910   41.9270 C.ar   58  TRP58       0.0152
     25  NE1      -24.1490  -31.4000   41.9920 N.ar   58  TRP58      -0.2442
     26  CE2      -25.3420  -30.7850   42.2570 C.ar   58  TRP58       0.0810
     27  CE3      -27.6980  -31.2990   42.1060 C.ar   58  TRP58       0.0012
     28  CZ2      -25.6060  -29.5110   42.7590 C.ar   58  TRP58       0.0191
     29  CZ3      -27.9550  -30.0340   42.6050 C.ar   58  TRP58       0.0001
     30  CH2      -26.9150  -29.1560   42.9240 C.ar   58  TRP58       0.0015
     31  N        -27.8600  -36.7250   45.7490 N.3    60  SER60      -0.1202
     32  CA       -27.5360  -37.9930   46.3860 C.3    60  SER60       0.2020
     33  C        -26.0250  -38.1750   46.4570 C.2    60  SER60       0.2619
     34  O        -25.5000  -38.7500   47.4110 O.2    60  SER60      -0.2717
     35  CB       -28.1720  -39.1510   45.6160 C.3    60  SER60       0.2103
     36  OG       -27.6970  -40.3990   46.0880 O.3    60  SER60      -0.2182
     37  N        -25.3330  -37.6760   45.4390 N.am   61  GLY61      -0.1956
     38  CA       -23.8850  -37.7520   45.3860 C.3    61  GLY61       0.1869
     39  C        -23.2210  -36.9490   46.4860 C.2    61  GLY61       0.2309
     40  O        -22.2690  -37.4160   47.1090 O.2    61  GLY61      -0.2863
     41  N        -24.2460  -38.4360   49.9690 N.3    64  PHE64      -0.1227
     42  CA       -23.5440  -39.6880   50.2220 C.3    64  PHE64       0.1736
     43  C        -22.0760  -39.4470   50.5560 C.2    64  PHE64       0.2595
     44  O        -21.5030  -40.1360   51.4000 O.2    64  PHE64      -0.2718
     45  CB       -23.6500  -40.6210   49.0150 C.3    64  PHE64       0.0547
     46  CG       -22.8990  -41.9100   49.1860 C.ar   64  PHE64      -0.0202
     47  CD1      -23.4540  -42.9600   49.8970 C.ar   64  PHE64      -0.0042
     48  CD2      -21.6330  -42.0670   48.6460 C.ar   64  PHE64      -0.0042
     49  CE1      -22.7640  -44.1440   50.0630 C.ar   64  PHE64      -0.0003
     50  CE2      -20.9370  -43.2510   48.8090 C.ar   64  PHE64      -0.0003
     51  CZ       -21.5040  -44.2900   49.5180 C.ar   64  PHE64      -0.0000
     52  N        -21.4700  -38.4680   49.8910 N.am   65  HIS65      -0.1975
     53  CA       -20.0460  -38.2020   50.0660 C.3    65  HIS65       0.1656
     54  C        -19.7570  -37.4530   51.3640 C.2    65  HIS65       0.2291
     55  O        -18.6980  -37.6340   51.9620 O.2    65  HIS65      -0.2864
     56  CB       -19.4980  -37.4180   48.8730 C.3    65  HIS65       0.0771
     57  CG       -18.9080  -38.2870   47.8060 C.ar   65  HIS65       0.0820
     58  ND1      -17.5790  -38.6500   47.7960 N.ar   65  HIS65      -0.2267
     59  CD2      -19.4680  -38.8770   46.7230 C.ar   65  HIS65       0.1154
     60  CE1      -17.3430  -39.4200   46.7490 C.ar   65  HIS65       0.1986
     61  NE2      -18.4720  -39.5730   46.0810 N.ar   65  HIS65      -0.2212
     62  N        -20.0510  -40.2280   53.9820 N.3    68  TRP68      -0.1227
     63  CA       -19.0070  -41.2420   53.8730 C.3    68  TRP68       0.1737
     64  C        -17.6160  -40.7020   54.2050 C.2    68  TRP68       0.2595
     65  O        -16.8470  -41.3510   54.9170 O.2    68  TRP68      -0.2718
     66  CB       -19.0010  -41.8350   52.4620 C.3    68  TRP68       0.0564
     67  CG       -18.0190  -42.9550   52.2820 C.ar   68  TRP68       0.0003
     68  CD1      -17.5980  -43.8390   53.2330 C.ar   68  TRP68       0.0946
     69  CD2      -17.3290  -43.3050   51.0770 C.ar   68  TRP68       0.0152
     70  NE1      -16.6920  -44.7200   52.6940 N.ar   68  TRP68      -0.2442
     71  CE2      -16.5090  -44.4130   51.3700 C.ar   68  TRP68       0.0810
     72  CE3      -17.3250  -42.7910   49.7760 C.ar   68  TRP68       0.0012
     73  CZ2      -15.6940  -45.0150   50.4130 C.ar   68  TRP68       0.0191
     74  CZ3      -16.5160  -43.3910   48.8270 C.ar   68  TRP68       0.0001
     75  CH2      -15.7120  -44.4900   49.1510 C.ar   68  TRP68       0.0015
     76  N        -17.3010  -39.5160   53.6920 N.am   69  GLN69      -0.1979
     77  CA       -15.9460  -38.9730   53.7720 C.3    69  GLN69       0.1601
     78  C        -15.8800  -37.6190   54.4820 C.2    69  GLN69       0.2287
     79  O        -14.8160  -36.9990   54.5430 O.2    69  GLN69      -0.2864
     80  CB       -15.3610  -38.8390   52.3620 C.3    69  GLN69       0.0394
     81  CG       -15.3330  -40.1420   51.5710 C.3    69  GLN69       0.0908
     82  CD       -14.9670  -39.9360   50.1100 C.2    69  GLN69       0.2608
     83  OE1      -15.1090  -38.8390   49.5680 O.2    69  GLN69      -0.2717
     84  NE2      -14.4910  -40.9930   49.4650 N.am   69  GLN69      -0.0878
     85  N        -15.0890  -33.8580   50.0930 N.3    87  HIS87      -0.1226
     86  CA       -14.8820  -35.2590   49.7450 C.3    87  HIS87       0.1752
     87  C        -13.4280  -35.6620   49.9500 C.2    87  HIS87       0.2595
     88  O        -12.5660  -34.8140   50.1850 O.2    87  HIS87      -0.2718
     89  CB       -15.2900  -35.5110   48.2940 C.3    87  HIS87       0.0759
     90  CG       -14.4230  -34.8090   47.2950 C.ar   87  HIS87       0.0818
     91  ND1      -13.5430  -35.4780   46.4720 N.ar   87  HIS87      -0.2268
     92  CD2      -14.2920  -33.4950   46.9970 C.ar   87  HIS87       0.1154
     93  CE1      -12.9120  -34.6070   45.7050 C.ar   87  HIS87       0.1986
     94  NE2      -13.3460  -33.3960   46.0050 N.ar   87  HIS87      -0.2212
     95  N        -13.1610  -36.9610   49.8590 N.am   88  ALA88      -0.1980
     96  CA       -11.8010  -37.4720   49.9660 C.3    88  ALA88       0.1597
     97  C        -11.0340  -37.1800   48.6820 C.2    88  ALA88       0.2287
     98  O        -11.6350  -36.8800   47.6480 O.2    88  ALA88      -0.2864
     99  CB       -11.8120  -38.9650   50.2530 C.3    88  ALA88       0.0319
    100  N         -8.0490  -38.7580   46.0780 N.3    90  TRP90      -0.1241
    101  CA        -7.3170  -39.9420   45.6480 C.3    90  TRP90       0.1605
    102  C         -6.5340  -39.6120   44.3830 C.2    90  TRP90       0.2264
    103  O         -7.0610  -39.7050   43.2750 O.2    90  TRP90      -0.2867
    104  CB        -8.2830  -41.1050   45.4100 C.3    90  TRP90       0.0550
    105  CG        -7.6470  -42.3450   44.8640 C.ar   90  TRP90       0.0003
    106  CD1       -6.9340  -43.2820   45.5580 C.ar   90  TRP90       0.0946
    107  CD2       -7.6820  -42.7940   43.5060 C.ar   90  TRP90       0.0152
    108  NE1       -6.5180  -44.2820   44.7110 N.ar   90  TRP90      -0.2442
    109  CE2       -6.9650  -44.0040   43.4450 C.ar   90  TRP90       0.0810
    110  CE3       -8.2480  -42.2860   42.3340 C.ar   90  TRP90       0.0012
    111  CZ2       -6.7990  -44.7140   42.2580 C.ar   90  TRP90       0.0191
    112  CZ3       -8.0830  -42.9880   41.1600 C.ar   90  TRP90       0.0001
    113  CH2       -7.3650  -44.1890   41.1280 C.ar   90  TRP90       0.0015
    114  N        -31.9720  -41.7410   45.4980 N.3   141  LEU141     -0.1245
    115  CA       -31.4650  -42.6610   44.4910 C.3   141  LEU141      0.1561
    116  C        -32.6170  -43.4270   43.8510 C.2   141  LEU141      0.2260
    117  O        -32.6080  -43.6780   42.6450 O.2   141  LEU141     -0.2867
    118  CB       -30.4580  -43.6320   45.1080 C.3   141  LEU141      0.0270
    119  CG       -29.2950  -44.0400   44.2010 C.3   141  LEU141      0.0019
    120  CD1      -28.3440  -42.8720   43.9760 C.3   141  LEU141      0.0001
    121  CD2      -28.5540  -45.2250   44.7880 C.3   141  LEU141      0.0001
@<TRIPOS>BOND
     1     8     6    1
     2     6     5    1
     3     5     7    1
     4     5     2    1
     5     1     2    1
     6     2     3    1
     7     3     4    2
     8    15    14    1
     9    14    13    1
    10    14    16    1
    11    13    10    1
    12    21    22    1
    13    21    18    1
    14   113   112   ar
    15   113   111   ar
    16   112   110   ar
    17     9    10    1
    18    10    11    1
    19    22    23   ar
    20    22    24   ar
    21    23    25   ar
    22    17    11   am
    23    17    18    1
    24    11    12    2
    25    18    19    1
    26    24    27   ar
    27    24    26   ar
    28    25    26   ar
    29    27    29   ar
    30    26    28   ar
    31   111   109   ar
    32   110   107   ar
    33    29    30   ar
    34   117   116    2
    35    28    30   ar
    36   103   102    2
    37    19    20    2
    38   109   107   ar
    39   109   108   ar
    40   107   105   ar
    41   116   115    1
    42   120   119    1
    43   119   121    1
    44   119   118    1
    45   102   101    1
    46   115   118    1
    47   115   114    1
    48   108   106   ar
    49   105   104    1
    50   105   106   ar
    51    38    37    1
    52    38    39    1
    53   104   101    1
    54    37    33   am
    55    35    36    1
    56    35    32    1
    57   101   100    1
    58    93    94   ar
    59    93    91   ar
    60    31    32    1
    61    94    92   ar
    62    61    59   ar
    63    61    60   ar
    64    32    33    1
    65    33    34    2
    66    91    90   ar
    67    39    40    2
    68    59    57   ar
    69    60    58   ar
    70    92    90   ar
    71    90    89    1
    72    98    97    2
    73    58    57   ar
    74    57    56    1
    75    89    86    1
    76    48    50   ar
    77    48    46   ar
    78    97    96    1
    79    50    51   ar
    80    74    75   ar
    81    74    72   ar
    82    56    53    1
    83    45    46    1
    84    45    42    1
    85    75    73   ar
    86    46    47   ar
    87    84    82   am
    88    51    49   ar
    89    83    82    2
    90    86    87    1
    91    86    85    1
    92    72    69   ar
    93    95    87   am
    94    95    96    1
    95    52    53    1
    96    52    43   am
    97    47    49   ar
    98    87    88    2
    99    96    99    1
   100    41    42    1
   101    53    54    1
   102    82    81    1
   103    42    43    1
   104    73    71   ar
   105    43    44    2
   106    69    71   ar
   107    69    67   ar
   108    54    55    2
   109    71    70   ar
   110    81    80    1
   111    67    66    1
   112    67    68   ar
   113    80    77    1
   114    66    63    1
   115    70    68   ar
   116    76    77    1
   117    76    64   am
   118    77    78    1
   119    63    62    1
   120    63    64    1
   121    64    65    2
   122    78    79    2
