@<TRIPOS>MOLECULE
tmp/4kt0B41.pdb
 143 145 0 0 0
SMALL
GASTEIGER

@<TRIPOS>ATOM
      1  N        -15.0890  -33.8580   50.0930 N.3    87  HIS87      -0.1226
      2  CA       -14.8820  -35.2590   49.7450 C.3    87  HIS87       0.1752
      3  C        -13.4280  -35.6620   49.9500 C.2    87  HIS87       0.2596
      4  O        -12.5660  -34.8140   50.1850 O.2    87  HIS87      -0.2718
      5  CB       -15.2900  -35.5110   48.2940 C.3    87  HIS87       0.0759
      6  CG       -14.4230  -34.8090   47.2950 C.ar   87  HIS87       0.0818
      7  ND1      -13.5430  -35.4780   46.4720 N.ar   87  HIS87      -0.2268
      8  CD2      -14.2920  -33.4950   46.9970 C.ar   87  HIS87       0.1154
      9  CE1      -12.9120  -34.6070   45.7050 C.ar   87  HIS87       0.1986
     10  NE2      -13.3460  -33.3960   46.0050 N.ar   87  HIS87      -0.2212
     11  N        -13.1610  -36.9610   49.8590 N.am   88  ALA88      -0.1966
     12  CA       -11.8010  -37.4720   49.9660 C.3    88  ALA88       0.1728
     13  C        -11.0340  -37.1800   48.6820 C.2    88  ALA88       0.2616
     14  O        -11.6350  -36.8800   47.6480 O.2    88  ALA88      -0.2715
     15  CB       -11.8120  -38.9650   50.2530 C.3    88  ALA88       0.0334
     16  N         -9.7080  -37.2600   48.7560 N.am   89  ILE89      -0.1963
     17  CA        -8.8540  -37.0570   47.5910 C.3    89  ILE89       0.1727
     18  C         -8.0200  -38.3060   47.3270 C.2    89  ILE89       0.2616
     19  O         -7.3720  -38.8390   48.2290 O.2    89  ILE89      -0.2715
     20  CB        -7.9210  -35.8400   47.7680 C.3    89  ILE89       0.0290
     21  CG1       -8.7440  -34.5810   48.0580 C.3    89  ILE89       0.0022
     22  CG2       -7.0600  -35.6400   46.5210 C.3    89  ILE89       0.0023
     23  CD1       -7.9150  -33.3460   48.3560 C.3    89  ILE89       0.0001
     24  N         -8.0490  -38.7580   46.0780 N.am   90  TRP90      -0.1960
     25  CA        -7.3170  -39.9420   45.6480 C.3    90  TRP90       0.1771
     26  C         -6.5340  -39.6120   44.3830 C.2    90  TRP90       0.2620
     27  O         -7.0610  -39.7050   43.2750 O.2    90  TRP90      -0.2715
     28  CB        -8.2830  -41.1050   45.4100 C.3    90  TRP90       0.0590
     29  CG        -7.6470  -42.3450   44.8640 C.ar   90  TRP90       0.0006
     30  CD1       -6.9340  -43.2820   45.5580 C.ar   90  TRP90       0.0946
     31  CD2       -7.6820  -42.7940   43.5060 C.ar   90  TRP90       0.0152
     32  NE1       -6.5180  -44.2820   44.7110 N.ar   90  TRP90      -0.2442
     33  CE2       -6.9650  -44.0040   43.4450 C.ar   90  TRP90       0.0810
     34  CE3       -8.2480  -42.2860   42.3340 C.ar   90  TRP90       0.0012
     35  CZ2       -6.7990  -44.7140   42.2580 C.ar   90  TRP90       0.0191
     36  CZ3       -8.0830  -42.9880   41.1600 C.ar   90  TRP90       0.0001
     37  CH2       -7.3650  -44.1890   41.1280 C.ar   90  TRP90       0.0015
     38  N         -5.2800  -39.2090   44.5630 N.am   91  ASP91      -0.1958
     39  CA        -4.4320  -38.7730   43.4560 C.3    91  ASP91       0.1825
     40  C         -3.0300  -39.3690   43.5850 C.2    91  ASP91       0.2464
     41  O         -2.2610  -38.9530   44.4500 O.2    91  ASP91      -0.2730
     42  CB        -4.3550  -37.2440   43.4190 C.3    91  ASP91       0.1450
     43  CG        -3.5560  -36.7280   42.2360 C.2    91  ASP91       0.3671
     44  OD1       -3.4030  -37.4780   41.2510 O.co2  91  ASP91      -0.2456
     45  OD2       -3.0870  -35.5700   42.2880 O.co2  91  ASP91      -0.2456
     46  N         -2.6880  -40.3470   42.7280 N.am   92  PRO92      -0.2715
     47  CA        -1.3630  -40.9730   42.8290 C.3    92  PRO92       0.1536
     48  C         -0.2030  -40.0350   42.4830 C.2    92  PRO92       0.2599
     49  O          0.9530  -40.4120   42.6770 O.2    92  PRO92      -0.2715
     50  CB        -1.4370  -42.1230   41.8160 C.3    92  PRO92       0.0310
     51  CG        -2.8880  -42.3440   41.5700 C.3    92  PRO92       0.0237
     52  CD        -3.5260  -41.0070   41.7130 C.3    92  PRO92       0.0939
     53  N         -0.5060  -38.8410   41.9820 N.am   93  HIS93      -0.1960
     54  CA         0.5310  -37.8960   41.5740 C.3    93  HIS93       0.1787
     55  C          0.9590  -36.9800   42.7170 C.2    93  HIS93       0.2620
     56  O          1.9000  -36.2000   42.5730 O.2    93  HIS93      -0.2715
     57  CB         0.0430  -37.0600   40.3910 C.3    93  HIS93       0.0785
     58  CG        -0.3740  -37.8790   39.2110 C.ar   93  HIS93       0.0821
     59  ND1       -1.6780  -38.2700   38.9990 N.ar   93  HIS93      -0.2267
     60  CD2        0.3440  -38.3950   38.1850 C.ar   93  HIS93       0.1154
     61  CE1       -1.7470  -38.9860   37.8920 C.ar   93  HIS93       0.1986
     62  NE2       -0.5340  -39.0760   37.3770 N.ar   93  HIS93      -0.2212
     63  N          0.2680  -37.0780   43.8490 N.am   94  PHE94      -0.1974
     64  CA         0.6040  -36.2790   45.0230 C.3    94  PHE94       0.1639
     65  C          1.9850  -36.6260   45.5710 C.2    94  PHE94       0.2290
     66  O          2.3490  -37.7980   45.6780 O.2    94  PHE94      -0.2864
     67  CB        -0.4440  -36.4750   46.1260 C.3    94  PHE94       0.0560
     68  CG        -1.5470  -35.4420   46.1310 C.ar   94  PHE94      -0.0200
     69  CD1       -1.7800  -34.6190   45.0410 C.ar   94  PHE94      -0.0042
     70  CD2       -2.3500  -35.2970   47.2490 C.ar   94  PHE94      -0.0042
     71  CE1       -2.7930  -33.6790   45.0680 C.ar   94  PHE94      -0.0003
     72  CE2       -3.3630  -34.3610   47.2800 C.ar   94  PHE94      -0.0003
     73  CZ        -3.5850  -33.5510   46.1900 C.ar   94  PHE94      -0.0000
     74  N          2.5430  -32.1870   49.1820 N.3    98  ALA98      -0.1245
     75  CA         1.1400  -32.0050   48.8290 C.3    98  ALA98       0.1562
     76  C          0.2190  -32.7770   49.7700 C.2    98  ALA98       0.2260
     77  O         -0.8300  -32.2750   50.1660 O.2    98  ALA98      -0.2867
     78  CB         0.9050  -32.4300   47.3890 C.3    98  ALA98       0.0290
     79  N         -3.0680  -31.0180   52.1800 N.3   102  PHE102     -0.1241
     80  CA        -4.5030  -31.2590   52.0640 C.3   102  PHE102      0.1605
     81  C         -5.0190  -32.1880   53.1530 C.2   102  PHE102      0.2264
     82  O         -6.2180  -32.4570   53.2310 O.2   102  PHE102     -0.2867
     83  CB        -4.8250  -31.8180   50.6800 C.3   102  PHE102      0.0534
     84  CG        -4.5210  -30.8570   49.5750 C.ar  102  PHE102     -0.0203
     85  CD1       -5.4270  -29.8670   49.2350 C.ar  102  PHE102     -0.0042
     86  CD2       -3.3170  -30.9210   48.8990 C.ar  102  PHE102     -0.0042
     87  CE1       -5.1410  -28.9730   48.2290 C.ar  102  PHE102     -0.0003
     88  CE2       -3.0260  -30.0300   47.8930 C.ar  102  PHE102     -0.0003
     89  CZ        -3.9350  -29.0540   47.5610 C.ar  102  PHE102     -0.0000
     90  N        -10.8480  -32.1270   50.6710 N.3   112  ASN112     -0.1240
     91  CA       -11.1870  -30.7610   50.2880 C.3   112  ASN112      0.1653
     92  C        -12.1930  -30.1470   51.2550 C.2   112  ASN112      0.2266
     93  O        -13.1020  -30.8230   51.7360 O.2   112  ASN112     -0.2867
     94  CB       -11.7560  -30.7180   48.8660 C.3   112  ASN112      0.1155
     95  CG       -10.7030  -30.9660   47.8030 C.2   112  ASN112      0.2627
     96  OD1      -10.9030  -31.7710   46.8930 O.2   112  ASN112     -0.2716
     97  ND2       -9.5760  -30.2700   47.9080 N.am  112  ASN112     -0.0877
     98  N          1.9840  -22.4170   45.9130 N.3   630  TYR630     -0.1241
     99  CA         3.2460  -23.1300   45.7680 C.3   630  TYR630      0.1605
    100  C          4.3360  -22.1690   45.2950 C.2   630  TYR630      0.2264
    101  O          4.0570  -21.1920   44.5980 O.2   630  TYR630     -0.2867
    102  CB         3.1070  -24.3080   44.8000 C.3   630  TYR630      0.0534
    103  CG         2.7450  -23.9360   43.3780 C.ar  630  TYR630     -0.0201
    104  CD1        1.4250  -23.9540   42.9490 C.ar  630  TYR630     -0.0009
    105  CD2        3.7250  -23.5850   42.4600 C.ar  630  TYR630     -0.0009
    106  CE1        1.0920  -23.6250   41.6490 C.ar  630  TYR630      0.0417
    107  CE2        3.4020  -23.2540   41.1600 C.ar  630  TYR630      0.0417
    108  CZ         2.0840  -23.2760   40.7590 C.ar  630  TYR630      0.1957
    109  OH         1.7540  -22.9490   39.4630 O.3   630  TYR630     -0.2866
    110  N          4.5440  -25.8380   49.8660 N.3   635  VAL635     -0.1245
    111  CA         3.2210  -26.0500   49.2810 C.3   635  VAL635      0.1561
    112  C          2.1560  -26.1530   50.3750 C.2   635  VAL635      0.2260
    113  O          2.2490  -27.0090   51.2560 O.2   635  VAL635     -0.2867
    114  CB         3.1950  -27.3380   48.4170 C.3   635  VAL635      0.0252
    115  CG1        1.7770  -27.6750   47.9590 C.3   635  VAL635      0.0019
    116  CG2        4.1180  -27.1970   47.2130 C.3   635  VAL635      0.0019
    117  N         -2.6730  -24.7860   47.1960 N.3   639  SER639     -0.1202
    118  CA        -1.8750  -25.1850   46.0400 C.3   639  SER639      0.2020
    119  C         -2.7300  -25.3450   44.7850 C.2   639  SER639      0.2618
    120  O         -2.3540  -24.8680   43.7150 O.2   639  SER639     -0.2717
    121  CB        -1.1340  -26.4920   46.3220 C.3   639  SER639      0.2103
    122  OG        -0.0960  -26.6960   45.3800 O.3   639  SER639     -0.2182
    123  N         -3.8710  -26.0200   44.9170 N.am  640  VAL640     -0.1979
    124  CA        -4.7790  -26.2150   43.7890 C.3   640  VAL640      0.1595
    125  C         -5.1690  -24.8820   43.1790 C.2   640  VAL640      0.2287
    126  O         -4.9380  -24.6370   41.9970 O.2   640  VAL640     -0.2864
    127  CB        -6.0810  -26.9450   44.1940 C.3   640  VAL640      0.0276
    128  CG1       -7.0030  -27.1060   42.9870 C.3   640  VAL640      0.0022
    129  CG2       -5.7820  -28.2930   44.7950 C.3   640  VAL640      0.0022
    130  N         -2.7290  -23.2310   41.2120 N.3   643  TRP643     -0.1241
    131  CA        -2.5320  -23.9380   39.9550 C.3   643  TRP643      0.1605
    132  C         -3.7340  -23.7470   39.0270 C.2   643  TRP643      0.2264
    133  O         -3.5740  -23.5650   37.8190 O.2   643  TRP643     -0.2867
    134  CB        -2.2930  -25.4220   40.2340 C.3   643  TRP643      0.0550
    135  CG        -1.6870  -26.1840   39.1000 C.ar  643  TRP643      0.0003
    136  CD1       -0.3570  -26.3290   38.8260 C.ar  643  TRP643      0.0946
    137  CD2       -2.3860  -26.9240   38.0950 C.ar  643  TRP643      0.0152
    138  NE1       -0.1870  -27.1120   37.7100 N.ar  643  TRP643     -0.2442
    139  CE2       -1.4190  -27.4890   37.2420 C.ar  643  TRP643      0.0810
    140  CE3       -3.7380  -27.1620   37.8330 C.ar  643  TRP643      0.0012
    141  CZ2       -1.7590  -28.2730   36.1450 C.ar  643  TRP643      0.0191
    142  CZ3       -4.0740  -27.9410   36.7440 C.ar  643  TRP643      0.0001
    143  CH2       -3.0900  -28.4870   35.9150 C.ar  643  TRP643      0.0015
@<TRIPOS>BOND
     1   143   141   ar
     2   143   142   ar
     3   141   139   ar
     4   142   140   ar
     5   139   138   ar
     6   139   137   ar
     7    62    61   ar
     8    62    60   ar
     9   138   136   ar
    10   133   132    2
    11   140   137   ar
    12    61    59   ar
    13   137   135   ar
    14    60    58   ar
    15   136   135   ar
    16    59    58   ar
    17   132   131    1
    18   135   134    1
    19    58    57    1
    20   109   108    1
    21   131   134    1
    22   131   130    1
    23    57    54    1
    24   108   107   ar
    25   108   106   ar
    26    37    36   ar
    27    37    35   ar
    28   107   105   ar
    29    36    34   ar
    30    44    43   ar
    31    51    52    1
    32    51    50    1
    33    54    53    1
    34    54    55    1
    35   106   104   ar
    36    52    46    1
    37    50    47    1
    38    53    48   am
    39   126   125    2
    40    43    45   ar
    41    43    42    1
    42    35    33   ar
    43    34    31   ar
    44   105   103   ar
    45    48    49    2
    46    48    47    1
    47    56    55    2
    48    55    63   am
    49    46    47    1
    50    46    40   am
    51   104   103   ar
    52   128   127    1
    53   125   124    1
    54    27    26    2
    55   103   102    1
    56    42    39    1
    57    33    31   ar
    58    33    32   ar
    59    39    40    1
    60    39    38    1
    61    31    29   ar
    62    40    41    2
    63   120   119    2
    64   124   127    1
    65   124   123    1
    66    63    64    1
    67   127   129    1
    68    26    38   am
    69    26    25    1
    70   101   100    2
    71    32    30   ar
    72   119   123   am
    73   119   118    1
    74   102    99    1
    75    29    28    1
    76    29    30   ar
    77    64    65    1
    78    64    67    1
    79    69    71   ar
    80    69    68   ar
    81    71    73   ar
    82   100    99    1
    83   122   121    1
    84    28    25    1
    85    65    66    2
    86    25    24    1
    87     9    10   ar
    88     9     7   ar
    89    99    98    1
    90    10     8   ar
    91   118   121    1
    92   118   117    1
    93    24    18   am
    94    67    68    1
    95    68    70   ar
    96    73    72   ar
    97     7     6   ar
    98    22    20    1
    99    96    95    2
   100     8     6   ar
   101   116   114    1
   102    70    72   ar
   103     6     5    1
   104    18    17    1
   105    18    19    2
   106    78    75    1
   107    89    88   ar
   108    89    87   ar
   109    17    20    1
   110    17    16    1
   111    14    13    2
   112    20    21    1
   113    95    97   am
   114    95    94    1
   115    88    86   ar
   116   115   114    1
   117    21    23    1
   118    87    85   ar
   119     5     2    1
   120   114   111    1
   121    13    16   am
   122    13    12    1
   123    75    74    1
   124    75    76    1
   125    94    91    1
   126    86    84   ar
   127    85    84   ar
   128   111   110    1
   129   111   112    1
   130    84    83    1
   131     2     3    1
   132     2     1    1
   133    76    77    2
   134    11     3   am
   135    11    12    1
   136     3     4    2
   137    12    15    1
   138    91    90    1
   139    91    92    1
   140   112   113    2
   141    83    80    1
   142    92    93    2
   143    80    79    1
   144    80    81    1
   145    81    82    2
