@<TRIPOS>MOLECULE
tmp/4kt0H00.pdb
 85 83 0 0 0
SMALL
GASTEIGER

@<TRIPOS>ATOM
      1  N         50.3440   -5.7560   -9.1270 N.3    16  VAL16      -0.1245
      2  CA        48.9700   -5.4890   -9.5380 C.3    16  VAL16       0.1561
      3  C         48.9120   -5.1670  -11.0270 C.2    16  VAL16       0.2260
      4  O         47.9840   -5.5840  -11.7160 O.2    16  VAL16      -0.2867
      5  CB        48.3380   -4.3240   -8.7310 C.3    16  VAL16       0.0252
      6  CG1       49.1970   -3.0720   -8.8000 C.3    16  VAL16       0.0019
      7  CG2       46.9230   -4.0280   -9.2220 C.3    16  VAL16       0.0019
      8  N         48.6920   -8.3950  -12.6040 N.3    19  PHE19      -0.1227
      9  CA        47.5020   -9.1750  -12.2870 C.3    19  PHE19       0.1736
     10  C         46.2680   -8.6630  -13.0280 C.2    19  PHE19       0.2595
     11  O         45.3160   -9.4120  -13.2470 O.2    19  PHE19      -0.2718
     12  CB        47.2530   -9.1560  -10.7760 C.3    19  PHE19       0.0547
     13  CG        46.3540  -10.2580  -10.2920 C.ar   19  PHE19      -0.0202
     14  CD1       46.8440  -11.5420  -10.1150 C.ar   19  PHE19      -0.0042
     15  CD2       45.0230  -10.0090  -10.0020 C.ar   19  PHE19      -0.0042
     16  CE1       46.0210  -12.5580   -9.6650 C.ar   19  PHE19      -0.0003
     17  CE2       44.1960  -11.0210   -9.5520 C.ar   19  PHE19      -0.0003
     18  CZ        44.6960  -12.2960   -9.3830 C.ar   19  PHE19      -0.0000
     19  N         46.2860   -7.3890  -13.4140 N.am   20  VAL20      -0.1980
     20  CA        45.1540   -6.7930  -14.1210 C.3    20  VAL20       0.1595
     21  C         45.1760   -7.1520  -15.6020 C.2    20  VAL20       0.2287
     22  O         44.1290   -7.3770  -16.2060 O.2    20  VAL20      -0.2864
     23  CB        45.1240   -5.2560  -13.9720 C.3    20  VAL20       0.0276
     24  CG1       44.8140   -4.8800  -12.5320 C.3    20  VAL20       0.0022
     25  CG2       46.4310   -4.6190  -14.4500 C.3    20  VAL20       0.0022
     26  N         43.5880  -10.9540  -15.6570 N.3    23  TYR23      -0.1227
     27  CA        42.1290  -11.0140  -15.7350 C.3    23  TYR23       0.1736
     28  C         41.5230   -9.6140  -15.7690 C.2    23  TYR23       0.2595
     29  O         41.8380   -8.7670  -14.9330 O.2    23  TYR23      -0.2718
     30  CB        41.5550  -11.8010  -14.5500 C.3    23  TYR23       0.0548
     31  CG        41.6320  -13.3110  -14.6800 C.ar   23  TYR23      -0.0200
     32  CD1       42.2050  -13.9160  -15.7940 C.ar   23  TYR23      -0.0009
     33  CD2       41.1170  -14.1330  -13.6850 C.ar   23  TYR23      -0.0009
     34  CE1       42.2690  -15.2920  -15.9080 C.ar   23  TYR23       0.0417
     35  CE2       41.1760  -15.5100  -13.7910 C.ar   23  TYR23       0.0417
     36  CZ        41.7530  -16.0830  -14.9050 C.ar   23  TYR23       0.1957
     37  OH        41.8130  -17.4530  -15.0140 O.3    23  TYR23      -0.2866
     38  N         40.6470   -9.3850  -16.7420 N.am   24  PHE24      -0.1976
     39  CA        39.9990   -8.0900  -16.9110 C.3    24  PHE24       0.1639
     40  C         38.8450   -8.1910  -17.9060 C.2    24  PHE24       0.2290
     41  O         39.0290   -8.6440  -19.0360 O.2    24  PHE24      -0.2864
     42  CB        41.0080   -7.0440  -17.3870 C.3    24  PHE24       0.0560
     43  CG        40.9730   -5.7640  -16.6010 C.ar   24  PHE24      -0.0200
     44  CD1       41.6380   -5.6590  -15.3910 C.ar   24  PHE24      -0.0042
     45  CD2       40.2800   -4.6630  -17.0770 C.ar   24  PHE24      -0.0042
     46  CE1       41.6100   -4.4840  -14.6680 C.ar   24  PHE24      -0.0003
     47  CE2       40.2480   -3.4840  -16.3570 C.ar   24  PHE24      -0.0003
     48  CZ        40.9150   -3.3960  -15.1520 C.ar   24  PHE24      -0.0000
     49  N         42.9340    2.3440  -11.0070 N.3    32  ALA32      -0.1231
     50  CA        42.5520    1.2140  -10.1700 C.3    32  ALA32       0.1694
     51  C         43.7660    0.3680   -9.8030 C.2    32  ALA32       0.2592
     52  O         43.8230   -0.2170   -8.7210 O.2    32  ALA32      -0.2718
     53  CB        41.5120    0.3660  -10.8820 C.3    32  ALA32       0.0304
     54  N         44.7330    0.3080  -10.7120 N.am   33  THR33      -0.1953
     55  CA        45.9480   -0.4650  -10.4900 C.3    33  THR33       0.1897
     56  C         46.7830    0.1540   -9.3730 C.2    33  THR33       0.2313
     57  O         47.1550   -0.5250   -8.4170 O.2    33  THR33      -0.2863
     58  CB        46.7990   -0.5530  -11.7700 C.3    33  THR33       0.1794
     59  OG1       47.2560    0.7540  -12.1330 O.3    33  THR33      -0.2208
     60  CG2       45.9880   -1.1350  -12.9170 C.3    33  THR33       0.0378
     61  N         45.8540    1.9130   -7.1250 N.3    35  SER35      -0.1202
     62  CA        45.0780    1.8890   -5.8900 C.3    35  SER35       0.2020
     63  C         45.2330    0.5550   -5.1710 C.2    35  SER35       0.2618
     64  O         45.5530    0.5110   -3.9830 O.2    35  SER35      -0.2717
     65  CB        43.6000    2.1520   -6.1810 C.3    35  SER35       0.2103
     66  OG        43.4340    3.3030   -6.9880 O.3    35  SER35      -0.2182
     67  N         44.9980   -0.5300   -5.9020 N.am   36  PHE36      -0.1975
     68  CA        45.0720   -1.8720   -5.3390 C.3    36  PHE36       0.1639
     69  C         46.4970   -2.2140   -4.9210 C.2    36  PHE36       0.2290
     70  O         46.7090   -2.9600   -3.9690 O.2    36  PHE36      -0.2864
     71  CB        44.5560   -2.8950   -6.3500 C.3    36  PHE36       0.0560
     72  CG        44.5250   -4.3060   -5.8330 C.ar   36  PHE36      -0.0200
     73  CD1       43.7220   -4.6470   -4.7590 C.ar   36  PHE36      -0.0042
     74  CD2       45.2830   -5.2950   -6.4350 C.ar   36  PHE36      -0.0042
     75  CE1       43.6840   -5.9460   -4.2880 C.ar   36  PHE36      -0.0003
     76  CE2       45.2480   -6.5950   -5.9710 C.ar   36  PHE36      -0.0003
     77  CZ        44.4470   -6.9210   -4.8960 C.ar   36  PHE36      -0.0000
     78  N         47.1970   -0.7380   -1.2140 N.3    39  ILE39      -0.1245
     79  CA        46.5540   -1.5540   -0.1860 C.3    39  ILE39       0.1561
     80  C         47.1720   -2.9470   -0.1490 C.2    39  ILE39       0.2260
     81  O         47.2900   -3.5530    0.9160 O.2    39  ILE39      -0.2867
     82  CB        45.0200   -1.6610   -0.4130 C.3    39  ILE39       0.0252
     83  CG1       44.3750   -2.6090    0.6120 C.3    39  ILE39       0.0019
     84  CG2       44.7040   -2.0900   -1.8440 C.3    39  ILE39       0.0019
     85  CD1       44.1960   -4.0620    0.1560 C.3    39  ILE39       0.0001
@<TRIPOS>BOND
     1    41    40    2
     2    40    39    1
     3    42    39    1
     4    42    43    1
     5    45    43   ar
     6    45    47   ar
     7    39    38    1
     8    38    28   am
     9    43    44   ar
    10    47    48   ar
    11    22    21    2
    12    34    32   ar
    13    34    36   ar
    14    32    31   ar
    15    28    27    1
    16    28    29    2
    17    27    26    1
    18    27    30    1
    19    21    20    1
    20    44    46   ar
    21    48    46   ar
    22    37    36    1
    23    36    35   ar
    24    31    30    1
    25    31    33   ar
    26    25    23    1
    27    20    23    1
    28    20    19    1
    29    23    24    1
    30    35    33   ar
    31    19    10   am
    32    11    10    2
    33    10     9    1
    34    60    58    1
    35     8     9    1
    36     9    12    1
    37    59    58    1
    38    58    55    1
    39     4     3    2
    40     3     2    1
    41    49    50    1
    42    53    50    1
    43    12    13    1
    44    54    55    1
    45    54    51   am
    46    55    56    1
    47    13    14   ar
    48    13    15   ar
    49    50    51    1
    50    14    16   ar
    51    15    17   ar
    52    51    52    2
    53    16    18   ar
    54    17    18   ar
    55     2     1    1
    56     2     5    1
    57    56    57    2
    58     7     5    1
    59     6     5    1
    60    61    62    1
    61    66    65    1
    62    74    76   ar
    63    74    72   ar
    64    71    72    1
    65    71    68    1
    66    65    62    1
    67    76    77   ar
    68    67    68    1
    69    67    63   am
    70    62    63    1
    71    72    73   ar
    72    68    69    1
    73    63    64    2
    74    69    70    2
    75    77    75   ar
    76    73    75   ar
    77    84    82    1
    78    78    79    1
    79    82    79    1
    80    82    83    1
    81    79    80    1
    82    80    81    2
    83    85    83    1
