@<TRIPOS>MOLECULE
tmp/4kt0A42.pdb
 104 100 0 0 0
SMALL
GASTEIGER

@<TRIPOS>ATOM
      1  N          8.5690  -28.8220   23.6720 N.3   438  HIS438     -0.1241
      2  CA         9.8460  -29.0210   24.3550 C.3   438  HIS438      0.1621
      3  C         10.3910  -27.7610   25.0260 C.2   438  HIS438      0.2264
      4  O         11.4560  -27.7980   25.6450 O.2   438  HIS438     -0.2867
      5  CB        10.8810  -29.5620   23.3690 C.3   438  HIS438      0.0745
      6  CG        10.6600  -30.9930   22.9950 C.ar  438  HIS438      0.0817
      7  ND1        9.4220  -31.4870   22.6440 N.ar  438  HIS438     -0.2268
      8  CD2       11.5160  -32.0380   22.9250 C.ar  438  HIS438      0.1154
      9  CE1        9.5270  -32.7750   22.3700 C.ar  438  HIS438      0.1986
     10  NE2       10.7880  -33.1340   22.5330 N.ar  438  HIS438     -0.2212
     11  N          7.9350  -27.5720   29.2300 N.3   442  LEU442     -0.1245
     12  CA         8.8610  -27.7180   30.3490 C.3   442  LEU442      0.1561
     13  C          8.3430  -26.9370   31.5520 C.2   442  LEU442      0.2260
     14  O          8.3980  -27.4130   32.6860 O.2   442  LEU442     -0.2867
     15  CB        10.2640  -27.2300   29.9750 C.3   442  LEU442      0.0270
     16  CG        10.9840  -27.9150   28.8110 C.3   442  LEU442      0.0019
     17  CD1       12.3860  -27.3420   28.6640 C.3   442  LEU442      0.0001
     18  CD2       11.0420  -29.4230   28.9980 C.3   442  LEU442      0.0001
     19  N         12.1640  -31.9500   43.4700 N.3   456  GLN456     -0.1231
     20  CA        13.3210  -32.6610   42.9380 C.3   456  GLN456      0.1698
     21  C         13.0450  -33.2520   41.5530 C.2   456  GLN456      0.2592
     22  O         13.9600  -33.7490   40.8950 O.2   456  GLN456     -0.2718
     23  CB        13.7640  -33.7690   43.9060 C.3   456  GLN456      0.0381
     24  CG        12.8770  -35.0150   43.9480 C.3   456  GLN456      0.0905
     25  CD        11.5120  -34.7570   44.5560 C.2   456  GLN456      0.2608
     26  OE1       11.2410  -33.6720   45.0700 O.2   456  GLN456     -0.2717
     27  NE2       10.6440  -35.7600   44.5040 N.am  456  GLN456     -0.0878
     28  N         11.7890  -33.1960   41.1180 N.am  457  ASP457     -0.1974
     29  CA        11.4060  -33.6990   39.8000 C.3   457  ASP457      0.1709
     30  C         11.4160  -32.5920   38.7460 C.2   457  ASP457      0.2293
     31  O         11.3780  -32.8650   37.5460 O.2   457  ASP457     -0.2864
     32  CB        10.0190  -34.3450   39.8550 C.3   457  ASP457      0.1436
     33  CG         9.9890  -35.5930   40.7160 C.2   457  ASP457      0.3671
     34  OD1       11.0690  -36.1550   40.9960 O.co2 457  ASP457     -0.2456
     35  OD2        8.8810  -36.0190   41.1040 O.co2 457  ASP457     -0.2456
     36  N         12.6120  -29.3800   36.3450 N.3   459  PHE459     -0.1241
     37  CA        13.7980  -28.9650   35.6140 C.3   459  PHE459      0.1605
     38  C         14.3800  -27.7320   36.2930 C.2   459  PHE459      0.2264
     39  O         13.7760  -26.6580   36.2740 O.2   459  PHE459     -0.2867
     40  CB        13.4780  -28.6680   34.1480 C.3   459  PHE459      0.0534
     41  CG        12.9880  -29.8620   33.3800 C.ar  459  PHE459     -0.0203
     42  CD1       13.8310  -30.9280   33.1170 C.ar  459  PHE459     -0.0042
     43  CD2       11.6880  -29.9140   32.9100 C.ar  459  PHE459     -0.0042
     44  CE1       13.3840  -32.0270   32.4100 C.ar  459  PHE459     -0.0003
     45  CE2       11.2360  -31.0090   32.2020 C.ar  459  PHE459     -0.0003
     46  CZ        12.0850  -32.0670   31.9520 C.ar  459  PHE459     -0.0000
     47  N         17.9410  -29.5730   40.6570 N.3   463  ALA463     -0.1231
     48  CA        17.3260  -30.8690   40.3710 C.3   463  ALA463      0.1694
     49  C         17.8850  -31.4240   39.0560 C.2   463  ALA463      0.2592
     50  O         19.0990  -31.4220   38.8580 O.2   463  ALA463     -0.2718
     51  CB        15.8100  -30.7340   40.3160 C.3   463  ALA463      0.0304
     52  N         17.0180  -31.9060   38.1660 N.am  464  ILE464     -0.1966
     53  CA        17.4590  -32.3350   36.8360 C.3   464  ILE464      0.1727
     54  C         17.7090  -31.0870   35.9990 C.2   464  ILE464      0.2616
     55  O         16.7830  -30.3340   35.7070 O.2   464  ILE464     -0.2715
     56  CB        16.4320  -33.2720   36.1260 C.3   464  ILE464      0.0290
     57  CG1       16.7210  -33.3370   34.6210 C.3   464  ILE464      0.0022
     58  CG2       14.9940  -32.8090   36.3440 C.3   464  ILE464      0.0023
     59  CD1       15.9320  -34.3980   33.8800 C.3   464  ILE464      0.0001
     60  N         18.9640  -30.8770   35.6090 N.am  465  GLN465     -0.1963
     61  CA        19.3760  -29.5960   35.0410 C.3   465  GLN465      0.1733
     62  C         19.6500  -29.6390   33.5370 C.2   465  GLN465      0.2616
     63  O         20.2820  -30.5620   33.0190 O.2   465  GLN465     -0.2715
     64  CB        20.6170  -29.0660   35.7730 C.3   465  GLN465      0.0408
     65  CG        21.5800  -30.1250   36.2940 C.3   465  GLN465      0.0908
     66  CD        22.6800  -29.5260   37.1460 C.2   465  GLN465      0.2608
     67  OE1       23.0940  -28.3860   36.9320 O.2   465  GLN465     -0.2717
     68  NE2       23.1500  -30.2860   38.1280 N.am  465  GLN465     -0.0878
     69  N         19.1510  -28.6110   32.8570 N.am  466  LEU466     -0.1963
     70  CA        19.3640  -28.4020   31.4300 C.3   466  LEU466      0.1728
     71  C         20.3970  -27.3030   31.1880 C.2   466  LEU466      0.2616
     72  O         20.0420  -26.1780   30.8410 O.2   466  LEU466     -0.2715
     73  CB        18.0460  -28.0210   30.7480 C.3   466  LEU466      0.0311
     74  CG        16.9800  -29.0910   30.5000 C.3   466  LEU466      0.0022
     75  CD1       16.9510  -30.1510   31.5870 C.3   466  LEU466      0.0001
     76  CD2       15.6190  -28.4180   30.3830 C.3   466  LEU466      0.0001
     77  N         21.6740  -27.6230   31.3670 N.am  467  GLN467     -0.1977
     78  CA        22.7280  -26.6280   31.1980 C.3   467  GLN467      0.1601
     79  C         22.9360  -26.2780   29.7240 C.2   467  GLN467      0.2287
     80  O         22.9620  -27.1680   28.8750 O.2   467  GLN467     -0.2864
     81  CB        24.0430  -27.1310   31.7980 C.3   467  GLN467      0.0394
     82  CG        24.0160  -27.3000   33.3070 C.3   467  GLN467      0.0908
     83  CD        23.8110  -25.9880   34.0370 C.2   467  GLN467      0.2608
     84  OE1       24.5520  -25.0260   33.8300 O.2   467  GLN467     -0.2717
     85  NE2       22.7960  -25.9390   34.8900 N.am  467  GLN467     -0.0878
     86  N         25.2620  -26.1250   27.5720 N.3   469  ILE469     -0.1245
     87  CA        26.6430  -26.5690   27.3880 C.3   469  ILE469      0.1561
     88  C         27.3860  -25.7160   26.3670 C.2   469  ILE469      0.2260
     89  O         28.5130  -25.2800   26.6040 O.2   469  ILE469     -0.2867
     90  CB        26.7000  -28.0450   26.9230 C.3   469  ILE469      0.0252
     91  CG1       25.9780  -28.9580   27.9190 C.3   469  ILE469      0.0019
     92  CG2       28.1500  -28.5020   26.7470 C.3   469  ILE469      0.0019
     93  CD1       25.7510  -30.3640   27.4080 C.3   469  ILE469      0.0001
     94  N         18.4150  -21.6270   29.6010 N.3   520  PHE520     -0.1241
     95  CA        18.1690  -22.6530   28.5930 C.3   520  PHE520      0.1605
     96  C         16.7070  -22.6760   28.1580 C.2   520  PHE520      0.2264
     97  O         16.4050  -22.7680   26.9680 O.2   520  PHE520     -0.2867
     98  CB        18.5770  -24.0220   29.1430 C.3   520  PHE520      0.0534
     99  CG        18.3570  -25.1570   28.1860 C.ar  520  PHE520     -0.0203
    100  CD1       17.1460  -25.8290   28.1520 C.ar  520  PHE520     -0.0042
    101  CD2       19.3670  -25.5650   27.3320 C.ar  520  PHE520     -0.0042
    102  CE1       16.9440  -26.8790   27.2770 C.ar  520  PHE520     -0.0003
    103  CE2       19.1710  -26.6150   26.4540 C.ar  520  PHE520     -0.0003
    104  CZ        17.9580  -27.2730   26.4270 C.ar  520  PHE520     -0.0000
@<TRIPOS>BOND
     1     9    10   ar
     2     9     7   ar
     3    10     8   ar
     4     7     6   ar
     5     8     6   ar
     6     6     5    1
     7     5     2    1
     8     1     2    1
     9     2     3    1
    10     3     4    2
    11    88    89    2
    12    88    87    1
    13   104   103   ar
    14   104   102   ar
    15   103   101   ar
    16    92    90    1
    17    90    87    1
    18    90    91    1
    19    97    96    2
    20   102   100   ar
    21   101    99   ar
    22    87    86    1
    23    93    91    1
    24   100    99   ar
    25    96    95    1
    26    99    98    1
    27    95    98    1
    28    95    94    1
    29    17    16    1
    30    16    18    1
    31    16    15    1
    32    80    79    2
    33    11    12    1
    34    79    78    1
    35    15    12    1
    36    12    13    1
    37    76    74    1
    38    74    73    1
    39    74    75    1
    40    73    70    1
    41    72    71    2
    42    71    77   am
    43    71    70    1
    44    78    77    1
    45    78    81    1
    46    70    69    1
    47    13    14    2
    48    81    82    1
    49    46    45   ar
    50    46    44   ar
    51    45    43   ar
    52    44    42   ar
    53    69    62   am
    54    43    41   ar
    55    63    62    2
    56    42    41   ar
    57    82    83    1
    58    41    40    1
    59    62    61    1
    60    84    83    2
    61    59    57    1
    62    83    85   am
    63    40    37    1
    64    57    56    1
    65    61    60    1
    66    61    64    1
    67    60    54   am
    68    37    38    1
    69    37    36    1
    70    55    54    2
    71    64    65    1
    72    54    53    1
    73    56    58    1
    74    56    53    1
    75    39    38    2
    76    65    66    1
    77    53    52    1
    78    67    66    2
    79    66    68   am
    80    31    30    2
    81    52    49   am
    82    30    29    1
    83    50    49    2
    84    49    48    1
    85    29    32    1
    86    29    28    1
    87    32    33    1
    88    51    48    1
    89    48    47    1
    90    33    34   ar
    91    33    35   ar
    92    22    21    2
    93    28    21   am
    94    21    20    1
    95    20    19    1
    96    20    23    1
    97    23    24    1
    98    24    25    1
    99    27    25   am
   100    25    26    2
