@<TRIPOS>MOLECULE
tmp/4kt0H04.pdb
 73 67 0 0 0
SMALL
GASTEIGER

@<TRIPOS>ATOM
      1  N         60.1950    7.7890    3.9950 N.3     1  ALA1       -0.1231
      2  CA        59.5380    6.5080    3.7870 C.3     1  ALA1        0.1694
      3  C         60.5410    5.3680    3.8690 C.2     1  ALA1        0.2592
      4  O         60.1650    4.2230    4.0720 O.2     1  ALA1       -0.2718
      5  CB        58.8380    6.4500    2.4180 C.3     1  ALA1        0.0304
      6  N         61.8110    5.6990    3.6580 N.am    2  GLY2       -0.1957
      7  CA        62.9320    4.7660    3.7750 C.3     2  GLY2        0.1869
      8  C         63.1030    4.0940    2.4360 C.2     2  GLY2        0.2309
      9  O         62.1340    3.9290    1.7080 O.2     2  GLY2       -0.2863
     10  N         61.2750    0.2890    2.3930 N.3     5  LEU5       -0.1231
     11  CA        59.8240    0.3200    2.3810 C.3     5  LEU5        0.1693
     12  C         59.3860    0.8450    1.0460 C.2     5  LEU5        0.2592
     13  O         58.4870    0.3150    0.3990 O.2     5  LEU5       -0.2718
     14  CB        59.3000    1.2450    3.4740 C.3     5  LEU5        0.0284
     15  CG        59.5940    0.8780    4.9290 C.3     5  LEU5        0.0019
     16  CD1       60.7620   -0.0880    5.0450 C.3     5  LEU5        0.0001
     17  CD2       59.8610    2.1280    5.7550 C.3     5  LEU5        0.0001
     18  N         60.0730    1.8900    0.6180 N.am    6  SER6       -0.1952
     19  CA        59.7110    2.5720   -0.6020 C.3     6  SER6        0.1924
     20  C         59.6590    1.5490   -1.7070 C.2     6  SER6        0.2314
     21  O         58.6020    1.2780   -2.2710 O.2     6  SER6       -0.2863
     22  CB        60.7370    3.6500   -0.9390 C.3     6  SER6        0.2116
     23  OG        60.7320    4.6710    0.0440 O.3     6  SER6       -0.2180
     24  N         57.1890   -1.3750   -2.0780 N.3     9  ILE9       -0.1231
     25  CA        55.8240   -1.0940   -2.5110 C.3     9  ILE9        0.1692
     26  C         55.7200   -1.0230   -4.0340 C.2     9  ILE9        0.2591
     27  O         54.6990   -1.4060   -4.6050 O.2     9  ILE9       -0.2718
     28  CB        55.3170    0.2290   -1.8950 C.3     9  ILE9        0.0266
     29  CG1       55.3150    0.1310   -0.3650 C.3     9  ILE9        0.0019
     30  CG2       53.9240    0.5880   -2.4130 C.3     9  ILE9        0.0020
     31  CD1       54.3560   -0.8960    0.2070 C.3     9  ILE9        0.0001
     32  N         56.7700   -0.5370   -4.6930 N.am   10  ILE10      -0.1980
     33  CA        56.7490   -0.4220   -6.1490 C.3    10  ILE10       0.1595
     34  C         56.7360   -1.8220   -6.7510 C.2    10  ILE10       0.2287
     35  O         56.2140   -2.0310   -7.8460 O.2    10  ILE10      -0.2864
     36  CB        57.9580    0.3900   -6.7090 C.3    10  ILE10       0.0276
     37  CG1       59.1890   -0.5080   -6.9170 C.3    10  ILE10       0.0022
     38  CG2       58.2490    1.6030   -5.8180 C.3    10  ILE10       0.0022
     39  CD1       60.4450    0.2270   -7.3390 C.3    10  ILE10       0.0001
     40  N         53.2260   -2.6080   -6.8550 N.3    13  LEU13      -0.1245
     41  CA        52.5600   -1.8710   -7.9220 C.3    13  LEU13       0.1561
     42  C         52.7590   -2.6120   -9.2370 C.2    13  LEU13       0.2260
     43  O         51.8580   -2.6740  -10.0660 O.2    13  LEU13      -0.2867
     44  CB        53.0920   -0.4390   -8.0240 C.3    13  LEU13       0.0270
     45  CG        52.5520    0.5620   -6.9990 C.3    13  LEU13       0.0019
     46  CD1       53.3310    1.8580   -7.0740 C.3    13  LEU13       0.0001
     47  CD2       51.0690    0.8290   -7.2130 C.3    13  LEU13       0.0001
     48  N         44.1940    3.8540  -12.8940 N.3    31  LEU31      -0.1245
     49  CA        44.0250    4.4280  -11.5650 C.3    31  LEU31       0.1561
     50  C         43.7100    3.3260  -10.5620 C.2    31  LEU31       0.2260
     51  O         44.1600    3.3640   -9.4170 O.2    31  LEU31      -0.2867
     52  CB        42.9140    5.4800  -11.5610 C.3    31  LEU31       0.0270
     53  CG        43.2600    6.8410  -10.9470 C.3    31  LEU31       0.0019
     54  CD1       43.7640    6.6970   -9.5170 C.3    31  LEU31       0.0001
     55  CD2       44.2780    7.5740  -11.8070 C.3    31  LEU31       0.0001
     56  N         47.0680    1.4470   -9.4990 N.3    34  MET34      -0.1245
     57  CA        47.8450    2.1690   -8.4960 C.3    34  MET34       0.1570
     58  C         47.1630    2.1470   -7.1290 C.2    34  MET34       0.2261
     59  O         47.8120    2.3370   -6.1010 O.2    34  MET34      -0.2867
     60  CB        48.0660    3.6190   -8.9370 C.3    34  MET34       0.0387
     61  CG        49.0330    3.7860  -10.1000 C.3    34  MET34       0.0595
     62  SD        50.7610    3.6300   -9.6080 S.3    34  MET34      -0.1393
     63  CE        51.5890    4.1420  -11.1120 C.3    34  MET34       0.0692
     64  N         48.7410   -0.2100   -3.5960 N.3    38  HIS38      -0.1241
     65  CA        49.0490    0.3980   -2.3060 C.3    38  HIS38       0.1621
     66  C         48.4880   -0.4250   -1.1490 C.2    38  HIS38       0.2264
     67  O         49.2120   -0.7620   -0.2130 O.2    38  HIS38      -0.2867
     68  CB        48.5060    1.8270   -2.2440 C.3    38  HIS38       0.0745
     69  CG        49.3940    2.8400   -2.8990 C.ar   38  HIS38       0.0817
     70  ND1       49.3920    3.0650   -4.2590 N.ar   38  HIS38      -0.2268
     71  CD2       50.3160    3.6840   -2.3790 C.ar   38  HIS38       0.1154
     72  CE1       50.2730    4.0060   -4.5480 C.ar   38  HIS38       0.1986
     73  NE2       50.8480    4.3980   -3.4250 N.ar   38  HIS38      -0.2212
@<TRIPOS>BOND
     1    48    49    1
     2    55    53    1
     3    49    52    1
     4    49    50    1
     5    52    53    1
     6    63    62    1
     7    53    54    1
     8    50    51    2
     9    61    62    1
    10    61    60    1
    11    43    42    2
    12    56    57    1
    13    42    41    1
    14    60    57    1
    15    57    58    1
    16    44    41    1
    17    44    45    1
    18    41    40    1
    19    35    34    2
    20    39    37    1
    21    47    45    1
    22    58    59    2
    23    46    45    1
    24    37    36    1
    25    34    33    1
    26    36    33    1
    27    36    38    1
    28    33    32    1
    29    32    26   am
    30    27    26    2
    31    72    70   ar
    32    72    73   ar
    33    70    69   ar
    34    26    25    1
    35    64    65    1
    36    73    71   ar
    37    69    71   ar
    38    69    68    1
    39    25    24    1
    40    25    28    1
    41    30    28    1
    42    65    68    1
    43    65    66    1
    44    21    20    2
    45    28    29    1
    46    20    19    1
    47    66    67    2
    48    22    19    1
    49    22    23    1
    50    19    18    1
    51    29    31    1
    52    13    12    2
    53    18    12   am
    54    12    11    1
    55     9     8    2
    56    11    10    1
    57    11    14    1
    58     5     2    1
    59     8     7    1
    60    14    15    1
    61     6     7    1
    62     6     3   am
    63     2     3    1
    64     2     1    1
    65     3     4    2
    66    15    16    1
    67    15    17    1
