@<TRIPOS>MOLECULE
tmp/4kt0F05.pdb
 78 77 0 0 0
SMALL
GASTEIGER

@<TRIPOS>ATOM
      1  N        -24.9360   20.4990   41.2200 N.3    63  PHE63      -0.1241
      2  CA       -25.3740   19.8030   40.0170 C.3    63  PHE63       0.1605
      3  C        -26.3030   20.6400   39.1420 C.2    63  PHE63       0.2264
      4  O        -26.2090   20.5910   37.9180 O.2    63  PHE63      -0.2867
      5  CB       -26.0720   18.4970   40.3950 C.3    63  PHE63       0.0534
      6  CG       -26.3440   17.6010   39.2250 C.ar   63  PHE63      -0.0203
      7  CD1      -25.2980   17.0860   38.4800 C.ar   63  PHE63      -0.0042
      8  CD2      -27.6380   17.2690   38.8710 C.ar   63  PHE63      -0.0042
      9  CE1      -25.5360   16.2610   37.4000 C.ar   63  PHE63      -0.0003
     10  CE2      -27.8830   16.4430   37.7910 C.ar   63  PHE63      -0.0003
     11  CZ       -26.8300   15.9390   37.0550 C.ar   63  PHE63      -0.0000
     12  N        -24.2060   23.4930   37.1410 N.3    66  PRO66      -0.2102
     13  CA       -23.4350   22.9350   36.0220 C.3    66  PRO66       0.1504
     14  C        -24.2900   22.1480   35.0260 C.2    66  PRO66       0.2576
     15  O        -23.8240   21.8670   33.9210 O.2    66  PRO66      -0.2718
     16  CB       -22.4180   22.0190   36.7130 C.3    66  PRO66       0.0282
     17  CG       -22.9900   21.7290   38.0470 C.3    66  PRO66       0.0208
     18  CD       -23.7740   22.9390   38.4360 C.3    66  PRO66       0.0893
     19  N        -25.5160   21.7980   35.4070 N.am   67  SER67      -0.1953
     20  CA       -26.4300   21.1300   34.4870 C.3    67  SER67       0.1924
     21  C        -26.9760   22.1150   33.4630 C.2    67  SER67       0.2314
     22  O        -26.9710   21.8400   32.2630 O.2    67  SER67      -0.2863
     23  CB       -27.5920   20.4750   35.2370 C.3    67  SER67       0.2116
     24  OG       -27.2740   19.1540   35.6370 O.3    67  SER67      -0.2180
     25  N        -24.3580   23.2210   31.0240 N.3    70  PHE70      -0.1227
     26  CA       -24.0380   22.2110   30.0200 C.3    70  PHE70       0.1736
     27  C        -25.0870   22.1760   28.9200 C.2    70  PHE70       0.2595
     28  O        -24.7640   22.2740   27.7360 O.2    70  PHE70      -0.2718
     29  CB       -23.9310   20.8180   30.6430 C.3    70  PHE70       0.0547
     30  CG       -23.8170   19.7180   29.6250 C.ar   70  PHE70      -0.0202
     31  CD1      -22.5870   19.3630   29.0990 C.ar   70  PHE70      -0.0042
     32  CD2      -24.9450   19.0540   29.1770 C.ar   70  PHE70      -0.0042
     33  CE1      -22.4850   18.3590   28.1550 C.ar   70  PHE70      -0.0003
     34  CE2      -24.8490   18.0520   28.2350 C.ar   70  PHE70      -0.0003
     35  CZ       -23.6180   17.7060   27.7210 C.ar   70  PHE70      -0.0000
     36  N        -26.3430   22.0180   29.3250 N.am   71  LEU71      -0.1980
     37  CA       -27.4420   21.8410   28.3860 C.3    71  LEU71       0.1596
     38  C        -27.5960   23.0550   27.4830 C.2    71  LEU71       0.2287
     39  O        -28.1220   22.9500   26.3760 O.2    71  LEU71      -0.2864
     40  CB       -28.7420   21.5690   29.1420 C.3    71  LEU71       0.0297
     41  CG       -28.7490   20.2620   29.9400 C.3    71  LEU71       0.0022
     42  CD1      -29.9300   20.2160   30.8930 C.3    71  LEU71       0.0001
     43  CD2      -28.7700   19.0600   29.0060 C.3    71  LEU71       0.0001
     44  N        -24.4400   22.4040   25.1210 N.3    74  ALA74      -0.1231
     45  CA       -24.6240   21.1870   24.3360 C.3    74  ALA74       0.1694
     46  C        -25.6870   21.3890   23.2610 C.2    74  ALA74       0.2592
     47  O        -25.4950   21.0040   22.1070 O.2    74  ALA74      -0.2718
     48  CB       -25.0010   20.0220   25.2380 C.3    74  ALA74       0.0304
     49  N        -26.8060   21.9930   23.6470 N.am   75  GLY75      -0.1957
     50  CA       -27.8850   22.2680   22.7170 C.3    75  GLY75       0.1869
     51  C        -27.4690   23.2780   21.6660 C.2    75  GLY75       0.2309
     52  O        -27.9160   23.2160   20.5210 O.2    75  GLY75      -0.2863
     53  N        -24.3910   23.5930   20.4170 N.3    77  ILE77      -0.1231
     54  CA       -23.6240   22.8120   19.4520 C.3    77  ILE77       0.1692
     55  C        -24.5550   22.0280   18.5340 C.2    77  ILE77       0.2592
     56  O        -24.4470   22.1090   17.3110 O.2    77  ILE77      -0.2718
     57  CB       -22.6590   21.8270   20.1510 C.3    77  ILE77       0.0266
     58  CG1      -21.6300   22.5940   20.9830 C.3    77  ILE77       0.0019
     59  CG2      -21.9450   20.9470   19.1210 C.3    77  ILE77       0.0020
     60  CD1      -20.7300   21.7170   21.8390 C.3    77  ILE77       0.0001
     61  N        -25.4650   21.2700   19.1360 N.am   78  GLY78      -0.1957
     62  CA       -26.3750   20.4200   18.3920 C.3    78  GLY78       0.1869
     63  C        -27.2520   21.1870   17.4220 C.2    78  GLY78       0.2309
     64  O        -27.4940   20.7350   16.3040 O.2    78  GLY78      -0.2863
     65  N        -30.8340   29.3270   20.7180 N.3   116  TRP116     -0.1241
     66  CA       -31.3180   28.0560   20.1850 C.3   116  TRP116      0.1605
     67  C        -32.5650   27.5000   20.8840 C.2   116  TRP116      0.2264
     68  O        -33.3480   26.7940   20.2470 O.2   116  TRP116     -0.2867
     69  CB       -30.1990   27.0030   20.2270 C.3   116  TRP116      0.0550
     70  CG       -29.8520   26.4920   21.5970 C.ar  116  TRP116      0.0003
     71  CD1      -28.8130   26.8980   22.3860 C.ar  116  TRP116      0.0946
     72  CD2      -30.5400   25.4730   22.3350 C.ar  116  TRP116      0.0152
     73  NE1      -28.8150   26.1990   23.5700 N.ar  116  TRP116     -0.2442
     74  CE2      -29.8650   25.3190   23.5630 C.ar  116  TRP116      0.0810
     75  CE3      -31.6620   24.6790   22.0780 C.ar  116  TRP116      0.0012
     76  CZ2      -30.2750   24.4030   24.5300 C.ar  116  TRP116      0.0191
     77  CZ3      -32.0680   23.7720   23.0400 C.ar  116  TRP116      0.0001
     78  CH2      -31.3760   23.6410   24.2500 C.ar  116  TRP116      0.0015
@<TRIPOS>BOND
     1    64    63    2
     2    56    55    2
     3    63    62    1
     4    62    61    1
     5    55    61   am
     6    55    54    1
     7    59    57    1
     8    54    57    1
     9    54    53    1
    10    57    58    1
    11    66    69    1
    12    66    65    1
    13    66    67    1
    14    69    70    1
    15    68    67    2
    16    52    51    2
    17    58    60    1
    18    70    72   ar
    19    70    71   ar
    20    51    50    1
    21    75    72   ar
    22    75    77   ar
    23    47    46    2
    24    72    74   ar
    25    71    73   ar
    26    50    49    1
    27    77    78   ar
    28    46    49   am
    29    46    45    1
    30    74    73   ar
    31    74    76   ar
    32    78    76   ar
    33    45    44    1
    34    45    48    1
    35    39    38    2
    36    38    37    1
    37    35    33   ar
    38    35    34   ar
    39    28    27    2
    40    33    31   ar
    41    34    32   ar
    42    37    40    1
    43    37    36    1
    44    27    36   am
    45    27    26    1
    46    43    41    1
    47    31    30   ar
    48    40    41    1
    49    32    30   ar
    50    30    29    1
    51    41    42    1
    52    26    29    1
    53    26    25    1
    54    22    21    2
    55    21    20    1
    56    15    14    2
    57    20    23    1
    58    20    19    1
    59    14    19   am
    60    14    13    1
    61    23    24    1
    62    13    16    1
    63    13    12    1
    64    16    17    1
    65    11     9   ar
    66    11    10   ar
    67    12    18    1
    68     9     7   ar
    69    10     8   ar
    70     4     3    2
    71    17    18    1
    72     7     6   ar
    73     8     6   ar
    74     3     2    1
    75     6     5    1
    76     2     5    1
    77     2     1    1
