@<TRIPOS>MOLECULE
tmp/4kt0B44.pdb
 133 131 0 0 0
SMALL
GASTEIGER

@<TRIPOS>ATOM
      1  N        -14.5470  -33.9370    8.6030 N.3    16  THR16      -0.1218
      2  CA       -14.6130  -34.0260   10.0570 C.3    16  THR16       0.1862
      3  C        -15.7430  -33.1630   10.6030 C.2    16  THR16       0.2287
      4  O        -16.2430  -33.4010   11.7020 O.2    16  THR16      -0.2866
      5  CB       -13.2910  -33.5840   10.7090 C.3    16  THR16       0.1770
      6  OG1      -12.9320  -32.2820   10.2310 O.3    16  THR16      -0.2211
      7  CG2      -12.1770  -34.5650   10.3850 C.3    16  THR16       0.0375
      8  N        -18.8260  -34.7980   12.4100 N.3    19  ILE19      -0.1231
      9  CA       -18.7920  -35.2030   13.8110 C.3    19  ILE19       0.1692
     10  C        -19.1730  -34.0480   14.7290 C.2    19  ILE19       0.2592
     11  O        -20.0330  -34.1970   15.5970 O.2    19  ILE19      -0.2718
     12  CB       -17.3920  -35.7290   14.2020 C.3    19  ILE19       0.0266
     13  CG1      -17.0170  -36.9320   13.3320 C.3    19  ILE19       0.0019
     14  CG2      -17.3490  -36.1210   15.6770 C.3    19  ILE19       0.0020
     15  CD1      -15.5590  -37.3300   13.4200 C.3    19  ILE19       0.0001
     16  N        -18.5310  -32.9010   14.5330 N.am   20  TRP20      -0.1976
     17  CA       -18.7900  -31.7260   15.3570 C.3    20  TRP20       0.1640
     18  C        -20.2430  -31.2690   15.2540 C.2    20  TRP20       0.2290
     19  O        -20.9330  -31.1210   16.2630 O.2    20  TRP20      -0.2864
     20  CB       -17.8740  -30.5720   14.9530 C.3    20  TRP20       0.0576
     21  CG       -16.4110  -30.8460   15.1050 C.ar   20  TRP20       0.0006
     22  CD1      -15.4920  -30.9570   14.1030 C.ar   20  TRP20       0.0946
     23  CD2      -15.6900  -31.0240   16.3300 C.ar   20  TRP20       0.0152
     24  NE1      -14.2450  -31.1970   14.6260 N.ar   20  TRP20      -0.2442
     25  CE2      -14.3400  -31.2440   15.9950 C.ar   20  TRP20       0.0810
     26  CE3      -16.0550  -31.0230   17.6810 C.ar   20  TRP20       0.0012
     27  CZ2      -13.3560  -31.4600   16.9540 C.ar   20  TRP20       0.0191
     28  CZ3      -15.0760  -31.2380   18.6320 C.ar   20  TRP20       0.0001
     29  CH2      -13.7440  -31.4540   18.2640 C.ar   20  TRP20       0.0015
     30  N         -3.8220  -26.6140    6.9770 N.3   670  ILE670     -0.1245
     31  CA        -4.1610  -28.0300    7.0730 C.3   670  ILE670      0.1561
     32  C         -3.7900  -28.7670    5.7900 C.2   670  ILE670      0.2260
     33  O         -3.3200  -29.9030    5.8350 O.2   670  ILE670     -0.2867
     34  CB        -5.6660  -28.2260    7.3740 C.3   670  ILE670      0.0252
     35  CG1       -5.9450  -27.9150    8.8460 C.3   670  ILE670      0.0019
     36  CG2       -6.1170  -29.6570    7.0650 C.3   670  ILE670      0.0019
     37  CD1       -7.4170  -27.8260    9.1990 C.3   670  ILE670      0.0001
     38  N         -0.4240  -29.9760    5.7380 N.3   673  ILE673     -0.1231
     39  CA        -0.2950  -31.1010    6.6540 C.3   673  ILE673      0.1692
     40  C         -0.8440  -32.3620    5.9930 C.2   673  ILE673      0.2591
     41  O         -0.2610  -33.4400    6.1100 O.2   673  ILE673     -0.2718
     42  CB        -1.0330  -30.8280    7.9820 C.3   673  ILE673      0.0266
     43  CG1       -0.4520  -29.5800    8.6520 C.3   673  ILE673      0.0019
     44  CG2       -0.9300  -32.0250    8.9230 C.3   673  ILE673      0.0020
     45  CD1       -1.3080  -29.0160    9.7610 C.3   673  ILE673      0.0001
     46  N         -1.9710  -32.2170    5.3010 N.am  674  VAL674     -0.1980
     47  CA        -2.5440  -33.3130    4.5280 C.3   674  VAL674      0.1595
     48  C         -1.5740  -33.7350    3.4300 C.2   674  VAL674      0.2287
     49  O         -1.4310  -34.9230    3.1450 O.2   674  VAL674     -0.2864
     50  CB        -3.9040  -32.9170    3.9100 C.3   674  VAL674      0.0276
     51  CG1       -4.3660  -33.9390    2.8690 C.3   674  VAL674      0.0022
     52  CG2       -4.9490  -32.7660    5.0050 C.3   674  VAL674      0.0022
     53  N          1.3060  -35.6940    5.0430 N.3   677  HIS677     -0.1241
     54  CA         0.9090  -37.0490    5.4070 C.3   677  HIS677      0.1621
     55  C          0.9560  -37.9850    4.2070 C.2   677  HIS677      0.2264
     56  O          1.5710  -39.0490    4.2640 O.2   677  HIS677     -0.2867
     57  CB        -0.4960  -37.0610    6.0060 C.3   677  HIS677      0.0745
     58  CG        -0.9410  -38.4160    6.4600 C.ar  677  HIS677      0.0817
     59  ND1       -0.7010  -38.8920    7.7310 N.ar  677  HIS677     -0.2268
     60  CD2       -1.5980  -39.4030    5.8060 C.ar  677  HIS677      0.1154
     61  CE1       -1.1980  -40.1110    7.8430 C.ar  677  HIS677      0.1986
     62  NE2       -1.7470  -40.4450    6.6890 N.ar  677  HIS677     -0.2212
     63  N         -2.0780  -45.7640    6.5110 N.3   686  VAL686     -0.1231
     64  CA        -3.1240  -45.2720    7.3970 C.3   686  VAL686      0.1692
     65  C         -3.8830  -44.1250    6.7350 C.2   686  VAL686      0.2592
     66  O         -3.3620  -43.0150    6.6110 O.2   686  VAL686     -0.2718
     67  CB        -2.5450  -44.7900    8.7430 C.3   686  VAL686      0.0266
     68  CG1       -3.6630  -44.5490    9.7430 C.3   686  VAL686      0.0020
     69  CG2       -1.5520  -45.8040    9.2950 C.3   686  VAL686      0.0020
     70  N         -5.1120  -44.4040    6.3090 N.am  687  ARG687     -0.1966
     71  CA        -5.9580  -43.4030    5.6650 C.3   687  ARG687      0.1729
     72  C         -7.1190  -43.0230    6.5790 C.2   687  ARG687      0.2616
     73  O         -7.8330  -43.8910    7.0800 O.2   687  ARG687     -0.2715
     74  CB        -6.4930  -43.9250    4.3290 C.3   687  ARG687      0.0348
     75  CG        -5.5820  -44.9290    3.6420 C.3   687  ARG687      0.0492
     76  CD        -6.0400  -45.2330    2.2230 C.3   687  ARG687      0.2205
     77  NE        -5.6600  -44.1810    1.2800 N.pl3 687  ARG687     -0.0865
     78  CZ        -6.4380  -43.1660    0.9100 C.cat 687  ARG687      0.5346
     79  NH1       -7.6690  -43.0360    1.3920 N.pl3 687  ARG687      0.1354
     80  NH2       -5.9800  -42.2710    0.0450 N.pl3 687  ARG687      0.1354
     81  N         -7.2990  -41.7250    6.7960 N.am  688  TRP688     -0.1960
     82  CA        -8.3920  -41.2370    7.6300 C.3   688  TRP688      0.1771
     83  C         -9.7450  -41.5760    7.0200 C.2   688  TRP688      0.2620
     84  O         -9.9090  -41.5730    5.8000 O.2   688  TRP688     -0.2715
     85  CB        -8.2850  -39.7240    7.8430 C.3   688  TRP688      0.0590
     86  CG        -8.0450  -38.9470    6.5860 C.ar  688  TRP688      0.0006
     87  CD1       -8.9530  -38.6580    5.6080 C.ar  688  TRP688      0.0946
     88  CD2       -6.8090  -38.3500    6.1750 C.ar  688  TRP688      0.0152
     89  NE1       -8.3580  -37.9210    4.6120 N.ar  688  TRP688     -0.2442
     90  CE2       -7.0420  -37.7180    4.9370 C.ar  688  TRP688      0.0810
     91  CE3       -5.5290  -38.2900    6.7340 C.ar  688  TRP688      0.0012
     92  CZ2       -6.0410  -37.0350    4.2490 C.ar  688  TRP688      0.0191
     93  CZ3       -4.5380  -37.6120    6.0510 C.ar  688  TRP688      0.0001
     94  CH2       -4.7990  -36.9940    4.8210 C.ar  688  TRP688      0.0015
     95  N        -10.7100  -41.8720    7.8850 N.am  689  LYS689     -0.1963
     96  CA       -12.0700  -42.1740    7.4610 C.3   689  LYS689      0.1728
     97  C        -12.8880  -40.8900    7.3330 C.2   689  LYS689      0.2616
     98  O        -14.0260  -40.9120    6.8630 O.2   689  LYS689     -0.2715
     99  CB       -12.7340  -43.1270    8.4570 C.3   689  LYS689      0.0311
    100  CG       -13.7200  -44.1020    7.8350 C.3   689  LYS689      0.0038
    101  CD       -13.0030  -45.2120    7.0790 C.3   689  LYS689      0.0206
    102  CE       -13.9820  -46.2360    6.5260 C.3   689  LYS689      0.1093
    103  NZ       -14.7550  -46.9140    7.6040 N.3   689  LYS689     -0.1314
    104  N        -12.2950  -39.7760    7.7570 N.am  690  ASP690     -0.1971
    105  CA       -12.9580  -38.4770    7.7310 C.3   690  ASP690      0.1709
    106  C        -11.9670  -37.3990    7.3050 C.2   690  ASP690      0.2293
    107  O        -10.9420  -37.1980    7.9540 O.2   690  ASP690     -0.2864
    108  CB       -13.5410  -38.1430    9.1060 C.3   690  ASP690      0.1436
    109  CG       -14.2700  -39.3160    9.7320 C.2   690  ASP690      0.3671
    110  OD1      -13.6020  -40.1680   10.3550 O.co2 690  ASP690     -0.2456
    111  OD2      -15.5100  -39.3880    9.6030 O.co2 690  ASP690     -0.2456
    112  N         -9.9040  -34.3770    7.1290 N.3   692  PRO692     -0.2102
    113  CA        -9.5940  -33.2690    8.0420 C.3   692  PRO692      0.1504
    114  C         -9.8880  -31.8940    7.4490 C.2   692  PRO692      0.2575
    115  O         -9.4370  -31.6010    6.3410 O.2   692  PRO692     -0.2718
    116  CB        -8.0880  -33.4250    8.2880 C.3   692  PRO692      0.0282
    117  CG        -7.7860  -34.8380    7.9780 C.3   692  PRO692      0.0208
    118  CD        -8.7260  -35.2290    6.8880 C.3   692  PRO692      0.0893
    119  N        -10.6330  -31.0670    8.1770 N.am  693  VAL693     -0.1980
    120  CA       -10.8430  -29.6780    7.7770 C.3   693  VAL693      0.1595
    121  C        -10.8220  -28.7430    8.9790 C.2   693  VAL693      0.2287
    122  O        -11.0260  -29.1640   10.1190 O.2   693  VAL693     -0.2864
    123  CB       -12.1810  -29.4820    7.0310 C.3   693  VAL693      0.0276
    124  CG1      -12.1650  -30.2270    5.7090 C.3   693  VAL693      0.0022
    125  CG2      -13.3620  -29.9210    7.8940 C.3   693  VAL693      0.0022
    126  N        -12.1250  -25.8520   11.5230 N.3   695  LEU695     -0.1245
    127  CA       -13.4230  -25.6250   12.1480 C.3   695  LEU695      0.1561
    128  C        -14.1920  -24.5640   11.3750 C.2   695  LEU695      0.2260
    129  O        -13.5890  -23.6850   10.7690 O.2   695  LEU695     -0.2867
    130  CB       -13.2530  -25.1930   13.6030 C.3   695  LEU695      0.0270
    131  CG       -12.2460  -26.0020   14.4180 C.3   695  LEU695      0.0019
    132  CD1      -12.2580  -25.5430   15.8630 C.3   695  LEU695      0.0001
    133  CD2      -12.5270  -27.4960   14.3180 C.3   695  LEU695      0.0001
@<TRIPOS>BOND
     1    80    78    1
     2    78    77    2
     3    78    79    1
     4    77    76    1
     5    76    75    1
     6    51    50    1
     7    49    48    2
     8    48    47    1
     9    75    74    1
    10    50    47    1
    11    50    52    1
    12    55    56    2
    13    55    54    1
    14    92    94   ar
    15    92    90   ar
    16    74    71    1
    17    47    46    1
    18    89    90   ar
    19    89    87   ar
    20    94    93   ar
    21    90    88   ar
    22    53    54    1
    23    46    40   am
    24    54    57    1
    25    87    86   ar
    26    71    70    1
    27    71    72    1
    28   124   123    1
    29    38    39    1
    30    32    33    2
    31    32    31    1
    32    84    83    2
    33    60    58   ar
    34    60    62   ar
    35    40    41    2
    36    40    39    1
    37    57    58    1
    38    93    91   ar
    39    88    86   ar
    40    88    91   ar
    41    70    65   am
    42   115   114    2
    43    58    59   ar
    44    63    64    1
    45   102   101    1
    46   102   103    1
    47    72    81   am
    48    72    73    2
    49    86    85    1
    50    66    65    2
    51    39    42    1
    52    62    61   ar
    53    65    64    1
    54    81    82    1
    55    98    97    2
    56   118   112    1
    57   118   117    1
    58    30    31    1
    59    83    82    1
    60    83    95   am
    61   123   120    1
    62   123   125    1
    63    36    34    1
    64    31    34    1
    65   101   100    1
    66   112   113    1
    67   106   105    1
    68   106   107    2
    69    97    96    1
    70    97   104   am
    71    34    35    1
    72    64    67    1
    73   114   113    1
    74   114   119   am
    75    96    95    1
    76    96    99    1
    77    82    85    1
    78    59    61   ar
    79   105   104    1
    80   105   108    1
    81   120   119    1
    82   120   121    1
    83   100    99    1
    84   117   116    1
    85    42    43    1
    86    42    44    1
    87   113   116    1
    88     1     2    1
    89    43    45    1
    90    67    69    1
    91    67    68    1
    92    35    37    1
    93   121   122    2
    94   108   109    1
    95   111   109   ar
    96   109   110   ar
    97     2     3    1
    98     2     5    1
    99     6     5    1
   100     7     5    1
   101     3     4    2
   102   129   128    2
   103   128   127    1
   104   126   127    1
   105   127   130    1
   106     8     9    1
   107    13    15    1
   108    13    12    1
   109   130   131    1
   110     9    12    1
   111     9    10    1
   112    22    24   ar
   113    22    21   ar
   114    12    14    1
   115   133   131    1
   116   131   132    1
   117    16    10   am
   118    16    17    1
   119    24    25   ar
   120    10    11    2
   121    20    21    1
   122    20    17    1
   123    21    23   ar
   124    18    17    1
   125    18    19    2
   126    25    23   ar
   127    25    27   ar
   128    23    26   ar
   129    27    29   ar
   130    26    28   ar
   131    29    28   ar
