@<TRIPOS>MOLECULE
tmp/4kt5A00.pdb
 180 162 0 0 0
SMALL
GASTEIGER

@<TRIPOS>ATOM
      1  N        -23.0200   36.1790  -22.9650 N.3     9  TYR9       -0.1241
      2  CA       -23.2190   35.1310  -23.9540 C.3     9  TYR9        0.1605
      3  C        -23.2820   33.8250  -23.2260 C.2     9  TYR9        0.2264
      4  O        -22.5760   33.6500  -22.2480 O.2     9  TYR9       -0.2867
      5  CB       -22.0800   35.1030  -24.9940 C.3     9  TYR9        0.0534
      6  CG       -21.9960   36.3370  -25.8550 C.ar    9  TYR9       -0.0201
      7  CD1      -22.3860   36.3060  -27.2020 C.ar    9  TYR9       -0.0009
      8  CD2      -21.5210   37.5270  -25.3400 C.ar    9  TYR9       -0.0009
      9  CE1      -22.3140   37.4430  -28.0000 C.ar    9  TYR9        0.0417
     10  CE2      -21.4610   38.6660  -26.1180 C.ar    9  TYR9        0.0417
     11  CZ       -21.8500   38.6180  -27.4500 C.ar    9  TYR9        0.1957
     12  OH       -21.7690   39.7540  -28.2110 O.3     9  TYR9       -0.2866
     13  N        -22.2720   29.8800  -23.8150 N.3    11  ILE11      -0.1245
     14  CA       -21.4660   29.1650  -24.7730 C.3    11  ILE11       0.1561
     15  C        -21.6030   27.6670  -24.5460 C.2    11  ILE11       0.2260
     16  O        -21.8520   27.1920  -23.4400 O.2    11  ILE11      -0.2867
     17  CB       -19.9640   29.6050  -24.7320 C.3    11  ILE11       0.0252
     18  CG1      -19.3460   29.3260  -23.3650 C.3    11  ILE11       0.0019
     19  CG2      -19.8070   31.0870  -25.0680 C.3    11  ILE11       0.0019
     20  CD1      -17.8970   29.7150  -23.2760 C.3    11  ILE11       0.0001
     21  N        -19.3530   24.2760  -25.9520 N.3    13  PHE13      -0.1241
     22  CA       -18.1550   23.9370  -26.7100 C.3    13  PHE13       0.1605
     23  C        -17.9260   22.4330  -26.7140 C.2    13  PHE13       0.2264
     24  O        -18.3790   21.7250  -25.8200 O.2    13  PHE13      -0.2867
     25  CB       -16.9440   24.6910  -26.1690 C.3    13  PHE13       0.0534
     26  CG       -16.8180   24.6250  -24.6950 C.ar   13  PHE13      -0.0203
     27  CD1      -16.1490   23.5660  -24.0890 C.ar   13  PHE13      -0.0042
     28  CD2      -17.3780   25.6030  -23.8980 C.ar   13  PHE13      -0.0042
     29  CE1      -16.0320   23.4840  -22.7000 C.ar   13  PHE13      -0.0003
     30  CE2      -17.2670   25.5270  -22.5010 C.ar   13  PHE13      -0.0003
     31  CZ       -16.5930   24.4640  -21.9070 C.ar   13  PHE13      -0.0000
     32  N        -20.0600   33.8070  -20.9120 N.3    25  LEU25      -0.1245
     33  CA       -18.9640   34.6500  -21.2860 C.3    25  LEU25       0.1561
     34  C        -19.3820   36.0970  -21.3540 C.2    25  LEU25       0.2260
     35  O        -20.4110   36.4150  -21.9390 O.2    25  LEU25      -0.2867
     36  CB       -18.4270   34.1930  -22.6360 C.3    25  LEU25       0.0270
     37  CG       -17.3250   35.0830  -23.1920 C.3    25  LEU25       0.0019
     38  CD1      -16.1520   34.2400  -23.5340 C.3    25  LEU25       0.0001
     39  CD2      -17.8500   35.8080  -24.4060 C.3    25  LEU25       0.0001
     40  N        -18.4650   40.0630  -22.5080 N.3    27  LYS27      -0.1245
     41  CA       -17.6270   40.9590  -23.2710 C.3    27  LYS27       0.1561
     42  C        -17.9160   42.3680  -22.8330 C.2    27  LYS27       0.2260
     43  O        -19.0610   42.7970  -22.8190 O.2    27  LYS27      -0.2867
     44  CB       -17.8660   40.8090  -24.7760 C.3    27  LYS27       0.0271
     45  CG       -17.1370   41.8610  -25.5990 C.3    27  LYS27       0.0035
     46  CD       -17.2820   41.6390  -27.0860 C.3    27  LYS27       0.0206
     47  CE       -16.3000   42.5090  -27.8700 C.3    27  LYS27       0.1093
     48  NZ       -16.6080   43.9650  -27.8120 N.3    27  LYS27      -0.1314
     49  N        -12.5480   40.0910  -22.1190 N.3    31  ILE31      -0.1245
     50  CA       -13.3670   38.9000  -22.2430 C.3    31  ILE31       0.1561
     51  C        -13.2400   38.1130  -20.9580 C.2    31  ILE31       0.2260
     52  O        -12.1520   37.7480  -20.5490 O.2    31  ILE31      -0.2867
     53  CB       -12.9280   38.0140  -23.4290 C.3    31  ILE31       0.0252
     54  CG1      -13.0700   38.7570  -24.7510 C.3    31  ILE31       0.0019
     55  CG2      -13.7650   36.7770  -23.4810 C.3    31  ILE31       0.0019
     56  CD1      -14.4990   39.0600  -25.0890 C.3    31  ILE31       0.0001
     57  N        -17.0250   28.2490  -16.4320 N.3    35  ASP35      -0.1239
     58  CA       -17.9930   27.1740  -16.3260 C.3    35  ASP35       0.1674
     59  C        -17.8070   26.4710  -14.9890 C.2    35  ASP35       0.2266
     60  O        -17.3670   27.0700  -14.0050 O.2    35  ASP35      -0.2867
     61  CB       -17.9010   26.1640  -17.4960 C.3    35  ASP35       0.1410
     62  CG       -16.6600   25.2710  -17.4690 C.2    35  ASP35       0.3668
     63  OD1      -15.6160   25.6510  -16.9000 O.co2  35  ASP35      -0.2456
     64  OD2      -16.7610   24.1470  -18.0250 O.co2  35  ASP35      -0.2456
     65  N        -13.5850   25.7180  -14.9300 N.3    38  SER38      -0.1217
     66  CA       -12.5210   26.6450  -15.3690 C.3    38  SER38       0.1889
     67  C        -12.9730   28.0770  -15.5710 C.2    38  SER38       0.2288
     68  O        -14.1500   28.3220  -15.7320 O.2    38  SER38      -0.2866
     69  CB       -11.8970   26.1710  -16.6730 C.3    38  SER38       0.2089
     70  OG       -11.6160   24.7900  -16.6510 O.3    38  SER38      -0.2183
     71  N        -11.8120   31.9360  -17.7780 N.3    40  TYR40      -0.1241
     72  CA       -11.0130   32.4210  -18.8960 C.3    40  TYR40       0.1605
     73  C        -11.1020   33.9310  -19.0600 C.2    40  TYR40       0.2264
     74  O        -12.1610   34.5310  -18.8590 O.2    40  TYR40      -0.2867
     75  CB       -11.4160   31.7280  -20.2010 C.3    40  TYR40       0.0534
     76  CG       -12.8120   31.1790  -20.1980 C.ar   40  TYR40      -0.0201
     77  CD1      -13.8790   31.9590  -20.6280 C.ar   40  TYR40      -0.0009
     78  CD2      -13.0740   29.8820  -19.7520 C.ar   40  TYR40      -0.0009
     79  CE1      -15.1780   31.4740  -20.6200 C.ar   40  TYR40       0.0417
     80  CE2      -14.3740   29.3800  -19.7310 C.ar   40  TYR40       0.0417
     81  CZ       -15.4270   30.1840  -20.1730 C.ar   40  TYR40       0.1957
     82  OH       -16.7310   29.7150  -20.1670 O.3    40  TYR40      -0.2866
     83  N         -6.6030   33.9140  -25.2160 N.3    52  LEU52      -0.1245
     84  CA        -7.4730   33.6450  -24.0780 C.3    52  LEU52       0.1561
     85  C         -6.8390   32.6730  -23.0990 C.2    52  LEU52       0.2260
     86  O         -6.5850   31.5060  -23.4250 O.2    52  LEU52      -0.2867
     87  CB        -8.8210   33.0850  -24.5510 C.3    52  LEU52       0.0270
     88  CG        -9.9500   33.0380  -23.5330 C.3    52  LEU52       0.0019
     89  CD1      -10.5640   34.4100  -23.4410 C.3    52  LEU52       0.0001
     90  CD2      -10.9640   32.0130  -23.9520 C.3    52  LEU52       0.0001
     91  N         -6.6930   30.2540  -19.9730 N.3    54  VAL54      -0.1245
     92  CA        -7.6030   29.3220  -19.2830 C.3    54  VAL54       0.1561
     93  C         -7.0360   28.6830  -17.9770 C.2    54  VAL54       0.2260
     94  O         -5.9950   28.0150  -17.9630 O.2    54  VAL54      -0.2867
     95  CB        -8.0480   28.1970  -20.2690 C.3    54  VAL54       0.0252
     96  CG1       -8.9080   27.1730  -19.5830 C.3    54  VAL54       0.0019
     97  CG2       -8.7870   28.8050  -21.4220 C.3    54  VAL54       0.0019
     98  N        -11.5310   20.0880  -20.3640 N.3    64  VAL64      -0.1245
     99  CA       -12.1420   19.5310  -21.5660 C.3    64  VAL64       0.1561
    100  C        -11.0730   19.1050  -22.6300 C.2    64  VAL64       0.2260
    101  O        -11.3200   18.2450  -23.4860 O.2    64  VAL64      -0.2867
    102  CB       -13.1420   20.5320  -22.1590 C.3    64  VAL64       0.0252
    103  CG1      -12.4070   21.6880  -22.8070 C.3    64  VAL64       0.0019
    104  CG2      -14.0420   19.8380  -23.1380 C.3    64  VAL64       0.0019
    105  N         -3.2460   26.8970  -19.8420 N.3    71  TYR71      -0.1241
    106  CA        -2.9420   26.9380  -21.2830 C.3    71  TYR71       0.1605
    107  C         -3.5840   28.1580  -21.8840 C.2    71  TYR71       0.2264
    108  O         -4.2840   28.8920  -21.1900 O.2    71  TYR71      -0.2867
    109  CB        -3.4380   25.6810  -22.0120 C.3    71  TYR71       0.0534
    110  CG        -4.9360   25.3630  -21.8730 C.ar   71  TYR71      -0.0201
    111  CD1       -5.8580   25.6600  -22.8940 C.ar   71  TYR71      -0.0009
    112  CD2       -5.4110   24.7020  -20.7450 C.ar   71  TYR71      -0.0009
    113  CE1       -7.2020   25.3350  -22.7660 C.ar   71  TYR71       0.0417
    114  CE2       -6.7270   24.3750  -20.6130 C.ar   71  TYR71       0.0417
    115  CZ        -7.6350   24.6930  -21.6120 C.ar   71  TYR71       0.1957
    116  OH        -8.9630   24.3420  -21.4150 O.3    71  TYR71      -0.2866
    117  N         -5.8260   29.6740  -25.4380 N.3    73  LEU73      -0.1245
    118  CA        -6.5720   29.3950  -26.6660 C.3    73  LEU73       0.1561
    119  C         -6.3950   30.5660  -27.5840 C.2    73  LEU73       0.2260
    120  O         -6.2890   31.7070  -27.1310 O.2    73  LEU73      -0.2867
    121  CB        -8.0720   29.1770  -26.4170 C.3    73  LEU73       0.0270
    122  CG        -8.5190   27.8790  -25.7550 C.3    73  LEU73       0.0019
    123  CD1      -10.0100   27.9030  -25.4100 C.3    73  LEU73       0.0001
    124  CD2       -8.1820   26.7030  -26.6230 C.3    73  LEU73       0.0001
    125  N         -8.2220   32.7570  -30.4030 N.3    75  ILE75      -0.1245
    126  CA        -9.5220   33.0930  -30.9550 C.3    75  ILE75       0.1561
    127  C         -9.3270   33.9750  -32.1840 C.2    75  ILE75       0.2260
    128  O         -8.7270   35.0540  -32.0900 O.2    75  ILE75      -0.2867
    129  CB       -10.4120   33.8110  -29.9170 C.3    75  ILE75       0.0252
    130  CG1      -10.6200   32.9260  -28.6950 C.3    75  ILE75       0.0019
    131  CG2      -11.7410   34.1980  -30.5260 C.3    75  ILE75       0.0019
    132  CD1      -11.0000   33.7130  -27.5160 C.3    75  ILE75       0.0001
    133  N        -14.3040   35.9540  -36.9440 N.3    79  VAL79      -0.1245
    134  CA       -15.6290   35.5500  -36.4050 C.3    79  VAL79       0.1561
    135  C        -16.8720   35.4770  -37.3550 C.2    79  VAL79       0.2260
    136  O        -17.8550   34.8100  -37.0240 O.2    79  VAL79      -0.2867
    137  CB       -16.0190   36.5170  -35.2210 C.3    79  VAL79       0.0252
    138  CG1      -17.1730   37.4610  -35.5930 C.3    79  VAL79       0.0019
    139  CG2      -16.3620   35.7480  -33.9620 C.3    79  VAL79       0.0019
    140  N        -22.9630   32.5220  -32.9270 N.3    86  LEU86      -0.1245
    141  CA       -21.5750   32.5030  -33.3570 C.3    86  LEU86       0.1561
    142  C        -21.0050   31.1300  -33.2420 C.2    86  LEU86       0.2260
    143  O        -21.1910   30.4570  -32.2270 O.2    86  LEU86      -0.2867
    144  CB       -20.7330   33.4370  -32.5150 C.3    86  LEU86       0.0270
    145  CG       -21.0690   34.9070  -32.6070 C.3    86  LEU86       0.0019
    146  CD1      -20.3310   35.6380  -31.5140 C.3    86  LEU86       0.0001
    147  CD2      -20.6470   35.4060  -33.9860 C.3    86  LEU86       0.0001
    148  N        -17.2500   29.2770  -33.4790 N.3    88  LEU88      -0.1245
    149  CA       -15.8420   29.5910  -33.4730 C.3    88  LEU88       0.1561
    150  C        -14.9900   28.3740  -33.3690 C.2    88  LEU88       0.2260
    151  O        -15.2790   27.4360  -32.6250 O.2    88  LEU88      -0.2867
    152  CB       -15.4830   30.5540  -32.3400 C.3    88  LEU88       0.0270
    153  CG       -16.1630   31.8980  -32.5640 C.3    88  LEU88       0.0019
    154  CD1      -15.7520   32.9310  -31.5280 C.3    88  LEU88       0.0001
    155  CD2      -15.7960   32.3380  -33.9770 C.3    88  LEU88       0.0001
    156  N        -11.4170   27.4440  -32.0500 N.3    90  CYS90      -0.1235
    157  CA       -10.3940   27.9850  -31.1470 C.3    90  CYS90       0.1677
    158  C         -9.3740   26.9350  -30.8320 C.2    90  CYS90       0.2270
    159  O         -9.6850   25.9970  -30.0930 O.2    90  CYS90      -0.2867
    160  CB       -10.9910   28.4800  -29.8220 C.3    90  CYS90       0.0956
    161  SG       -12.3650   29.6110  -29.9720 S.3    90  CYS90      -0.0801
    162  N        -11.2110   23.4600  -29.6480 N.3   100  VAL100     -0.1245
    163  CA       -12.5830   23.4370  -29.2360 C.3   100  VAL100      0.1561
    164  C        -13.4600   24.1560  -30.3080 C.2   100  VAL100      0.2260
    165  O        -13.0290   25.1280  -30.9390 O.2   100  VAL100     -0.2867
    166  CB       -12.6480   24.0870  -27.8520 C.3   100  VAL100      0.0252
    167  CG1      -13.3240   25.4090  -27.9140 C.3   100  VAL100      0.0019
    168  CG2      -13.2650   23.1380  -26.8220 C.3   100  VAL100      0.0019
    169  N        -16.7230   26.4070  -30.4890 N.3   102  VAL102     -0.1245
    170  CA       -17.5460   27.1590  -29.5530 C.3   102  VAL102      0.1561
    171  C        -18.8040   27.6830  -30.2080 C.2   102  VAL102      0.2260
    172  O        -18.7220   28.4590  -31.1550 O.2   102  VAL102     -0.2867
    173  CB       -16.7410   28.3570  -28.9780 C.3   102  VAL102      0.0252
    174  CG1      -17.5450   29.1350  -27.9290 C.3   102  VAL102      0.0019
    175  CG2      -15.4320   27.8900  -28.4280 C.3   102  VAL102      0.0019
    176  N        -21.7800   30.0940  -29.4600 N.3   104  ALA104     -0.1245
    177  CA       -22.1100   31.1800  -28.5430 C.3   104  ALA104      0.1562
    178  C        -23.4170   31.8810  -28.8730 C.2   104  ALA104      0.2260
    179  O        -23.6630   32.2130  -30.0210 O.2   104  ALA104     -0.2867
    180  CB       -20.9860   32.1780  -28.5210 C.3   104  ALA104      0.0290
@<TRIPOS>BOND
     1   135   136    2
     2   135   134    1
     3   133   134    1
     4   134   137    1
     5   138   137    1
     6   137   139    1
     7   147   145    1
     8   155   153    1
     9   148   149    1
    10   149   150    1
    11   149   152    1
    12   150   151    2
    13   141   142    1
    14   141   140    1
    15   141   144    1
    16   142   143    2
    17   145   144    1
    18   145   146    1
    19   153   152    1
    20   153   154    1
    21   127   128    2
    22   127   126    1
    23   156   157    1
    24   172   171    2
    25   157   158    1
    26   157   160    1
    27   126   125    1
    28   126   129    1
    29   165   164    2
    30   158   159    2
    31   131   129    1
    32   169   170    1
    33   164   163    1
    34   171   170    1
    35   179   178    2
    36   161   160    1
    37   129   130    1
    38   162   163    1
    39   170   173    1
    40   176   177    1
    41   163   166    1
    42   173   175    1
    43   173   174    1
    44   178   177    1
    45   130   132    1
    46   177   180    1
    47    12    11    1
    48     9    11   ar
    49     9     7   ar
    50   167   166    1
    51    47    48    1
    52    47    46    1
    53   166   168    1
    54   119   120    2
    55   119   118    1
    56    11    10   ar
    57     7     6   ar
    58    46    45    1
    59    23    22    1
    60    23    24    2
    61    22    25    1
    62    22    21    1
    63   118   121    1
    64   118   117    1
    65   124   122    1
    66   121   122    1
    67    25    26    1
    68    10     8   ar
    69     6     8   ar
    70     6     5    1
    71   122   123    1
    72    45    44    1
    73    83    84    1
    74    56    54    1
    75    19    17    1
    76     5     2    1
    77    44    41    1
    78    14    17    1
    79    14    15    1
    80    14    13    1
    81    54    53    1
    82    17    18    1
    83    26    27   ar
    84    26    28   ar
    85    87    84    1
    86    87    88    1
    87    15    16    2
    88    39    37    1
    89    27    29   ar
    90    84    85    1
    91     2     3    1
    92     2     1    1
    93    90    88    1
    94    28    30   ar
    95    38    37    1
    96    88    89    1
    97   101   100    2
    98    55    53    1
    99    53    50    1
   100    86    85    2
   101    18    20    1
   102    41    42    1
   103    41    40    1
   104     3     4    2
   105    37    36    1
   106   104   102    1
   107   111   113   ar
   108   111   110   ar
   109    42    43    2
   110   103   102    1
   111   113   115   ar
   112    29    31   ar
   113    36    33    1
   114   100    99    1
   115    30    31   ar
   116    50    49    1
   117    50    51    1
   118   102    99    1
   119   109   110    1
   120   109   106    1
   121    35    34    2
   122   107   106    1
   123   107   108    2
   124   110   112   ar
   125   115   116    1
   126   115   114   ar
   127    99    98    1
   128    97    95    1
   129    34    33    1
   130    33    32    1
   131   106   105    1
   132    51    52    2
   133   112   114   ar
   134    77    79   ar
   135    77    76   ar
   136    79    81   ar
   137    95    96    1
   138    95    92    1
   139    75    76    1
   140    75    72    1
   141    76    78   ar
   142    81    82    1
   143    81    80   ar
   144    91    92    1
   145    78    80   ar
   146    92    93    1
   147    73    72    1
   148    73    74    2
   149    72    71    1
   150    64    62   ar
   151    93    94    2
   152    61    62    1
   153    61    58    1
   154    62    63   ar
   155    69    70    1
   156    69    66    1
   157    57    58    1
   158    58    59    1
   159    68    67    2
   160    67    66    1
   161    66    65    1
   162    59    60    2
