@<TRIPOS>MOLECULE
tmp/4kt8A00.pdb
 203 196 0 0 0
SMALL
GASTEIGER

@<TRIPOS>ATOM
      1  N         14.6320  -19.3640   -1.8910 N.3    33  PHE33      -0.1227
      2  CA        14.0720  -18.5580   -0.8150 C.3    33  PHE33       0.1736
      3  C         14.8860  -17.2830   -0.6360 C.2    33  PHE33       0.2595
      4  O         15.8200  -17.2340    0.1650 O.2    33  PHE33      -0.2718
      5  CB        14.0460  -19.3630    0.4850 C.3    33  PHE33       0.0547
      6  CG        13.0720  -20.5060    0.4640 C.ar   33  PHE33      -0.0202
      7  CD1       11.7070  -20.2690    0.3400 C.ar   33  PHE33      -0.0042
      8  CD2       13.5170  -21.8210    0.5570 C.ar   33  PHE33      -0.0042
      9  CE1       10.7980  -21.3220    0.3090 C.ar   33  PHE33      -0.0003
     10  CE2       12.6170  -22.8820    0.5270 C.ar   33  PHE33      -0.0003
     11  CZ        11.2540  -22.6310    0.4010 C.ar   33  PHE33      -0.0000
     12  N         14.5200  -16.2550   -1.3980 N.am   34  ASP34      -0.1960
     13  CA        15.1980  -14.9630   -1.3550 C.3    34  ASP34       0.1840
     14  C         14.4160  -13.9160   -0.5680 C.2    34  ASP34       0.2623
     15  O         13.2630  -14.1340   -0.1920 O.2    34  ASP34      -0.2715
     16  CB        15.4380  -14.4510   -2.7780 C.3    34  ASP34       0.1450
     17  CG        16.7360  -14.9580   -3.3690 C.2    34  ASP34       0.3671
     18  OD1       17.0380  -16.1590   -3.2060 O.co2  34  ASP34      -0.2456
     19  OD2       17.4530  -14.1540   -4.0050 O.co2  34  ASP34      -0.2456
     20  N         15.0590  -12.7770   -0.3280 N.am   35  GLY35      -0.1940
     21  CA        14.4260  -11.6970    0.4060 C.3    35  GLY35       0.2014
     22  C         13.8600  -12.1260    1.7450 C.2    35  GLY35       0.2640
     23  O         12.7480  -11.7400    2.1060 O.2    35  GLY35      -0.2714
     24  N         14.6230  -12.9240    2.4850 N.am   36  THR36      -0.1936
     25  CA        14.1800  -13.4020    3.7890 C.3    36  THR36       0.2028
     26  C         14.3280  -12.3310    4.8680 C.2    36  THR36       0.2642
     27  O         13.3850  -12.0590    5.6100 O.2    36  THR36      -0.2714
     28  CB        14.9610  -14.6620    4.2170 C.3    36  THR36       0.1808
     29  OG1       16.3660  -14.3750    4.2340 O.3    36  THR36      -0.2208
     30  CG2       14.6920  -15.8020    3.2490 C.3    36  THR36       0.0379
     31  N         15.5100  -11.7260    4.9530 N.am   37  ARG37      -0.1963
     32  CA        15.7570  -10.6800    5.9420 C.3    37  ARG37       0.1729
     33  C         14.7630   -9.5420    5.7430 C.2    37  ARG37       0.2616
     34  O         14.2410   -8.9810    6.7070 O.2    37  ARG37      -0.2715
     35  CB        17.1850  -10.1410    5.8090 C.3    37  ARG37       0.0348
     36  CG        18.2730  -11.0910    6.2950 C.3    37  ARG37       0.0492
     37  CD        18.2550  -11.2350    7.8130 C.3    37  ARG37       0.2205
     38  NE        18.5450   -9.9740    8.4930 N.pl3  37  ARG37      -0.0865
     39  CZ        18.5880   -9.8270    9.8140 C.cat  37  ARG37       0.5346
     40  NH1       18.3610  -10.8640   10.6090 N.pl3  37  ARG37       0.1354
     41  NH2       18.8600   -8.6400   10.3440 N.pl3  37  ARG37       0.1354
     42  N         14.5060   -9.2150    4.4810 N.am   38  ARG38      -0.1977
     43  CA        13.5780   -8.1480    4.1250 C.3    38  ARG38       0.1597
     44  C         12.1810   -8.4870    4.6320 C.2    38  ARG38       0.2287
     45  O         11.5210   -7.6630    5.2670 O.2    38  ARG38      -0.2864
     46  CB        13.5530   -7.9790    2.6060 C.3    38  ARG38       0.0334
     47  CG        12.8780   -6.7140    2.1120 C.3    38  ARG38       0.0492
     48  CD        12.9780   -6.6260    0.5970 C.3    38  ARG38       0.2205
     49  NE        14.3400   -6.8860    0.1390 N.pl3  38  ARG38      -0.0865
     50  CZ        14.7240   -6.8600   -1.1330 C.cat  38  ARG38       0.5346
     51  NH1       13.8470   -6.5820   -2.0880 N.pl3  38  ARG38       0.1354
     52  NH2       15.9850   -7.1160   -1.4500 N.pl3  38  ARG38       0.1354
     53  N         13.9080  -15.3890   13.9210 N.3    44  PHE44      -0.1227
     54  CA        14.2770  -15.3410   12.5110 C.3    44  PHE44       0.1736
     55  C         14.3800  -16.7440   11.9230 C.2    44  PHE44       0.2595
     56  O         13.7140  -17.0660   10.9380 O.2    44  PHE44      -0.2718
     57  CB        15.6110  -14.6080   12.3420 C.3    44  PHE44       0.0547
     58  CG        16.0790  -14.5150   10.9160 C.ar   44  PHE44      -0.0202
     59  CD1       15.2830  -13.9110    9.9470 C.ar   44  PHE44      -0.0042
     60  CD2       17.3170  -15.0260   10.5410 C.ar   44  PHE44      -0.0042
     61  CE1       15.7150  -13.8160    8.6250 C.ar   44  PHE44      -0.0003
     62  CE2       17.7580  -14.9360    9.2210 C.ar   44  PHE44      -0.0003
     63  CZ        16.9550  -14.3300    8.2630 C.ar   44  PHE44      -0.0000
     64  N         15.2180  -17.5770   12.5340 N.am   45  GLN45      -0.1979
     65  CA        15.4110  -18.9460   12.0760 C.3    45  GLN45       0.1601
     66  C         14.1240  -19.7600   12.1330 C.2    45  GLN45       0.2287
     67  O         13.8340  -20.5400   11.2270 O.2    45  GLN45      -0.2864
     68  CB        16.4800  -19.6430   12.9230 C.3    45  GLN45       0.0394
     69  CG        17.8900  -19.1150   12.7220 C.3    45  GLN45       0.0908
     70  CD        18.9040  -19.8310   13.5950 C.2    45  GLN45       0.2608
     71  OE1       19.0030  -21.0580   13.5730 O.2    45  GLN45      -0.2717
     72  NE2       19.6660  -19.0640   14.3670 N.am   45  GLN45      -0.0878
     73  N         11.4750  -18.1250    9.3620 N.3    48  ALA48      -0.1231
     74  CA        11.7530  -18.4620    7.9720 C.3    48  ALA48       0.1694
     75  C         11.4490  -19.9360    7.7400 C.2    48  ALA48       0.2591
     76  O         10.9050  -20.3140    6.7020 O.2    48  ALA48      -0.2718
     77  CB        13.2120  -18.1700    7.6460 C.3    48  ALA48       0.0304
     78  N         11.8030  -20.7630    8.7190 N.am   49  LEU49      -0.1980
     79  CA        11.5740  -22.1980    8.6360 C.3    49  LEU49       0.1596
     80  C         10.0910  -22.4930    8.4260 C.2    49  LEU49       0.2287
     81  O          9.7330  -23.3580    7.6280 O.2    49  LEU49      -0.2864
     82  CB        12.0850  -22.8810    9.9090 C.3    49  LEU49       0.0297
     83  CG        11.9580  -24.4020   10.0310 C.3    49  LEU49       0.0022
     84  CD1       12.9330  -24.9150   11.0780 C.3    49  LEU49       0.0001
     85  CD2       10.5330  -24.7720   10.3950 C.3    49  LEU49       0.0001
     86  N          9.1550  -21.3700    4.8400 N.3    52  SER52      -0.1217
     87  CA         9.7430  -22.2870    3.8750 C.3    52  SER52       0.1889
     88  C          8.8640  -23.5250    3.7840 C.2    52  SER52       0.2288
     89  O          8.5590  -24.0040    2.6930 O.2    52  SER52      -0.2866
     90  CB        11.1530  -22.6870    4.3100 C.3    52  SER52       0.2089
     91  OG        12.0130  -21.5630    4.3330 O.3    52  SER52      -0.2183
     92  N         19.3470  -22.3900   -1.3020 N.3    71  ILE71      -0.1231
     93  CA        19.2420  -21.7240   -0.0090 C.3    71  ILE71       0.1692
     94  C         20.5090  -20.9850    0.4100 C.2    71  ILE71       0.2592
     95  O         20.4410  -19.9700    1.1000 O.2    71  ILE71      -0.2718
     96  CB        18.8710  -22.7290    1.1000 C.3    71  ILE71       0.0266
     97  CG1       19.9160  -23.8430    1.1650 C.3    71  ILE71       0.0019
     98  CG2       17.4900  -23.3120    0.8320 C.3    71  ILE71       0.0020
     99  CD1       19.6910  -24.8300    2.2910 C.3    71  ILE71       0.0001
    100  N         21.6630  -21.4940   -0.0080 N.am   72  PHE72      -0.1962
    101  CA        22.9360  -20.8760    0.3400 C.3    72  PHE72       0.1771
    102  C         23.8920  -20.8650   -0.8450 C.2    72  PHE72       0.2620
    103  O         24.1250  -21.8940   -1.4730 O.2    72  PHE72      -0.2715
    104  CB        23.5820  -21.6290    1.5070 C.3    72  PHE72       0.0574
    105  CG        22.8330  -21.5010    2.8020 C.ar   72  PHE72      -0.0200
    106  CD1       22.8440  -20.3050    3.5110 C.ar   72  PHE72      -0.0042
    107  CD2       22.1110  -22.5760    3.3130 C.ar   72  PHE72      -0.0042
    108  CE1       22.1480  -20.1800    4.7120 C.ar   72  PHE72      -0.0003
    109  CE2       21.4100  -22.4610    4.5130 C.ar   72  PHE72      -0.0003
    110  CZ        21.4300  -21.2610    5.2130 C.ar   72  PHE72      -0.0000
    111  N         24.4430  -19.6940   -1.1430 N.am   73  SER73      -0.1950
    112  CA        25.3780  -19.5500   -2.2500 C.3    73  SER73       0.1924
    113  C         26.7110  -19.0270   -1.7190 C.2    73  SER73       0.2314
    114  O         26.7970  -18.5800   -0.5750 O.2    73  SER73      -0.2863
    115  CB        24.8100  -18.5870   -3.2930 C.3    73  SER73       0.2116
    116  OG        25.5630  -18.6310   -4.4930 O.3    73  SER73      -0.2180
    117  N         28.0820  -16.1770    0.8020 N.3    76  LEU76      -0.1245
    118  CA        27.8430  -16.3600    2.2250 C.3    76  LEU76       0.1561
    119  C         29.0530  -15.9070    3.0340 C.2    76  LEU76       0.2260
    120  O         28.9620  -15.7020    4.2450 O.2    76  LEU76      -0.2867
    121  CB        27.5220  -17.8310    2.5090 C.3    76  LEU76       0.0270
    122  CG        27.1380  -18.2290    3.9360 C.3    76  LEU76       0.0019
    123  CD1       26.0770  -19.3120    3.8880 C.3    76  LEU76       0.0001
    124  CD2       28.3660  -18.7020    4.6980 C.3    76  LEU76       0.0001
    125  N         29.7240  -11.9210    4.5850 N.3    79  ARG79      -0.1245
    126  CA        29.2400  -11.4460    5.8740 C.3    79  ARG79       0.1563
    127  C         30.0840  -11.9770    7.0340 C.2    79  ARG79       0.2260
    128  O         30.8890  -12.8950    6.8630 O.2    79  ARG79      -0.2867
    129  CB        27.7700  -11.8460    6.0420 C.3    79  ARG79       0.0307
    130  CG        26.9350  -11.5250    4.8070 C.3    79  ARG79       0.0489
    131  CD        25.4490  -11.7390    5.0210 C.3    79  ARG79       0.2205
    132  NE        24.7190  -11.6430    3.7590 N.pl3  79  ARG79      -0.0865
    133  CZ        23.3940  -11.6560    3.6510 C.cat  79  ARG79       0.5346
    134  NH1       22.6380  -11.7560    4.7360 N.pl3  79  ARG79       0.1354
    135  NH2       22.8250  -11.5730    2.4570 N.pl3  79  ARG79       0.1354
    136  N         27.2960  -14.7980   11.0420 N.3    83  PHE83      -0.1241
    137  CA        26.4950  -15.2680    9.9210 C.3    83  PHE83       0.1605
    138  C         26.7620  -16.7470    9.6700 C.2    83  PHE83       0.2264
    139  O         25.8300  -17.5360    9.5310 O.2    83  PHE83      -0.2867
    140  CB        26.8210  -14.4610    8.6630 C.3    83  PHE83       0.0534
    141  CG        25.7330  -14.4890    7.6290 C.ar   83  PHE83      -0.0203
    142  CD1       24.4810  -13.9460    7.9090 C.ar   83  PHE83      -0.0042
    143  CD2       25.9520  -15.0560    6.3780 C.ar   83  PHE83      -0.0042
    144  CE1       23.4630  -13.9670    6.9580 C.ar   83  PHE83      -0.0003
    145  CE2       24.9410  -15.0830    5.4190 C.ar   83  PHE83      -0.0003
    146  CZ        23.6930  -14.5370    5.7110 C.ar   83  PHE83      -0.0000
    147  N         25.0590  -18.7610   12.4270 N.3    86  GLN86      -0.1231
    148  CA        23.6200  -18.6680   12.1980 C.3    86  GLN86       0.1698
    149  C         23.2000  -19.4660   10.9690 C.2    86  GLN86       0.2592
    150  O         22.1470  -20.1060   10.9600 O.2    86  GLN86      -0.2718
    151  CB        23.2080  -17.2060   12.0160 C.3    86  GLN86       0.0381
    152  CG        22.4210  -16.6270   13.1780 C.3    86  GLN86       0.0905
    153  CD        22.0660  -15.1660   12.9650 C.2    86  GLN86       0.2608
    154  OE1       22.9440  -14.3040   12.9160 O.2    86  GLN86      -0.2717
    155  NE2       20.7740  -14.8840   12.8350 N.am   86  GLN86      -0.0878
    156  N         24.0300  -19.4210    9.9310 N.am   87  ALA87      -0.1980
    157  CA        23.7510  -20.1310    8.6900 C.3    87  ALA87       0.1597
    158  C         23.7580  -21.6400    8.8990 C.2    87  ALA87       0.2287
    159  O         22.8040  -22.3280    8.5300 O.2    87  ALA87      -0.2864
    160  CB        24.7760  -19.7470    7.6320 C.3    87  ALA87       0.0319
    161  N         20.7930  -22.8730   10.5340 N.3    90  GLY90      -0.1225
    162  CA        19.6250  -22.9720    9.6820 C.3    90  GLY90       0.1811
    163  C         19.7080  -24.2510    8.8750 C.2    90  GLY90       0.2280
    164  O         18.7060  -24.9360    8.6730 O.2    90  GLY90      -0.2866
    165  N         18.7170  -27.1810   10.8780 N.3    93  LEU93      -0.1231
    166  CA        17.2700  -27.2670   11.0620 C.3    93  LEU93       0.1693
    167  C         16.6170  -28.1080    9.9740 C.2    93  LEU93       0.2591
    168  O         15.7100  -28.8950   10.2430 O.2    93  LEU93      -0.2718
    169  CB        16.6470  -25.8670   11.0540 C.3    93  LEU93       0.0284
    170  CG        16.9540  -24.9370   12.2300 C.3    93  LEU93       0.0019
    171  CD1       16.3410  -23.5680   11.9740 C.3    93  LEU93       0.0001
    172  CD2       16.4000  -25.5360   13.5110 C.3    93  LEU93       0.0001
    173  N         17.0840  -27.9330    8.7430 N.am   94  LEU94      -0.1980
    174  CA        16.5410  -28.6600    7.6050 C.3    94  LEU94       0.1596
    175  C         16.6380  -30.1690    7.7700 C.2    94  LEU94       0.2287
    176  O         15.8790  -30.9150    7.1530 O.2    94  LEU94      -0.2864
    177  CB        17.2720  -28.2450    6.3240 C.3    94  LEU94       0.0297
    178  CG        17.1870  -26.7690    5.9300 C.3    94  LEU94       0.0022
    179  CD1       18.0670  -26.5170    4.7230 C.3    94  LEU94       0.0001
    180  CD2       15.7460  -26.3940    5.6320 C.3    94  LEU94       0.0001
    181  N         17.9470  -29.2710   -1.9290 N.3   151  PHE151     -0.1241
    182  CA        18.4230  -28.0310   -1.3280 C.3   151  PHE151      0.1605
    183  C         19.7820  -27.6450   -1.8950 C.2   151  PHE151      0.2264
    184  O         20.7150  -28.4460   -1.8940 O.2   151  PHE151     -0.2867
    185  CB        18.5310  -28.1760    0.1910 C.3   151  PHE151      0.0534
    186  CG        17.2070  -28.1430    0.8960 C.ar  151  PHE151     -0.0203
    187  CD1       16.3640  -27.0430    0.7670 C.ar  151  PHE151     -0.0042
    188  CD2       16.8070  -29.2020    1.7050 C.ar  151  PHE151     -0.0042
    189  CE1       15.1430  -26.9970    1.4330 C.ar  151  PHE151     -0.0003
    190  CE2       15.5870  -29.1660    2.3750 C.ar  151  PHE151     -0.0003
    191  CZ        14.7540  -28.0610    2.2390 C.ar  151  PHE151     -0.0000
    192  N          8.5670  -15.4810    0.4570 N.3   226  TYR226     -0.1241
    193  CA         7.6070  -15.8530    1.4930 C.3   226  TYR226      0.1605
    194  C          6.2260  -15.2190    1.3480 C.2   226  TYR226      0.2264
    195  O          5.2700  -15.6580    1.9860 O.2   226  TYR226     -0.2867
    196  CB         8.1720  -15.5350    2.8810 C.3   226  TYR226      0.0534
    197  CG         9.4260  -16.3100    3.2240 C.ar  226  TYR226     -0.0201
    198  CD1        9.5940  -17.6280    2.7980 C.ar  226  TYR226     -0.0009
    199  CD2       10.4310  -15.7380    4.0030 C.ar  226  TYR226     -0.0009
    200  CE1       10.7310  -18.3580    3.1380 C.ar  226  TYR226      0.0417
    201  CE2       11.5730  -16.4600    4.3520 C.ar  226  TYR226      0.0417
    202  CZ        11.7160  -17.7690    3.9150 C.ar  226  TYR226      0.1957
    203  OH        12.8390  -18.4870    4.2570 O.3   226  TYR226     -0.2866
@<TRIPOS>BOND
     1   116   115    1
     2    19    17   ar
     3    17    18   ar
     4    17    16    1
     5   115   112    1
     6    16    13    1
     7   112   113    1
     8   112   111    1
     9    51    50    1
    10   181   182    1
    11   183   184    2
    12   183   182    1
    13     1     2    1
    14   113   114    2
    15   103   102    2
    16    52    50    1
    17    12    13    1
    18    12     3   am
    19    13    14    1
    20   182   185    1
    21    92    93    1
    22   111   102   am
    23    50    49    2
    24   102   101    1
    25     2     3    1
    26     2     5    1
    27     3     4    2
    28    14    20   am
    29    14    15    2
    30    20    21    1
    31    93    94    1
    32    93    96    1
    33   100   101    1
    34   100    94   am
    35    49    48    1
    36   185   186    1
    37     9     7   ar
    38     9    11   ar
    39     7     6   ar
    40   101   104    1
    41    11    10   ar
    42    21    22    1
    43    94    95    2
    44   192   193    1
    45     6     5    1
    46     6     8   ar
    47    10     8   ar
    48    48    47    1
    49   187   186   ar
    50   187   189   ar
    51   117   118    1
    52    98    96    1
    53   186   188   ar
    54    96    97    1
    55    97    99    1
    56   194   193    1
    57   194   195    2
    58   189   191   ar
    59   193   196    1
    60   104   105    1
    61   188   190   ar
    62    22    23    2
    63    22    24   am
    64    47    46    1
    65   118   121    1
    66   118   119    1
    67   191   190   ar
    68   135   133    1
    69    24    25    1
    70   121   122    1
    71    46    43    1
    72    89    88    2
    73   198   200   ar
    74   198   197   ar
    75   105   107   ar
    76   105   106   ar
    77   196   197    1
    78   119   120    2
    79   200   202   ar
    80   197   199   ar
    81    30    28    1
    82   107   109   ar
    83   106   108   ar
    84   133   132    2
    85   133   134    1
    86   132   131    1
    87    88    87    1
    88    25    28    1
    89    25    26    1
    90    87    90    1
    91    87    86    1
    92   123   122    1
    93   202   203    1
    94   202   201   ar
    95   122   124    1
    96   199   201   ar
    97    43    42    1
    98    43    44    1
    99    28    29    1
   100    90    91    1
   101    42    33   am
   102   109   110   ar
   103   125   126    1
   104    44    45    2
   105   108   110   ar
   106   179   178    1
   107   130   131    1
   108   130   129    1
   109    26    31   am
   110    26    27    2
   111    31    32    1
   112   145   146   ar
   113   145   143   ar
   114   180   178    1
   115   146   144   ar
   116    33    32    1
   117    33    34    2
   118    35    32    1
   119    35    36    1
   120   126   129    1
   121   126   127    1
   122   178   177    1
   123    36    37    1
   124   177   174    1
   125   143   141   ar
   126    76    75    2
   127   128   127    2
   128   144   142   ar
   129   176   175    2
   130   174   175    1
   131   174   173    1
   132    81    80    2
   133   141   142   ar
   134   141   140    1
   135   160   157    1
   136    77    74    1
   137    75    74    1
   138    75    78   am
   139    37    38    1
   140    74    73    1
   141    63    61   ar
   142    63    62   ar
   143    80    79    1
   144    38    39    2
   145   159   158    2
   146    61    59   ar
   147    79    78    1
   148    79    82    1
   149   140   137    1
   150   164   163    2
   151   157   158    1
   152   157   156    1
   153   173   167   am
   154   163   162    1
   155    62    60   ar
   156   139   138    2
   157   138   137    1
   158   162   161    1
   159    39    41    1
   160    39    40    1
   161    82    83    1
   162   137   136    1
   163   156   149   am
   164    59    58   ar
   165   167   168    2
   166   167   166    1
   167    83    85    1
   168    83    84    1
   169    60    58   ar
   170   165   166    1
   171    58    57    1
   172    56    55    2
   173   150   149    2
   174   149   148    1
   175   169   166    1
   176   169   170    1
   177    67    66    2
   178    55    54    1
   179    55    64   am
   180   171   170    1
   181   151   148    1
   182   151   152    1
   183    65    66    1
   184    65    64    1
   185    65    68    1
   186   148   147    1
   187   170   172    1
   188    57    54    1
   189    54    53    1
   190    69    68    1
   191    69    70    1
   192   155   153   am
   193   154   153    2
   194   153   152    1
   195    71    70    2
   196    70    72   am
