@<TRIPOS>MOLECULE
tmp/4ktcC02.pdb
 167 161 0 0 0
SMALL
GASTEIGER

@<TRIPOS>ATOM
      1  N         47.3470   32.5590  136.9330 N.3    41  GLN41      -0.1231
      2  CA        48.0580   33.7930  136.6780 C.3    41  GLN41       0.1698
      3  C         47.3730   34.6680  135.6550 C.2    41  GLN41       0.2593
      4  O         46.6190   34.1890  134.8100 O.2    41  GLN41      -0.2718
      5  CB        49.5280   33.5360  136.3040 C.3    41  GLN41       0.0381
      6  CG        49.7790   32.6040  135.1270 C.3    41  GLN41       0.0905
      7  CD        51.2660   32.2800  134.9600 C.2    41  GLN41       0.2608
      8  OE1       52.0340   32.3170  135.9290 O.2    41  GLN41      -0.2717
      9  NE2       51.6770   31.9590  133.7260 N.am   41  GLN41      -0.0878
     10  N         47.6610   35.9590  135.7530 N.am   42  SER42      -0.1938
     11  CA        47.0780   36.9680  134.9040 C.3    42  SER42       0.2055
     12  C         48.1750   37.9070  134.4210 C.2    42  SER42       0.2643
     13  O         49.1820   38.1060  135.1130 O.2    42  SER42      -0.2714
     14  CB        45.9990   37.7430  135.6630 C.3    42  SER42       0.2130
     15  OG        45.3790   38.6750  134.7960 O.3    42  SER42      -0.2179
     16  N         47.9640   38.4770  133.2350 N.am   43  PHE43      -0.1973
     17  CA        48.9460   39.3050  132.5230 C.3    43  PHE43       0.1639
     18  C         48.2190   39.9650  131.3650 C.2    43  PHE43       0.2290
     19  O         46.9820   39.9290  131.3070 O.2    43  PHE43      -0.2864
     20  CB        50.1550   38.4740  132.0250 C.3    43  PHE43       0.0560
     21  CG        49.7800   37.1730  131.3960 C.ar   43  PHE43      -0.0200
     22  CD1       49.5240   36.0460  132.1840 C.ar   43  PHE43      -0.0042
     23  CD2       49.6600   37.0670  130.0090 C.ar   43  PHE43      -0.0042
     24  CE1       49.1550   34.8340  131.5960 C.ar   43  PHE43      -0.0003
     25  CE2       49.2870   35.8590  129.4140 C.ar   43  PHE43      -0.0003
     26  CZ        49.0330   34.7460  130.2020 C.ar   43  PHE43      -0.0000
     27  N         56.1820   33.2810  128.9650 N.3    57  HIS57      -0.1226
     28  CA        56.2110   32.9580  130.3890 C.3    57  HIS57       0.1752
     29  C         54.8320   33.1410  131.0530 C.2    57  HIS57       0.2596
     30  O         54.5890   32.6560  132.1600 O.2    57  HIS57      -0.2718
     31  CB        57.3470   33.6860  131.1210 C.3    57  HIS57       0.0759
     32  CG        57.0440   35.1050  131.5130 C.ar   57  HIS57       0.0818
     33  ND1       57.4370   36.1870  130.7520 N.ar   57  HIS57      -0.2268
     34  CD2       56.4600   35.6220  132.6220 C.ar   57  HIS57       0.1154
     35  CE1       57.0730   37.3060  131.3560 C.ar   57  HIS57       0.1986
     36  NE2       56.4790   36.9920  132.4920 N.ar   57  HIS57      -0.2212
     37  N         53.9290   33.8260  130.3630 N.am   58  GLY58      -0.1957
     38  CA        52.5520   33.9150  130.8200 C.3    58  GLY58       0.1869
     39  C         51.7090   32.8100  130.2020 C.2    58  GLY58       0.2309
     40  O         51.0560   32.0450  130.9080 O.2    58  GLY58      -0.2863
     41  N         59.7440   31.2190  121.6000 N.3    78  VAL78      -0.1231
     42  CA        60.1130   30.9480  122.9880 C.3    78  VAL78       0.1692
     43  C         61.4350   31.6040  123.4120 C.2    78  VAL78       0.2592
     44  O         61.5360   32.1120  124.5280 O.2    78  VAL78      -0.2718
     45  CB        60.0510   29.4220  123.3050 C.3    78  VAL78       0.0266
     46  CG1       60.7500   28.6020  122.2290 C.3    78  VAL78       0.0020
     47  CG2       60.5870   29.0940  124.7010 C.3    78  VAL78       0.0020
     48  N         62.4200   31.6570  122.5170 N.am   79  ASP79      -0.1974
     49  CA        63.7090   32.2700  122.8670 C.3    79  ASP79       0.1709
     50  C         63.6380   33.7830  123.0650 C.2    79  ASP79       0.2293
     51  O         64.5670   34.3840  123.5950 O.2    79  ASP79      -0.2864
     52  CB        64.8220   31.8850  121.8780 C.3    79  ASP79       0.1436
     53  CG        64.5630   32.3810  120.4630 C.2    79  ASP79       0.3671
     54  OD1       64.5310   33.6110  120.2490 O.co2  79  ASP79      -0.2456
     55  OD2       64.4220   31.5380  119.5540 O.co2  79  ASP79      -0.2456
     56  N         60.5370   35.0580  124.3830 N.3    81  ASP81      -0.1239
     57  CA        59.4150   35.1540  125.3190 C.3    81  ASP81       0.1674
     58  C         58.1740   35.8240  124.6800 C.2    81  ASP81       0.2266
     59  O         57.4050   36.5350  125.3460 O.2    81  ASP81      -0.2867
     60  CB        59.8820   35.8770  126.5910 C.3    81  ASP81       0.1410
     61  CG        58.9590   35.6700  127.7780 C.2    81  ASP81       0.3668
     62  OD1       58.3330   34.5950  127.8820 O.co2  81  ASP81      -0.2456
     63  OD2       58.8790   36.5890  128.6300 O.co2  81  ASP81      -0.2456
     64  N         65.4020   47.8170  126.3500 N.3   123  ARG123     -0.1245
     65  CA        65.5610   48.2250  127.7320 C.3   123  ARG123      0.1563
     66  C         65.0670   49.6520  127.8880 C.2   123  ARG123      0.2260
     67  O         65.0540   50.4260  126.9240 O.2   123  ARG123     -0.2867
     68  CB        67.0310   48.0580  128.1660 C.3   123  ARG123      0.0307
     69  CG        67.2940   47.9810  129.6660 C.3   123  ARG123      0.0489
     70  CD        66.6820   46.7540  130.3400 C.3   123  ARG123      0.2205
     71  NE        67.3080   45.4730  129.9860 N.pl3 123  ARG123     -0.0865
     72  CZ        68.3310   44.9230  130.6430 C.cat 123  ARG123      0.5346
     73  NH1       68.8780   45.5430  131.6860 N.pl3 123  ARG123      0.1354
     74  NH2       68.8120   43.7480  130.2580 N.pl3 123  ARG123      0.1354
     75  N         57.8530   46.0690  143.1230 N.3   132  VAL132     -0.1245
     76  CA        57.7360   45.0150  142.1310 C.3   132  VAL132      0.1561
     77  C         56.2810   44.5870  141.9370 C.2   132  VAL132      0.2260
     78  O         55.8800   44.2010  140.8370 O.2   132  VAL132     -0.2867
     79  CB        58.7060   43.8550  142.4370 C.3   132  VAL132      0.0252
     80  CG1       58.0390   42.7520  143.2460 C.3   132  VAL132      0.0019
     81  CG2       59.2950   43.3270  141.1460 C.3   132  VAL132      0.0019
     82  N         54.1950   46.3370  139.1990 N.3   135  LEU135     -0.1231
     83  CA        54.4470   45.8710  137.8410 C.3   135  LEU135      0.1693
     84  C         54.0190   44.4200  137.5720 C.2   135  LEU135      0.2592
     85  O         53.8000   44.0480  136.4210 O.2   135  LEU135     -0.2718
     86  CB        55.9270   46.0670  137.4950 C.3   135  LEU135      0.0284
     87  CG        56.3620   47.3980  136.8470 C.3   135  LEU135      0.0019
     88  CD1       55.5570   48.6020  137.3140 C.3   135  LEU135      0.0001
     89  CD2       57.8530   47.6310  137.0450 C.3   135  LEU135      0.0001
     90  N         53.9140   43.6090  138.6230 N.am  136  LYS136     -0.1966
     91  CA        53.4180   42.2350  138.5150 C.3   136  LYS136      0.1728
     92  C         52.0760   42.1680  137.8070 C.2   136  LYS136      0.2617
     93  O         51.1770   42.9500  138.1030 O.2   136  LYS136     -0.2715
     94  CB        53.2770   41.5890  139.8920 C.3   136  LYS136      0.0311
     95  CG        54.4180   40.6740  140.3110 C.3   136  LYS136      0.0038
     96  CD        54.4010   39.3280  139.5890 C.3   136  LYS136      0.0206
     97  CE        55.4550   39.2810  138.4860 C.3   136  LYS136      0.1093
     98  NZ        55.7240   37.8990  137.9930 N.3   136  LYS136     -0.1314
     99  N         51.9540   41.2390  136.8630 N.am  137  GLY137     -0.1940
    100  CA        50.7280   41.0900  136.0830 C.3   137  GLY137      0.2014
    101  C         50.6120   42.0470  134.9050 C.2   137  GLY137      0.2640
    102  O         49.5310   42.1710  134.2910 O.2   137  GLY137     -0.2714
    103  N         51.7110   42.7210  134.5710 N.am  138  SER138     -0.1935
    104  CA        51.6750   43.6770  133.4560 C.3   138  SER138      0.2055
    105  C         52.5290   43.3220  132.2520 C.2   138  SER138      0.2643
    106  O         52.5460   44.0840  131.2800 O.2   138  SER138     -0.2714
    107  CB        51.9800   45.1050  133.9140 C.3   138  SER138      0.2130
    108  OG        50.9350   45.5680  134.7440 O.3   138  SER138     -0.2179
    109  N         53.2250   42.1820  132.3010 N.am  139  SER139     -0.1949
    110  CA        53.9260   41.6830  131.1130 C.3   139  SER139      0.1924
    111  C         52.8910   41.4830  129.9960 C.2   139  SER139      0.2314
    112  O         51.7300   41.1330  130.2620 O.2   139  SER139     -0.2863
    113  CB        54.7050   40.3990  131.3920 C.3   139  SER139      0.2116
    114  OG        53.8340   39.3240  131.7050 O.3   139  SER139     -0.2180
    115  N         56.2430   44.7690  127.4250 N.3   154  PHE154     -0.1227
    116  CA        56.8680   44.4870  128.7140 C.3   154  PHE154      0.1736
    117  C         57.1280   42.9810  128.9510 C.2   154  PHE154      0.2595
    118  O         56.2020   42.1680  128.8900 O.2   154  PHE154     -0.2718
    119  CB        55.9440   45.0880  129.7940 C.3   154  PHE154      0.0547
    120  CG        56.5150   45.1060  131.1890 C.ar  154  PHE154     -0.0202
    121  CD1       57.8850   45.2650  131.4190 C.ar  154  PHE154     -0.0042
    122  CD2       55.6630   45.0070  132.2870 C.ar  154  PHE154     -0.0042
    123  CE1       58.3880   45.2940  132.7150 C.ar  154  PHE154     -0.0003
    124  CE2       56.1620   45.0490  133.5840 C.ar  154  PHE154     -0.0003
    125  CZ        57.5330   45.1960  133.7970 C.ar  154  PHE154     -0.0000
    126  N         58.3890   42.6180  129.2060 N.am  155  ARG155     -0.1966
    127  CA        58.7800   41.2100  129.3870 C.3   155  ARG155      0.1729
    128  C         59.3030   40.8890  130.7940 C.2   155  ARG155      0.2616
    129  O         58.9280   39.8630  131.3900 O.2   155  ARG155     -0.2715
    130  CB        59.8140   40.8020  128.3240 C.3   155  ARG155      0.0348
    131  CG        60.4780   39.4510  128.5340 C.3   155  ARG155      0.0492
    132  CD        61.2350   38.9980  127.2910 C.3   155  ARG155      0.2205
    133  NE        62.3330   39.8980  126.9360 N.pl3 155  ARG155     -0.0865
    134  CZ        62.9370   39.9310  125.7520 C.cat 155  ARG155      0.5346
    135  NH1       62.5670   39.1180  124.7780 N.pl3 155  ARG155      0.1354
    136  NH2       63.9260   40.7840  125.5440 N.pl3 155  ARG155      0.1354
    137  N         60.1900   41.7440  131.3060 N.am  156  ALA156     -0.1963
    138  CA        60.8030   41.5360  132.6310 C.3   156  ALA156      0.1728
    139  C         61.1710   42.8690  133.2680 C.2   156  ALA156      0.2616
    140  O         61.3090   43.8760  132.5670 O.2   156  ALA156     -0.2715
    141  CB        62.0290   40.6370  132.5370 C.3   156  ALA156      0.0334
    142  N         61.3100   42.8750  134.5900 N.am  157  ALA157     -0.1963
    143  CA        61.7990   44.0500  135.3030 C.3   157  ALA157      0.1728
    144  C         63.2280   43.8160  135.8030 C.2   157  ALA157      0.2616
    145  O         63.5870   42.7000  136.2020 O.2   157  ALA157     -0.2715
    146  CB        60.8770   44.3990  136.4590 C.3   157  ALA157      0.0334
    147  N         64.0460   44.8640  135.7310 N.am  158  VAL158     -0.1963
    148  CA        65.3620   44.8720  136.3610 C.3   158  VAL158      0.1727
    149  C         65.1540   45.5290  137.7190 C.2   158  VAL158      0.2616
    150  O         64.7290   46.6860  137.8050 O.2   158  VAL158     -0.2715
    151  CB        66.4160   45.6550  135.5430 C.3   158  VAL158      0.0290
    152  CG1       67.7880   45.5550  136.2040 C.3   158  VAL158      0.0023
    153  CG2       66.4800   45.1570  134.1040 C.3   158  VAL158      0.0023
    154  N         65.3990   44.7710  138.7780 N.am  159  CYS159     -0.1968
    155  CA        65.1580   45.2710  140.1270 C.3   159  CYS159      0.1712
    156  C         66.2290   44.8660  141.1160 C.2   159  CYS159      0.2296
    157  O         66.9630   43.9000  140.9060 O.2   159  CYS159     -0.2864
    158  CB        63.7660   44.8840  140.6560 C.3   159  CYS159      0.0983
    159  SG        62.8610   43.6090  139.7570 S.3   159  CYS159     -0.0798
    160  N         62.8180   45.4700  130.9380 N.3   168  ASP168     -0.1239
    161  CA        63.2690   44.7810  129.7510 C.3   168  ASP168      0.1674
    162  C         62.0300   44.4770  128.8960 C.2   168  ASP168      0.2266
    163  O         60.9910   44.0800  129.4230 O.2   168  ASP168     -0.2867
    164  CB        64.0280   43.5190  130.1550 C.3   168  ASP168      0.1410
    165  CG        64.0950   42.4940  129.0480 C.2   168  ASP168      0.3668
    166  OD1       64.6820   42.7940  127.9930 O.co2 168  ASP168     -0.2456
    167  OD2       63.5700   41.3750  129.2370 O.co2 168  ASP168     -0.2456
@<TRIPOS>BOND
     1    55    53   ar
     2    54    53   ar
     3    53    52    1
     4    41    42    1
     5    52    49    1
     6    46    45    1
     7    48    49    1
     8    48    43   am
     9    49    50    1
    10    42    45    1
    11    42    43    1
    12    50    51    2
    13    45    47    1
    14    43    44    2
    15    56    57    1
    16    58    57    1
    17    58    59    2
    18   135   134    1
    19    57    60    1
    20   136   134    1
    21   134   133    2
    22    64    65    1
    23    60    61    1
    24    67    66    2
    25   133   132    1
    26   132   131    1
    27   115   116    1
    28    65    66    1
    29    65    68    1
    30    61    62   ar
    31    61    63   ar
    32   166   165   ar
    33    68    69    1
    34   130   131    1
    35   130   127    1
    36   116   117    1
    37   116   119    1
    38   118   117    2
    39   162   163    2
    40   162   161    1
    41   117   126   am
    42    27    28    1
    43   165   167   ar
    44   165   164    1
    45   126   127    1
    46   127   128    1
    47    25    23   ar
    48    25    26   ar
    49    69    70    1
    50   161   164    1
    51   161   160    1
    52   119   120    1
    53    71    70    1
    54    71    72    2
    55   111   112    2
    56   111   110    1
    57    23    21   ar
    58    39    38    1
    59    39    40    2
    60    26    24   ar
    61    74    72    1
    62    37    38    1
    63    37    29   am
    64    28    29    1
    65    28    31    1
    66    72    73    1
    67    33    35   ar
    68    33    32   ar
    69   128   137   am
    70   128   129    2
    71    29    30    2
    72   110   113    1
    73   110   109    1
    74    31    32    1
    75   120   121   ar
    76   120   122   ar
    77   106   105    2
    78   137   138    1
    79    19    18    2
    80    35    36   ar
    81    18    17    1
    82   113   114    1
    83    21    20    1
    84    21    22   ar
    85   121   123   ar
    86    32    34   ar
    87    24    22   ar
    88    20    17    1
    89   105   109   am
    90   105   104    1
    91   122   124   ar
    92    36    34   ar
    93    17    16    1
    94   141   138    1
    95   140   139    2
    96   138   139    1
    97   123   125   ar
    98    16    12   am
    99   139   142   am
   100   104   107    1
   101   104   103    1
   102   124   125   ar
   103     9     7   am
   104   107   108    1
   105   153   151    1
   106   102   101    2
   107    12    11    1
   108    12    13    2
   109   103   101   am
   110   142   143    1
   111    15    14    1
   112     4     3    2
   113    11    14    1
   114    11    10    1
   115   101   100    1
   116     7     6    1
   117     7     8    2
   118     6     5    1
   119   143   144    1
   120   143   146    1
   121   151   152    1
   122   151   148    1
   123     3    10   am
   124     3     2    1
   125   147   144   am
   126   147   148    1
   127   144   145    2
   128   100    99    1
   129     5     2    1
   130   148   149    1
   131    85    84    2
   132     2     1    1
   133    87    89    1
   134    87    88    1
   135    87    86    1
   136    99    92   am
   137    86    83    1
   138    84    83    1
   139    84    90   am
   140   149   150    2
   141   149   154   am
   142    92    93    2
   143    92    91    1
   144    83    82    1
   145    98    97    1
   146    97    96    1
   147    91    90    1
   148    91    94    1
   149   154   155    1
   150    96    95    1
   151   159   158    1
   152    94    95    1
   153   155   158    1
   154   155   156    1
   155    78    77    2
   156   157   156    2
   157    81    79    1
   158    77    76    1
   159    76    79    1
   160    76    75    1
   161    79    80    1
