@<TRIPOS>MOLECULE
tmp/4ktfA01.pdb
 139 133 0 0 0
SMALL
GASTEIGER

@<TRIPOS>ATOM
      1  N        -11.4850   10.1970    1.4450 N.3    74  THR74      -0.1203
      2  CA       -12.8520   10.4260    1.8360 C.3    74  THR74       0.1994
      3  C        -13.5540   11.5030    1.0120 C.2    74  THR74       0.2617
      4  O        -14.6710   11.9110    1.2800 O.2    74  THR74      -0.2717
      5  CB       -13.0180   10.7440    3.3170 C.3    74  THR74       0.1784
      6  OG1      -12.3070   11.9510    3.5900 O.3    74  THR74      -0.2211
      7  CG2      -12.3150    9.6500    4.1390 C.3    74  THR74       0.0376
      8  N        -12.8440   11.9870    0.0070 N.am   75  VAL75      -0.1979
      9  CA       -13.3300   13.0410   -0.9510 C.3    75  VAL75       0.1595
     10  C        -13.1000   12.4950   -2.3160 C.2    75  VAL75       0.2287
     11  O        -12.2380   11.6440   -2.5530 O.2    75  VAL75      -0.2864
     12  CB       -12.5760   14.3980   -0.7870 C.3    75  VAL75       0.0276
     13  CG1      -12.8690   15.0100    0.5600 C.3    75  VAL75       0.0022
     14  CG2      -11.0790   14.3150   -0.9840 C.3    75  VAL75       0.0022
     15  N        -10.8260   16.6330   -5.6560 N.3    79  VAL79      -0.1231
     16  CA       -10.9240   17.5460   -4.5100 C.3    79  VAL79       0.1692
     17  C         -9.6100   17.6580   -3.7560 C.2    79  VAL79       0.2591
     18  O         -9.3660   18.6010   -2.9970 O.2    79  VAL79      -0.2718
     19  CB       -12.1150   17.1730   -3.6320 C.3    79  VAL79       0.0266
     20  CG1      -12.2210   18.0510   -2.3740 C.3    79  VAL79       0.0020
     21  CG2      -13.4060   17.2900   -4.3930 C.3    79  VAL79       0.0020
     22  N         -8.7080   16.6960   -3.8860 N.am   80  VAL80      -0.1980
     23  CA        -7.3620   16.8590   -3.3100 C.3    80  VAL80       0.1595
     24  C         -6.7140   18.0870   -3.8680 C.2    80  VAL80       0.2287
     25  O         -5.9090   18.7270   -3.1470 O.2    80  VAL80      -0.2864
     26  CB        -6.5880   15.5020   -3.5040 C.3    80  VAL80       0.0276
     27  CG1       -5.1380   15.6820   -3.0340 C.3    80  VAL80       0.0022
     28  CG2       -7.3440   14.3150   -2.7900 C.3    80  VAL80       0.0022
     29  N         -8.2250   20.9060   -4.4240 N.3    82  ASN82      -0.1225
     30  CA        -9.2630   21.9380   -4.2210 C.3    82  ASN82       0.1785
     31  C         -8.7370   23.3070   -4.3830 C.2    82  ASN82       0.2597
     32  O         -9.3640   24.0810   -5.1090 O.2    82  ASN82      -0.2718
     33  CB        -9.8410   21.6950   -2.8810 C.3    82  ASN82       0.1169
     34  CG       -11.1810   22.3940   -2.5880 C.2    82  ASN82       0.2627
     35  OD1      -12.0540   22.5370   -3.4670 O.2    82  ASN82      -0.2716
     36  ND2      -11.3740   22.7700   -1.3040 N.am   82  ASN82      -0.0877
     37  N         -7.5820   23.6540   -3.8390 N.am   83  MET83      -0.1979
     38  CA        -7.1070   25.0240   -4.0020 C.3    83  MET83       0.1605
     39  C         -6.6760   25.3430   -5.4180 C.2    83  MET83       0.2287
     40  O         -6.8690   26.4730   -5.9200 O.2    83  MET83      -0.2864
     41  CB        -6.0500   25.3770   -2.9450 C.3    83  MET83       0.0413
     42  CG        -6.6510   25.7330   -1.5720 C.3    83  MET83       0.0598
     43  SD        -7.8250   27.0950   -1.2980 S.3    83  MET83      -0.1393
     44  CE        -7.1710   28.2850   -2.4740 C.3    83  MET83       0.0692
     45  N        -21.2750   15.0670   10.1450 N.3   160  SER160     -0.1202
     46  CA       -20.5470   14.3620    9.1290 C.3   160  SER160      0.2020
     47  C        -19.0680   14.2090    9.4750 C.2   160  SER160      0.2618
     48  O        -18.3510   13.2820    8.9380 O.2   160  SER160     -0.2717
     49  CB       -20.6090   15.1510    7.8460 C.3   160  SER160      0.2103
     50  OG       -21.9060   15.1270    7.2990 O.3   160  SER160     -0.2182
     51  N        -18.5040   15.0480   10.3310 N.am  161  LEU161     -0.1979
     52  CA       -17.0830   15.1830   10.4110 C.3   161  LEU161      0.1596
     53  C        -16.2700   14.0860   11.0980 C.2   161  LEU161      0.2287
     54  O        -15.1240   13.8250   10.7970 O.2   161  LEU161     -0.2864
     55  CB       -16.6490   16.5430   10.9300 C.3   161  LEU161      0.0297
     56  CG       -17.2730   17.7070   10.1250 C.3   161  LEU161      0.0022
     57  CD1      -16.8030   19.0550   10.6680 C.3   161  LEU161      0.0001
     58  CD2      -16.9730   17.6850    8.7050 C.3   161  LEU161      0.0001
     59  N        -15.8150   12.0880    8.0070 N.3   164  ALA164     -0.1231
     60  CA       -15.1330   12.7740    6.9360 C.3   164  ALA164      0.1694
     61  C        -13.6680   12.9490    7.1370 C.2   164  ALA164      0.2592
     62  O        -12.9090   12.8800    6.1770 O.2   164  ALA164     -0.2718
     63  CB       -15.7430   14.1760    6.8020 C.3   164  ALA164      0.0304
     64  N        -13.2630   13.1400    8.3940 N.am  165  PHE165     -0.1976
     65  CA       -11.8540   13.2760    8.7050 C.3   165  PHE165      0.1639
     66  C        -11.2340   12.0460    9.3130 C.2   165  PHE165      0.2290
     67  O        -10.1300   12.1020    9.9210 O.2   165  PHE165     -0.2864
     68  CB       -11.6420   14.5400    9.5370 C.3   165  PHE165      0.0560
     69  CG       -11.6720   15.7600    8.6600 C.ar  165  PHE165     -0.0200
     70  CD1      -10.5420   16.1760    7.9780 C.ar  165  PHE165     -0.0042
     71  CD2      -12.8890   16.4270    8.4540 C.ar  165  PHE165     -0.0042
     72  CE1      -10.6600   17.3100    7.1480 C.ar  165  PHE165     -0.0003
     73  CE2      -12.9640   17.5700    7.6130 C.ar  165  PHE165     -0.0003
     74  CZ       -11.8190   17.9070    6.9580 C.ar  165  PHE165     -0.0000
     75  N        -21.0140   12.9120    2.1220 N.3   179  TRP179     -0.1298
     76  CA       -20.4730   13.8480    1.0800 C.3   179  TRP179      0.1291
     77  C        -21.5800   14.2010    0.1740 C.3   179  TRP179      0.2013
     78  O        -21.8780   15.4120   -0.1460 O.3   179  TRP179     -0.2188
     79  CB       -19.3130   13.2610    0.3440 C.3   179  TRP179      0.0497
     80  CG       -18.7730   14.1000   -0.7760 C.ar  179  TRP179     -0.0001
     81  CD1      -19.1590   14.0520   -2.0850 C.ar  179  TRP179      0.0946
     82  CD2      -17.8840   15.1880   -0.6480 C.ar  179  TRP179      0.0152
     83  NE1      -18.4440   14.9940   -2.8240 N.ar  179  TRP179     -0.2442
     84  CE2      -17.6620   15.7070   -1.9340 C.ar  179  TRP179      0.0810
     85  CE3      -17.1560   15.7500    0.4140 C.ar  179  TRP179      0.0012
     86  CZ2      -16.8200   16.7800   -2.1780 C.ar  179  TRP179      0.0191
     87  CZ3      -16.2570   16.8090    0.1460 C.ar  179  TRP179      0.0001
     88  CH2      -16.1030   17.3220   -1.1490 C.ar  179  TRP179      0.0015
     89  N        -24.2000   16.4550    1.7960 N.3   182  ASP182     -0.1239
     90  CA       -23.7020   17.7450    2.1620 C.3   182  ASP182      0.1674
     91  C        -23.4620   18.5870    0.8920 C.2   182  ASP182      0.2266
     92  O        -23.7530   19.8140    0.9160 O.2   182  ASP182     -0.2867
     93  CB       -22.4790   17.6970    3.0000 C.3   182  ASP182      0.1410
     94  CG       -22.7570   17.1110    4.3350 C.2   182  ASP182      0.3668
     95  OD1      -23.9080   17.0080    4.7910 O.co2 182  ASP182     -0.2456
     96  OD2      -21.7510   16.7290    5.0480 O.co2 182  ASP182     -0.2456
     97  N        -18.6740   22.8400    1.1640 N.3   225  VAL225     -0.1231
     98  CA       -18.5340   21.6330    1.9980 C.3   225  VAL225      0.1692
     99  C        -17.1350   21.5570    2.5730 C.2   225  VAL225      0.2593
    100  O        -16.9950   21.2710    3.8080 O.2   225  VAL225     -0.2718
    101  CB       -18.8970   20.3680    1.1800 C.3   225  VAL225      0.0266
    102  CG1      -18.5420   19.1670    1.9950 C.3   225  VAL225      0.0020
    103  CG2      -20.3280   20.3760    0.6570 C.3   225  VAL225      0.0020
    104  N        -16.1300   21.7490    1.7350 N.am  226  THR226     -0.1939
    105  CA       -14.7560   21.5480    2.1610 C.3   226  THR226      0.2028
    106  C        -14.2870   22.6210    3.1100 C.2   226  THR226      0.2642
    107  O        -13.5220   22.3570    4.0870 O.2   226  THR226     -0.2714
    108  CB       -13.7860   21.4870    0.9920 C.3   226  THR226      0.1808
    109  OG1      -13.9010   22.6850    0.1700 O.3   226  THR226     -0.2208
    110  CG2      -14.0360   20.2310    0.1850 C.3   226  THR226      0.0379
    111  N        -14.6900   23.9070    2.8950 N.am  227  PHE227     -0.1973
    112  CA       -14.2730   24.9780    3.8000 C.3   227  PHE227      0.1639
    113  C        -14.9830   24.8570    5.1540 C.2   227  PHE227      0.2290
    114  O        -14.3360   25.0380    6.1790 O.2   227  PHE227     -0.2864
    115  CB       -14.3640   26.4130    3.1610 C.3   227  PHE227      0.0560
    116  CG       -13.1840   26.7270    2.3480 C.ar  227  PHE227     -0.0200
    117  CD1      -12.8560   25.9890    1.2130 C.ar  227  PHE227     -0.0042
    118  CD2      -12.2530   27.7530    2.6980 C.ar  227  PHE227     -0.0042
    119  CE1      -11.7120   26.2380    0.5090 C.ar  227  PHE227     -0.0003
    120  CE2      -11.1240   27.9860    1.9320 C.ar  227  PHE227     -0.0003
    121  CZ       -10.9080   27.2820    0.8420 C.ar  227  PHE227     -0.0000
    122  N        -15.9170   21.9590    6.4650 N.3   229  GLY229     -0.1210
    123  CA       -15.3650   20.7780    7.1830 C.3   229  GLY229      0.1956
    124  C        -13.9490   21.0000    7.6310 C.2   229  GLY229      0.2611
    125  O        -13.6590   20.7720    8.7970 O.2   229  GLY229     -0.2717
    126  N        -13.0790   21.4990    6.7740 N.am  230  ALA230     -0.1979
    127  CA       -11.7390   21.7470    7.1720 C.3   230  ALA230      0.1597
    128  C        -11.6260   22.8020    8.2620 C.2   230  ALA230      0.2287
    129  O        -10.9080   22.6140    9.2270 O.2   230  ALA230     -0.2864
    130  CB       -10.8920   22.1290    6.0220 C.3   230  ALA230      0.0319
    131  N         -7.7130   12.0370   11.2890 N.3   382  GLN382     -0.1196
    132  CA        -6.7440   12.9700   10.8080 C.3   382  GLN382      0.1782
    133  C         -6.3680   14.0330   11.8660 C.2   382  GLN382      0.2306
    134  O         -5.4170   14.7830   11.5820 O.2   382  GLN382     -0.2863
    135  CB        -7.2820   13.6580    9.5140 C.2   382  GLN382      0.0051
    136  CG        -7.4820   12.7320    8.3270 C.2   382  GLN382      0.0584
    137  CD        -8.0200   13.3760    7.0950 C.2   382  GLN382      0.2840
    138  OE1       -9.0310   12.8320    6.4840 O.2   382  GLN382     -0.2667
    139  NE2       -7.5500   14.4820    6.7040 N.am  382  GLN382     -0.0837
@<TRIPOS>BOND
     1    40    39    2
     2    15    16    1
     3    39    38    1
     4    32    31    2
     5    16    17    1
     6    16    19    1
     7    29    30    1
     8    21    19    1
     9    31    30    1
    10    31    37   am
    11    30    33    1
    12    38    37    1
    13    38    41    1
    14    22    17   am
    15    22    23    1
    16    24    23    1
    17    24    25    2
    18    17    18    2
    19    19    20    1
    20    26    23    1
    21    26    27    1
    22    26    28    1
    23    35    34    2
    24    41    42    1
    25    33    34    1
    26    83    81   ar
    27    83    84   ar
    28    34    36   am
    29    11    10    2
    30    44    43    1
    31    10     9    1
    32    86    84   ar
    33    86    88   ar
    34    81    80   ar
    35    84    82   ar
    36    42    43    1
    37    88    87   ar
    38    14    12    1
    39     9    12    1
    40     9     8    1
    41    12    13    1
    42    80    82   ar
    43    80    79    1
    44    82    85   ar
    45    78    77    1
    46     8     3   am
    47    87    85   ar
    48   109   108    1
    49    77    76    1
    50   110   108    1
    51    79    76    1
    52   119   121   ar
    53   119   117   ar
    54   103   101    1
    55   121   120   ar
    56    91    92    2
    57    91    90    1
    58   108   105    1
    59     3     4    2
    60     3     2    1
    61    76    75    1
    62    97    98    1
    63   101   102    1
    64   101    98    1
    65   117   116   ar
    66     1     2    1
    67   104   105    1
    68   104    99   am
    69    89    90    1
    70     2     5    1
    71   120   118   ar
    72    98    99    1
    73   105   106    1
    74    90    93    1
    75   116   118   ar
    76   116   115    1
    77    99   100    2
    78   111   106   am
    79   111   112    1
    80    93    94    1
    81   106   107    2
    82   115   112    1
    83     5     6    1
    84     5     7    1
    85   112   113    1
    86    94    95   ar
    87    94    96   ar
    88   113   114    2
    89   130   127    1
    90    62    61    2
    91   122   123    1
    92   138   137    2
    93   139   137   am
    94   126   127    1
    95   126   124   am
    96    63    60    1
    97    60    61    1
    98    60    59    1
    99    74    72   ar
   100    74    73   ar
   101   137   136    1
   102    61    64   am
   103    72    70   ar
   104   127   128    1
   105   123   124    1
   106    50    49    1
   107    73    71   ar
   108   124   125    2
   109    49    46    1
   110    70    69   ar
   111   128   129    2
   112   136   135    2
   113    64    65    1
   114    71    69   ar
   115    69    68    1
   116    58    56    1
   117    65    66    1
   118    65    68    1
   119    48    47    2
   120    46    47    1
   121    46    45    1
   122    66    67    2
   123    47    51   am
   124   135   132    1
   125    56    57    1
   126    56    55    1
   127    51    52    1
   128    52    55    1
   129    52    53    1
   130    54    53    2
   131   132   131    1
   132   132   133    1
   133   134   133    2
