@<TRIPOS>MOLECULE
tmp/4ktjA01.pdb
 125 120 0 0 0
SMALL
GASTEIGER

@<TRIPOS>ATOM
      1  N        -11.3930   10.1850    1.4100 N.3    75  THR75      -0.1203
      2  CA       -12.6990   10.3280    1.9110 C.3    75  THR75       0.1994
      3  C        -13.5530   11.2700    1.0260 C.2    75  THR75       0.2617
      4  O        -14.6820   11.5650    1.3730 O.2    75  THR75      -0.2717
      5  CB       -12.8480   10.7180    3.3730 C.3    75  THR75       0.1784
      6  OG1      -12.2990   11.9880    3.5500 O.3    75  THR75      -0.2211
      7  CG2      -12.0520    9.7450    4.2470 C.3    75  THR75       0.0376
      8  N        -12.9150   11.8200    0.0050 N.am   76  VAL76      -0.1979
      9  CA       -13.4900   12.8000   -0.9780 C.3    76  VAL76       0.1595
     10  C        -13.1830   12.2850   -2.3100 C.2    76  VAL76       0.2287
     11  O        -12.2610   11.5130   -2.5010 O.2    76  VAL76      -0.2864
     12  CB       -12.9070   14.1780   -0.7710 C.3    76  VAL76       0.0276
     13  CG1      -13.5100   14.7270    0.5450 C.3    76  VAL76       0.0022
     14  CG2      -11.4320   14.2380   -0.8130 C.3    76  VAL76       0.0022
     15  N        -11.0050   16.4480   -5.6470 N.3    80  VAL80      -0.1231
     16  CA       -11.1310   17.3500   -4.5180 C.3    80  VAL80       0.1692
     17  C         -9.8560   17.4740   -3.7030 C.2    80  VAL80       0.2591
     18  O         -9.5370   18.4180   -2.9750 O.2    80  VAL80      -0.2718
     19  CB       -12.4470   16.9450   -3.6960 C.3    80  VAL80       0.0266
     20  CG1      -12.5160   17.7930   -2.4190 C.3    80  VAL80       0.0020
     21  CG2      -13.7310   17.0420   -4.4790 C.3    80  VAL80       0.0020
     22  N         -8.9590   16.5150   -3.8600 N.am   81  VAL81      -0.1980
     23  CA        -7.6680   16.6490   -3.2170 C.3    81  VAL81       0.1595
     24  C         -6.9600   17.9010   -3.7040 C.2    81  VAL81       0.2287
     25  O         -6.2540   18.5360   -2.9250 O.2    81  VAL81      -0.2864
     26  CB        -6.7650   15.3810   -3.4310 C.3    81  VAL81       0.0276
     27  CG1       -5.3330   15.5230   -2.9340 C.3    81  VAL81       0.0022
     28  CG2       -7.5070   14.1450   -2.8730 C.3    81  VAL81       0.0022
     29  N         -8.2360   20.7950   -4.1860 N.3    83  ASN83      -0.1225
     30  CA        -9.3410   21.7220   -3.9850 C.3    83  ASN83       0.1785
     31  C         -8.8620   23.1380   -4.1760 C.2    83  ASN83       0.2597
     32  O         -9.4410   23.8890   -4.9700 O.2    83  ASN83      -0.2718
     33  CB        -9.8750   21.4690   -2.6200 C.3    83  ASN83       0.1169
     34  CG       -11.1510   22.2070   -2.2920 C.2    83  ASN83       0.2627
     35  OD1      -12.0270   22.3840   -3.1200 O.2    83  ASN83      -0.2716
     36  ND2      -11.2230   22.6850   -1.0410 N.am   83  ASN83      -0.0877
     37  N         -7.7660   23.5650   -3.5850 N.am   84  MET84      -0.1979
     38  CA        -7.2920   24.9450   -3.8070 C.3    84  MET84       0.1605
     39  C         -6.8010   25.2420   -5.2150 C.2    84  MET84       0.2287
     40  O         -7.0310   26.3210   -5.7500 O.2    84  MET84      -0.2864
     41  CB        -6.2020   25.2820   -2.7740 C.3    84  MET84       0.0413
     42  CG        -6.7500   25.5980   -1.3900 C.3    84  MET84       0.0598
     43  SD        -7.9020   26.9850   -1.1480 S.3    84  MET84      -0.1393
     44  CE        -7.3840   28.1980   -2.3840 C.3    84  MET84       0.0692
     45  N        -18.4040   14.9660   10.3710 N.3   162  LEU162     -0.1245
     46  CA       -17.0050   15.1480   10.5020 C.3   162  LEU162      0.1561
     47  C        -16.1700   14.0230   11.2130 C.2   162  LEU162      0.2260
     48  O        -15.0420   13.7770   10.8880 O.2   162  LEU162     -0.2867
     49  CB       -16.6430   16.4980   11.1000 C.3   162  LEU162      0.0270
     50  CG       -17.1740   17.6890   10.2610 C.3   162  LEU162      0.0019
     51  CD1      -16.7170   18.9940   10.9850 C.3   162  LEU162      0.0001
     52  CD2      -16.8670   17.6980    8.7920 C.3   162  LEU162      0.0001
     53  N        -15.7630   12.0190    8.1120 N.3   165  ALA165     -0.1231
     54  CA       -15.0920   12.6420    6.9930 C.3   165  ALA165      0.1694
     55  C        -13.6430   12.7730    7.1200 C.2   165  ALA165      0.2592
     56  O        -12.8260   12.7930    6.1490 O.2   165  ALA165     -0.2718
     57  CB       -15.7050   14.0380    6.7440 C.3   165  ALA165      0.0304
     58  N        -13.1690   12.9570    8.3620 N.am  166  PHE166     -0.1976
     59  CA       -11.7820   13.1990    8.7020 C.3   166  PHE166      0.1639
     60  C        -11.1770   11.9630    9.3420 C.2   166  PHE166      0.2290
     61  O        -10.0950   12.0290    9.9020 O.2   166  PHE166     -0.2864
     62  CB       -11.5720   14.4760    9.5550 C.3   166  PHE166      0.0560
     63  CG       -11.6540   15.7080    8.6560 C.ar  166  PHE166     -0.0200
     64  CD1      -12.8570   16.2830    8.4430 C.ar  166  PHE166     -0.0042
     65  CD2      -10.5500   16.2060    8.0410 C.ar  166  PHE166     -0.0042
     66  CE1      -12.9800   17.3930    7.5340 C.ar  166  PHE166     -0.0003
     67  CE2      -10.7010   17.3410    7.1480 C.ar  166  PHE166     -0.0003
     68  CZ       -11.8880   17.8060    6.9330 C.ar  166  PHE166     -0.0000
     69  N        -20.9990   12.9020    2.2580 N.3   180  TRP180     -0.1241
     70  CA       -20.4700   13.8140    1.2220 C.3   180  TRP180      0.1605
     71  C        -21.5290   14.1740    0.2050 C.2   180  TRP180      0.2264
     72  O        -21.7960   15.3650   -0.0720 O.2   180  TRP180     -0.2867
     73  CB       -19.2970   13.2120    0.5180 C.3   180  TRP180      0.0550
     74  CG       -18.7360   14.0670   -0.5890 C.ar  180  TRP180      0.0003
     75  CD1      -19.0800   13.9670   -1.9310 C.ar  180  TRP180      0.0946
     76  CD2      -17.8900   15.1950   -0.4670 C.ar  180  TRP180      0.0152
     77  NE1      -18.3700   14.9140   -2.6160 N.ar  180  TRP180     -0.2442
     78  CE2      -17.6560   15.7070   -1.7420 C.ar  180  TRP180      0.0810
     79  CE3      -17.2020   15.7860    0.6050 C.ar  180  TRP180      0.0012
     80  CZ2      -16.8360   16.8250   -1.9650 C.ar  180  TRP180      0.0191
     81  CZ3      -16.3590   16.8820    0.3800 C.ar  180  TRP180      0.0001
     82  CH2      -16.2180   17.4110   -0.8910 C.ar  180  TRP180      0.0015
     83  N        -18.7110   22.7490    1.2910 N.3   226  VAL226     -0.1231
     84  CA       -18.5100   21.5320    2.1010 C.3   226  VAL226      0.1692
     85  C        -17.0970   21.4940    2.6120 C.2   226  VAL226      0.2593
     86  O        -16.8750   21.1840    3.8810 O.2   226  VAL226     -0.2718
     87  CB       -18.8580   20.2350    1.3290 C.3   226  VAL226      0.0266
     88  CG1      -18.5910   19.0420    2.2010 C.3   226  VAL226      0.0020
     89  CG2      -20.2920   20.2800    0.8610 C.3   226  VAL226      0.0020
     90  N        -16.1060   21.7320    1.7820 N.am  227  THR227     -0.1939
     91  CA       -14.7250   21.5720    2.1910 C.3   227  THR227      0.2028
     92  C        -14.3420   22.6130    3.1930 C.2   227  THR227      0.2642
     93  O        -13.5370   22.3780    4.1090 O.2   227  THR227     -0.2714
     94  CB       -13.7250   21.5760    0.9840 C.3   227  THR227      0.1808
     95  OG1      -13.9100   22.7870    0.2130 O.3   227  THR227     -0.2208
     96  CG2      -13.9670   20.3180    0.1200 C.3   227  THR227      0.0379
     97  N        -14.6750   23.8770    2.9960 N.am  228  PHE228     -0.1973
     98  CA       -14.2960   24.9930    3.9310 C.3   228  PHE228      0.1639
     99  C        -15.0330   24.7910    5.2510 C.2   228  PHE228      0.2290
    100  O        -14.3980   24.9770    6.3410 O.2   228  PHE228     -0.2864
    101  CB       -14.4340   26.4020    3.2380 C.3   228  PHE228      0.0560
    102  CG       -13.2090   26.7270    2.4400 C.ar  228  PHE228     -0.0200
    103  CD1      -12.9230   26.0300    1.2900 C.ar  228  PHE228     -0.0042
    104  CD2      -12.2510   27.6940    2.8440 C.ar  228  PHE228     -0.0042
    105  CE1      -11.7720   26.3340    0.5800 C.ar  228  PHE228     -0.0003
    106  CE2      -11.0790   27.9110    2.1320 C.ar  228  PHE228     -0.0003
    107  CZ       -10.8570   27.2910    1.0290 C.ar  228  PHE228     -0.0000
    108  N        -15.9130   21.9380    6.6020 N.3   230  GLY230     -0.1210
    109  CA       -15.3660   20.7360    7.2670 C.3   230  GLY230      0.1956
    110  C        -13.9880   20.9980    7.6910 C.2   230  GLY230      0.2611
    111  O        -13.6680   20.7070    8.8900 O.2   230  GLY230     -0.2717
    112  N        -13.0780   21.4630    6.8350 N.am  231  ALA231     -0.1979
    113  CA       -11.7080   21.7030    7.2700 C.3   231  ALA231      0.1597
    114  C        -11.6640   22.7640    8.3730 C.2   231  ALA231      0.2287
    115  O        -10.8780   22.5490    9.3380 O.2   231  ALA231     -0.2864
    116  CB       -10.8750   22.1660    6.0720 C.3   231  ALA231      0.0319
    117  N         -7.7590   11.9930   11.4640 N.3   383  GLN383     -0.1245
    118  CA        -6.7500   12.9130   10.9180 C.3   383  GLN383      0.1566
    119  C         -6.3720   14.0200   11.9800 C.2   383  GLN383      0.2260
    120  O         -5.4070   14.7750   11.7070 O.2   383  GLN383     -0.2867
    121  CB        -7.2370   13.5950    9.6170 C.3   383  GLN383      0.0367
    122  CG        -7.4220   12.5830    8.4700 C.3   383  GLN383      0.0905
    123  CD        -8.0300   13.2010    7.2310 C.2   383  GLN383      0.2608
    124  OE1       -8.9350   12.5270    6.5520 O.2   383  GLN383     -0.2717
    125  NE2       -7.7200   14.4010    6.8450 N.am  383  GLN383     -0.0878
@<TRIPOS>BOND
     1    40    39    2
     2    15    16    1
     3    39    38    1
     4    32    31    2
     5    16    17    1
     6    16    19    1
     7    21    19    1
     8    29    30    1
     9    31    30    1
    10    31    37   am
    11    30    33    1
    12    22    17   am
    13    22    23    1
    14    38    37    1
    15    38    41    1
    16    24    23    1
    17    24    25    2
    18    17    18    2
    19    19    20    1
    20    26    23    1
    21    26    27    1
    22    26    28    1
    23    35    34    2
    24    41    42    1
    25    33    34    1
    26    77    75   ar
    27    77    78   ar
    28    11    10    2
    29    44    43    1
    30    10     9    1
    31    34    36   am
    32    80    78   ar
    33    80    82   ar
    34    75    74   ar
    35    78    76   ar
    36    42    43    1
    37     9    12    1
    38     9     8    1
    39    82    81   ar
    40    14    12    1
    41    12    13    1
    42    74    76   ar
    43    74    73    1
    44    76    79   ar
    45    72    71    2
    46     8     3   am
    47    96    94    1
    48    71    70    1
    49    95    94    1
    50    81    79   ar
    51    73    70    1
    52   105   107   ar
    53   105   103   ar
    54    89    87    1
    55    94    91    1
    56     3     4    2
    57     3     2    1
    58   107   106   ar
    59    70    69    1
    60   103   102   ar
    61    83    84    1
    62    87    84    1
    63    87    88    1
    64     1     2    1
    65    90    91    1
    66    90    85   am
    67     2     5    1
    68    84    85    1
    69   106   104   ar
    70    91    92    1
    71   102   104   ar
    72   102   101    1
    73    85    86    2
    74    97    92   am
    75    97    98    1
    76    92    93    2
    77   101    98    1
    78     5     6    1
    79     5     7    1
    80    98    99    1
    81    99   100    2
    82   116   113    1
    83    56    55    2
    84   124   123    2
    85   108   109    1
    86    57    54    1
    87   112   113    1
    88   112   110   am
    89   125   123   am
    90    68    67   ar
    91    68    66   ar
    92    54    55    1
    93    54    53    1
    94    55    58   am
    95    67    65   ar
    96   123   122    1
    97   109   110    1
    98   113   114    1
    99    66    64   ar
   100   110   111    2
   101    65    63   ar
   102    58    59    1
   103   114   115    2
   104    64    63   ar
   105   122   121    1
   106    63    62    1
   107    59    60    1
   108    59    62    1
   109    52    50    1
   110    60    61    2
   111   121   118    1
   112    50    51    1
   113    50    49    1
   114    45    46    1
   115    46    49    1
   116    46    47    1
   117    48    47    2
   118   118   117    1
   119   118   119    1
   120   120   119    2
