@<TRIPOS>MOLECULE
tmp/4ktkA02.pdb
 63 59 0 0 0
SMALL
GASTEIGER

@<TRIPOS>ATOM
      1  N         -0.7110   15.0140   -6.5830 N.3    63  GLU63      -0.1245
      2  CA        -0.3690   13.6830   -7.1150 C.3    63  GLU63       0.1567
      3  C         -0.4870   12.5730   -6.0590 C.2    63  GLU63       0.2260
      4  O         -0.4090   11.3970   -6.4360 O.2    63  GLU63      -0.2867
      5  CB         0.9940   13.7250   -7.8200 C.3    63  GLU63       0.0388
      6  CG         0.9980   14.5920   -9.1000 C.3    63  GLU63       0.1160
      7  CD        -0.0010   14.2590  -10.1660 C.2    63  GLU63       0.3649
      8  OE1       -0.3110   15.1900  -10.9590 O.co2  63  GLU63      -0.2457
      9  OE2       -0.5350   13.1540  -10.2360 O.co2  63  GLU63      -0.2457
     10  N         -3.0760   10.0240   -7.1080 N.3    66  ALA66      -0.1231
     11  CA        -2.9370    9.2060   -8.3360 C.3    66  ALA66       0.1694
     12  C         -3.1760    7.7480   -8.0500 C.2    66  ALA66       0.2592
     13  O         -2.7890    7.1880   -7.0360 O.2    66  ALA66      -0.2718
     14  CB        -1.6620    9.4030   -8.9570 C.3    66  ALA66       0.0304
     15  N         -3.8900    7.1290   -8.9890 N.am   67  ALA67      -0.1966
     16  CA        -4.1200    5.6750   -8.9130 C.3    67  ALA67       0.1728
     17  C         -2.8090    4.9070   -8.8550 C.2    67  ALA67       0.2617
     18  O         -1.9220    5.0930   -9.6270 O.2    67  ALA67      -0.2715
     19  CB        -5.0080    5.2250  -10.0880 C.3    67  ALA67       0.0334
     20  N         -2.6760    3.9840   -7.9250 N.am   68  GLY68      -0.1940
     21  CA        -1.5280    3.1690   -7.8180 C.3    68  GLY68       0.2014
     22  C         -0.4000    3.6750   -6.9200 C.2    68  GLY68       0.2639
     23  O          0.6350    3.0540   -6.7800 O.2    68  GLY68      -0.2714
     24  N         -0.5780    4.9400   -6.4730 N.am   69  ALA69      -0.1963
     25  CA         0.4600    5.5440   -5.6120 C.3    69  ALA69       0.1713
     26  C          0.4760    4.9250   -4.2550 C.2    69  ALA69       0.2458
     27  O         -0.5430    4.4680   -3.7610 O.2    69  ALA69      -0.2730
     28  CB         0.1800    6.9890   -5.4290 C.3    69  ALA69       0.0333
     29  N          1.6400    4.8970   -3.5700 N.am   70  PRO70      -0.2727
     30  CA         1.7040    4.5550   -2.1530 C.3    70  PRO70       0.1402
     31  C          0.8930    5.6120   -1.3800 C.2    70  PRO70       0.2269
     32  O          1.0470    6.7770   -1.6460 O.2    70  PRO70      -0.2865
     33  CB         3.2130    4.6090   -1.7910 C.3    70  PRO70       0.0296
     34  CG         3.7250    5.5550   -2.8460 C.3    70  PRO70       0.0237
     35  CD         2.9220    5.3470   -4.1140 C.3    70  PRO70       0.0939
     36  N          3.7820   13.5370   -2.7940 N.3   286  LEU286     -0.1245
     37  CA         4.3280   12.5210   -3.7150 C.3   286  LEU286      0.1561
     38  C          5.5260   13.1400   -4.4650 C.2   286  LEU286      0.2260
     39  O          5.3470   14.2210   -5.0670 O.2   286  LEU286     -0.2867
     40  CB         3.2790   12.0640   -4.7130 C.3   286  LEU286      0.0270
     41  CG         3.6220   10.6950   -5.3440 C.3   286  LEU286      0.0019
     42  CD1        3.1880    9.6210   -4.4200 C.3   286  LEU286      0.0001
     43  CD2        2.9530   10.5950   -6.7120 C.3   286  LEU286      0.0001
     44  N          7.6650   13.9050   -7.4880 N.3   288  THR288     -0.1218
     45  CA         7.4320   13.8740   -8.9210 C.3   288  THR288      0.1862
     46  C          8.7760   13.8460   -9.7090 C.2   288  THR288      0.2287
     47  O          8.7200   13.8930  -10.9440 O.2   288  THR288     -0.2866
     48  CB         6.5190   14.9390   -9.4240 C.3   288  THR288      0.1770
     49  OG1        7.1910   16.2290   -9.1840 O.3   288  THR288     -0.2211
     50  CG2        5.1530   14.8960   -8.7620 C.3   288  THR288      0.0375
     51  N         11.2500    9.3570   -7.6740 N.3   300  LYS300     -0.1231
     52  CA         9.9820    9.6690   -8.2620 C.3   300  LYS300      0.1693
     53  C          8.9100    8.5830   -7.9620 C.2   300  LYS300      0.2592
     54  O          9.1710    7.3780   -8.1060 O.2   300  LYS300     -0.2718
     55  CB        10.1210    9.8310   -9.8010 C.3   300  LYS300      0.0285
     56  CG         8.9000   10.1220  -10.5270 C.3   300  LYS300      0.0035
     57  CD         9.1440   10.2590  -12.0820 C.3   300  LYS300      0.0206
     58  CE         7.8840   10.7340  -12.8010 C.3   300  LYS300      0.1093
     59  NZ         8.2330   11.0550  -14.2140 N.3   300  LYS300     -0.1314
     60  N          7.7350    9.0600   -7.5420 N.am  301  GLY301     -0.1957
     61  CA         6.6230    8.1950   -7.1790 C.3   301  GLY301      0.1869
     62  C          6.6040    7.7630   -5.7100 C.2   301  GLY301      0.2309
     63  O          5.6550    7.0620   -5.3130 O.2   301  GLY301     -0.2863
@<TRIPOS>BOND
     1    59    58    1
     2    58    57    1
     3    57    56    1
     4     8     7   ar
     5    47    46    2
     6    56    55    1
     7     9     7   ar
     8     7     6    1
     9    19    16    1
    10    55    52    1
    11    46    45    1
    12    18    17    2
    13    48    49    1
    14    48    45    1
    15    48    50    1
    16     6     5    1
    17    15    16    1
    18    15    12   am
    19    14    11    1
    20    45    44    1
    21    16    17    1
    22    17    20   am
    23    11    12    1
    24    11    10    1
    25    52    53    1
    26    52    51    1
    27    54    53    2
    28    12    13    2
    29    53    60   am
    30    20    21    1
    31     5     2    1
    32    21    22    1
    33    60    61    1
    34    61    62    1
    35     2     1    1
    36     2     3    1
    37    22    23    2
    38    22    24   am
    39    43    41    1
    40    24    25    1
    41     4     3    2
    42    62    63    2
    43    25    28    1
    44    25    26    1
    45    41    40    1
    46    41    42    1
    47    39    38    2
    48    40    37    1
    49    38    37    1
    50    26    27    2
    51    26    29   am
    52    35    29    1
    53    35    34    1
    54    37    36    1
    55    29    30    1
    56    34    33    1
    57    30    33    1
    58    30    31    1
    59    32    31    2
