@<TRIPOS>MOLECULE
tmp/4ktlA01.pdb
 169 161 0 0 0
SMALL
GASTEIGER

@<TRIPOS>ATOM
      1  N          1.2130   17.7130   -3.5750 N.3    60  MET60      -0.1245
      2  CA        -0.0110   17.3160   -2.8830 C.3    60  MET60       0.1570
      3  C         -0.9670   16.6100   -3.8570 C.2    60  MET60       0.2261
      4  O         -1.4930   15.5450   -3.5130 O.2    60  MET60      -0.2867
      5  CB        -0.6980   18.4720   -2.0870 C.3    60  MET60       0.0387
      6  CG        -2.1910   18.2160   -1.8030 C.3    60  MET60       0.0595
      7  SD        -3.0170   19.6600   -1.1010 S.3    60  MET60      -0.1393
      8  CE        -2.1480   19.9100    0.4280 C.3    60  MET60       0.0692
      9  N         -0.6230   12.9370   -4.8500 N.3    63  THR63      -0.1218
     10  CA        -0.9780   11.9150   -3.8530 C.3    63  THR63       0.1862
     11  C         -2.2500   11.1140   -4.2060 C.2    63  THR63       0.2287
     12  O         -2.4250    9.9700   -3.7100 O.2    63  THR63      -0.2866
     13  CB        -1.0850   12.4460   -2.4300 C.3    63  THR63       0.1770
     14  OG1       -2.2080   13.3060   -2.2700 O.3    63  THR63      -0.2211
     15  CG2        0.2490   13.0730   -1.9330 C.3    63  THR63       0.0375
     16  N         -8.7320    7.8010    0.4590 N.3    74  LEU74      -0.1231
     17  CA        -9.4740    9.0510    0.2190 C.3    74  LEU74       0.1693
     18  C        -10.8650    8.9710    0.8290 C.2    74  LEU74       0.2593
     19  O        -11.5720    7.9450    0.6790 O.2    74  LEU74      -0.2718
     20  CB        -9.6780    9.3030   -1.2690 C.3    74  LEU74       0.0284
     21  CG        -8.3910    9.6350   -2.0100 C.3    74  LEU74       0.0019
     22  CD1       -8.6130    9.6970   -3.5000 C.3    74  LEU74       0.0001
     23  CD2       -7.8100   10.9360   -1.5170 C.3    74  LEU74       0.0001
     24  N        -11.2540   10.0420    1.4730 N.am   75  THR75      -0.1939
     25  CA       -12.6170   10.2370    1.8870 C.3    75  THR75       0.2028
     26  C        -13.3400   11.3460    1.0680 C.2    75  THR75       0.2642
     27  O        -14.5030   11.6590    1.3410 O.2    75  THR75      -0.2714
     28  CB       -12.6840   10.5670    3.3430 C.3    75  THR75       0.1808
     29  OG1      -12.0350   11.8140    3.6480 O.3    75  THR75      -0.2208
     30  CG2      -11.9880    9.4600    4.1850 C.3    75  THR75       0.0379
     31  N        -12.6420   11.8720    0.0560 N.am   76  VAL76      -0.1977
     32  CA       -13.1510   12.8800   -0.9270 C.3    76  VAL76       0.1596
     33  C        -12.9310   12.3650   -2.3470 C.2    76  VAL76       0.2287
     34  O        -12.0820   11.5470   -2.5380 O.2    76  VAL76      -0.2864
     35  CB       -12.4220   14.2190   -0.7840 C.3    76  VAL76       0.0276
     36  CG1      -12.7940   14.8100    0.5760 C.3    76  VAL76       0.0022
     37  CG2      -10.8940   14.1240   -0.8900 C.3    76  VAL76       0.0022
     38  N        -10.7700   16.5780   -5.5780 N.3    80  VAL80      -0.1231
     39  CA       -10.8000   17.4840   -4.4460 C.3    80  VAL80       0.1692
     40  C         -9.4240   17.5100   -3.7430 C.2    80  VAL80       0.2591
     41  O         -9.1200   18.4380   -2.9760 O.2    80  VAL80      -0.2718
     42  CB       -11.9460   17.1070   -3.4920 C.3    80  VAL80       0.0266
     43  CG1      -11.8610   17.8730   -2.2040 C.3    80  VAL80       0.0020
     44  CG2      -13.2900   17.2370   -4.1930 C.3    80  VAL80       0.0020
     45  N         -8.5780   16.5290   -3.9880 N.am   81  VAL81      -0.1980
     46  CA        -7.1910   16.6260   -3.4550 C.3    81  VAL81       0.1595
     47  C         -6.4710   17.8920   -4.0390 C.2    81  VAL81       0.2287
     48  O         -5.6060   18.4630   -3.4060 O.2    81  VAL81      -0.2864
     49  CB        -6.4250   15.3450   -3.7540 C.3    81  VAL81       0.0276
     50  CG1       -4.9440   15.4710   -3.4490 C.3    81  VAL81       0.0022
     51  CG2       -7.0630   14.2640   -2.8770 C.3    81  VAL81       0.0022
     52  N         -8.0780   20.8120   -4.4380 N.3    83  ASN83      -0.1225
     53  CA        -9.1460   21.8130   -4.1760 C.3    83  ASN83       0.1785
     54  C         -8.6280   23.2510   -4.3350 C.2    83  ASN83       0.2597
     55  O         -9.2430   24.0680   -5.0420 O.2    83  ASN83      -0.2718
     56  CB        -9.6810   21.5550   -2.7750 C.3    83  ASN83       0.1169
     57  CG       -11.0250   22.2240   -2.4880 C.2    83  ASN83       0.2627
     58  OD1      -11.9080   22.3870   -3.3840 O.2    83  ASN83      -0.2716
     59  ND2      -11.2190   22.5740   -1.1970 N.am   83  ASN83      -0.0877
     60  N         -7.4680   23.5700   -3.7630 N.am   84  MET84      -0.1979
     61  CA        -6.9790   24.9630   -3.8750 C.3    84  MET84       0.1605
     62  C         -6.5600   25.3340   -5.2920 C.2    84  MET84       0.2287
     63  O         -6.8270   26.4470   -5.7910 O.2    84  MET84      -0.2864
     64  CB        -5.9010   25.2940   -2.8590 C.3    84  MET84       0.0413
     65  CG        -6.5010   25.5670   -1.4700 C.3    84  MET84       0.0598
     66  SD        -7.6890   26.9360   -1.1900 S.3    84  MET84      -0.1393
     67  CE        -7.0730   28.3780   -2.0470 C.3    84  MET84       0.0692
     68  N        -21.1970   14.9260   10.1620 N.3   161  SER161     -0.1202
     69  CA       -20.4330   14.2250    9.1630 C.3   161  SER161      0.2020
     70  C        -18.9420   14.0560    9.5050 C.2   161  SER161      0.2618
     71  O        -18.2570   13.1220    8.9700 O.2   161  SER161     -0.2717
     72  CB       -20.4830   14.9280    7.7740 C.3   161  SER161      0.2103
     73  OG       -21.8090   15.0000    7.2340 O.3   161  SER161     -0.2182
     74  N        -18.4030   14.9350   10.3680 N.am  162  LEU162     -0.1979
     75  CA       -16.9780   15.1250   10.4420 C.3   162  LEU162      0.1596
     76  C        -16.2030   14.0050   11.2070 C.2   162  LEU162      0.2287
     77  O        -15.0310   13.7800   10.9080 O.2   162  LEU162     -0.2864
     78  CB       -16.6040   16.4990   10.9850 C.3   162  LEU162      0.0297
     79  CG       -17.2080   17.7120   10.2120 C.3   162  LEU162      0.0022
     80  CD1      -16.7030   18.9820   10.8810 C.3   162  LEU162      0.0001
     81  CD2      -16.8820   17.6380    8.7160 C.3   162  LEU162      0.0001
     82  N        -15.7650   11.9810    8.1260 N.3   165  ALA165     -0.1231
     83  CA       -15.1240   12.6490    7.0090 C.3   165  ALA165      0.1694
     84  C        -13.6470   12.8290    7.1800 C.2   165  ALA165      0.2592
     85  O        -12.8830   12.7600    6.2200 O.2   165  ALA165     -0.2718
     86  CB       -15.7790   13.9740    6.7560 C.3   165  ALA165      0.0304
     87  N        -13.2120   13.0360    8.4490 N.am  166  PHE166     -0.1976
     88  CA       -11.8180   13.1690    8.8220 C.3   166  PHE166      0.1639
     89  C        -11.0950   11.9580    9.3680 C.2   166  PHE166      0.2290
     90  O        -10.0200   12.0670    9.9860 O.2   166  PHE166     -0.2864
     91  CB       -11.5530   14.4490    9.6250 C.3   166  PHE166      0.0560
     92  CG       -11.6290   15.6850    8.7570 C.ar  166  PHE166     -0.0200
     93  CD1      -12.8560   16.3030    8.4920 C.ar  166  PHE166     -0.0042
     94  CD2      -10.5310   16.1310    8.0510 C.ar  166  PHE166     -0.0042
     95  CE1      -12.9270   17.3930    7.5670 C.ar  166  PHE166     -0.0003
     96  CE2      -10.6330   17.2110    7.1880 C.ar  166  PHE166     -0.0003
     97  CZ       -11.8120   17.8560    6.9810 C.ar  166  PHE166     -0.0000
     98  N        -20.9110   12.8160    2.1290 N.3   180  TRP180     -0.1241
     99  CA       -20.3590   13.7340    1.1530 C.3   180  TRP180      0.1605
    100  C        -21.4650   14.1580    0.1440 C.2   180  TRP180      0.2264
    101  O        -21.7460   15.3680   -0.0340 O.2   180  TRP180     -0.2867
    102  CB       -19.1480   13.1880    0.4540 C.3   180  TRP180      0.0550
    103  CG       -18.6410   14.0360   -0.6820 C.ar  180  TRP180      0.0003
    104  CD1      -19.0100   13.9730   -2.0130 C.ar  180  TRP180      0.0946
    105  CD2      -17.7570   15.1170   -0.5680 C.ar  180  TRP180      0.0152
    106  NE1      -18.3370   14.9130   -2.7460 N.ar  180  TRP180     -0.2442
    107  CE2      -17.5420   15.6280   -1.8820 C.ar  180  TRP180      0.0810
    108  CE3      -17.0260   15.6520    0.5040 C.ar  180  TRP180      0.0012
    109  CZ2      -16.6870   16.6690   -2.1430 C.ar  180  TRP180      0.0191
    110  CZ3      -16.1520   16.7330    0.2340 C.ar  180  TRP180      0.0001
    111  CH2      -16.0350   17.2340   -1.0890 C.ar  180  TRP180      0.0015
    112  N        -24.1360   16.3240    1.8490 N.3   183  ASP183     -0.1239
    113  CA       -23.6820   17.6520    2.2340 C.3   183  ASP183      0.1674
    114  C        -23.4910   18.5280    0.9570 C.2   183  ASP183      0.2266
    115  O        -23.6410   19.7440    1.0200 O.2   183  ASP183     -0.2867
    116  CB       -22.3660   17.5950    3.0320 C.3   183  ASP183      0.1410
    117  CG       -22.5710   16.9430    4.3690 C.2   183  ASP183      0.3668
    118  OD1      -23.7450   16.8830    4.7740 O.co2 183  ASP183     -0.2456
    119  OD2      -21.5900   16.5100    5.0650 O.co2 183  ASP183     -0.2456
    120  N        -18.6220   22.8180    1.2610 N.3   226  VAL226     -0.1231
    121  CA       -18.4690   21.5730    2.0630 C.3   226  VAL226      0.1692
    122  C        -17.0780   21.5240    2.6540 C.2   226  VAL226      0.2593
    123  O        -16.9530   21.2700    3.8590 O.2   226  VAL226     -0.2718
    124  CB       -18.7870   20.2820    1.2410 C.3   226  VAL226      0.0266
    125  CG1      -18.4400   19.0050    2.0140 C.3   226  VAL226      0.0020
    126  CG2      -20.2110   20.2260    0.7840 C.3   226  VAL226      0.0020
    127  N        -16.0370   21.7040    1.8220 N.am  227  THR227     -0.1939
    128  CA       -14.6660   21.5410    2.2540 C.3   227  THR227      0.2028
    129  C        -14.2210   22.6210    3.2240 C.2   227  THR227      0.2642
    130  O        -13.5080   22.3190    4.2400 O.2   227  THR227     -0.2714
    131  CB       -13.6810   21.4000    1.0570 C.3   227  THR227      0.1808
    132  OG1      -13.8400   22.5210    0.2150 O.3   227  THR227     -0.2208
    133  CG2      -14.0110   20.1590    0.2440 C.3   227  THR227      0.0379
    134  N        -14.5750   23.8820    2.9680 N.am  228  PHE228     -0.1973
    135  CA       -14.1500   24.9200    3.8930 C.3   228  PHE228      0.1639
    136  C        -14.8640   24.7880    5.2310 C.2   228  PHE228      0.2290
    137  O        -14.2800   24.9940    6.2710 O.2   228  PHE228     -0.2864
    138  CB       -14.2280   26.3450    3.3230 C.3   228  PHE228      0.0560
    139  CG       -13.0170   26.6920    2.4760 C.ar  228  PHE228     -0.0200
    140  CD1      -12.7210   25.9420    1.3310 C.ar  228  PHE228     -0.0042
    141  CD2      -12.0790   27.6560    2.9000 C.ar  228  PHE228     -0.0042
    142  CE1      -11.5790   26.1890    0.5750 C.ar  228  PHE228     -0.0003
    143  CE2      -10.9520   27.9140    2.1230 C.ar  228  PHE228     -0.0003
    144  CZ       -10.6900   27.1950    0.9770 C.ar  228  PHE228     -0.0000
    145  N        -15.8880   21.8930    6.5390 N.3   230  GLY230     -0.1210
    146  CA       -15.3120   20.7240    7.1890 C.3   230  GLY230      0.1956
    147  C        -13.9060   20.9310    7.7300 C.2   230  GLY230      0.2611
    148  O        -13.6250   20.6620    8.9190 O.2   230  GLY230     -0.2717
    149  N        -12.9840   21.3740    6.8620 N.am  231  ALA231     -0.1979
    150  CA       -11.5870   21.6280    7.2480 C.3   231  ALA231      0.1597
    151  C        -11.5040   22.6750    8.3680 C.2   231  ALA231      0.2287
    152  O        -10.7800   22.5290    9.3630 O.2   231  ALA231     -0.2864
    153  CB       -10.7550   22.0270    6.0620 C.3   231  ALA231      0.0319
    154  N          1.0780   14.5160    3.7650 N.3   283  PRO283     -0.2116
    155  CA         1.4910   13.6850    2.6600 C.3   283  PRO283      0.1372
    156  C          1.8650   14.4770    1.3780 C.2   283  PRO283      0.2244
    157  O          1.2120   15.4490    1.0300 O.2   283  PRO283     -0.2868
    158  CB         0.2940   12.7260    2.4570 C.3   283  PRO283      0.0268
    159  CG        -0.8710   13.5240    2.8510 C.3   283  PRO283      0.0207
    160  CD        -0.3940   14.4130    3.9850 C.3   283  PRO283      0.0892
    161  N         -7.5990   11.9780   11.3790 N.3   383  GLN383     -0.1245
    162  CA        -6.6060   12.8880   10.8570 C.3   383  GLN383      0.1566
    163  C         -6.2090   13.9430   11.9050 C.2   383  GLN383      0.2260
    164  O         -5.2620   14.7380   11.6820 O.2   383  GLN383     -0.2867
    165  CB        -7.1740   13.6210    9.5960 C.3   383  GLN383      0.0367
    166  CG        -7.3450   12.6980    8.4190 C.3   383  GLN383      0.0905
    167  CD        -7.9790   13.3740    7.2300 C.2   383  GLN383      0.2608
    168  OE1       -7.5860   14.5290    6.8950 O.2   383  GLN383     -0.2717
    169  NE2       -8.9860   12.7080    6.5940 N.am  383  GLN383     -0.0878
@<TRIPOS>BOND
     1    63    62    2
     2    38    39    1
     3    62    61    1
     4    55    54    2
     5     9    10    1
     6    39    40    1
     7    39    42    1
     8    52    53    1
     9    54    53    1
    10    54    60   am
    11    11    10    1
    12    11    12    2
    13    44    42    1
    14    53    56    1
    15    47    46    1
    16    47    48    2
    17    45    40   am
    18    45    46    1
    19    61    60    1
    20    61    64    1
    21     3     4    2
    22     3     2    1
    23    10    13    1
    24    49    46    1
    25    49    50    1
    26    49    51    1
    27    40    41    2
    28     1     2    1
    29    22    21    1
    30    42    43    1
    31    58    57    2
    32     2     5    1
    33    64    65    1
    34    56    57    1
    35   106   104   ar
    36   106   107   ar
    37    34    33    2
    38    57    59   am
    39    13    14    1
    40    13    15    1
    41    33    32    1
    42   109   107   ar
    43   109   111   ar
    44     5     6    1
    45    67    66    1
    46   104   103   ar
    47    21    23    1
    48    21    20    1
    49   107   105   ar
    50     6     7    1
    51    65    66    1
    52    20    17    1
    53     7     8    1
    54   111   110   ar
    55    32    35    1
    56    32    31    1
    57    37    35    1
    58    35    36    1
    59   103   105   ar
    60   103   102    1
    61   105   108   ar
    62   101   100    2
    63    31    26   am
    64   100    99    1
    65   132   131    1
    66    17    16    1
    67    17    18    1
    68   110   108   ar
    69   133   131    1
    70   102    99    1
    71   142   144   ar
    72   142   140   ar
    73    19    18    2
    74   126   124    1
    75    18    24   am
    76   114   115    2
    77   114   113    1
    78   144   143   ar
    79   157   156    2
    80   131   128    1
    81    26    27    2
    82    26    25    1
    83    99    98    1
    84   124   125    1
    85   124   121    1
    86   120   121    1
    87   140   139   ar
    88   156   155    1
    89    24    25    1
    90   127   128    1
    91   127   122   am
    92   112   113    1
    93    25    28    1
    94   121   122    1
    95   143   141   ar
    96   113   116    1
    97   128   129    1
    98   158   155    1
    99   158   159    1
   100   139   141   ar
   101   139   138    1
   102   122   123    2
   103   155   154    1
   104   159   160    1
   105   134   129   am
   106   134   135    1
   107   116   117    1
   108   129   130    2
   109   138   135    1
   110    28    29    1
   111    28    30    1
   112   154   160    1
   113   135   136    1
   114   117   118   ar
   115   117   119   ar
   116   136   137    2
   117   153   150    1
   118    85    84    2
   119   145   146    1
   120   169   167   am
   121    86    83    1
   122   149   150    1
   123   149   147   am
   124   168   167    2
   125    97    96   ar
   126    97    95   ar
   127    83    84    1
   128    83    82    1
   129    84    87   am
   130    96    94   ar
   131   146   147    1
   132   167   166    1
   133    73    72    1
   134   150   151    1
   135    95    93   ar
   136   147   148    2
   137    72    69    1
   138    94    92   ar
   139   151   152    2
   140   166   165    1
   141    87    88    1
   142    93    92   ar
   143    81    79    1
   144    92    91    1
   145    88    89    1
   146    88    91    1
   147    71    70    2
   148    69    70    1
   149    69    68    1
   150    89    90    2
   151    70    74   am
   152   165   162    1
   153    79    80    1
   154    79    78    1
   155    74    75    1
   156    75    78    1
   157    75    76    1
   158   162   161    1
   159   162   163    1
   160    77    76    2
   161   164   163    2
