@<TRIPOS>MOLECULE
tmp/4ktnA00.pdb
 127 117 0 0 0
SMALL
GASTEIGER

@<TRIPOS>ATOM
      1  N        -12.7330    4.1510  -10.4630 N.3    28  ILE28      -0.1245
      2  CA       -13.0310    2.7330  -10.2740 C.3    28  ILE28       0.1561
      3  C        -14.0720    2.2790  -11.2970 C.2    28  ILE28       0.2260
      4  O        -13.8770    1.2600  -11.9770 O.2    28  ILE28      -0.2867
      5  CB       -13.4650    2.4110   -8.8230 C.3    28  ILE28       0.0252
      6  CG1      -12.3590    2.8200   -7.8250 C.3    28  ILE28       0.0019
      7  CG2      -13.8190    0.9280   -8.6690 C.3    28  ILE28       0.0019
      8  CD1      -11.0150    2.1350   -8.0480 C.3    28  ILE28       0.0001
      9  N        -13.0030    1.4240  -14.8960 N.3    31  ASN31      -0.1225
     10  CA       -12.4970    0.0710  -15.1280 C.3    31  ASN31       0.1785
     11  C        -13.5960   -0.9610  -15.4050 C.2    31  ASN31       0.2597
     12  O        -13.4370   -1.8260  -16.2720 O.2    31  ASN31      -0.2718
     13  CB       -11.6330   -0.3720  -13.9680 C.3    31  ASN31       0.1169
     14  CG       -10.3580    0.4410  -13.8560 C.2    31  ASN31       0.2627
     15  OD1       -9.4160    0.2460  -14.6210 O.2    31  ASN31      -0.2716
     16  ND2      -10.3210    1.3440  -12.8910 N.am   31  ASN31      -0.0877
     17  N        -14.7050   -0.8590  -14.6760 N.am   32  SER32      -0.1952
     18  CA       -15.8550   -1.7310  -14.9130 C.3    32  SER32       0.1924
     19  C        -16.4910   -1.4410  -16.2730 C.2    32  SER32       0.2314
     20  O        -16.9030   -2.3610  -16.9860 O.2    32  SER32      -0.2863
     21  CB       -16.8800   -1.5930  -13.7930 C.3    32  SER32       0.2116
     22  OG       -16.3500   -2.1080  -12.5840 O.3    32  SER32      -0.2180
     23  N        -14.6100   -3.1440  -18.9700 N.3    35  GLU35      -0.1245
     24  CA       -14.9320   -4.5610  -19.0200 C.3    35  GLU35       0.1567
     25  C        -16.2990   -4.8070  -19.6850 C.2    35  GLU35       0.2260
     26  O        -16.5210   -5.8590  -20.2970 O.2    35  GLU35      -0.2867
     27  CB       -14.8490   -5.1560  -17.6120 C.3    35  GLU35       0.0388
     28  CG       -15.0970   -6.6550  -17.5270 C.3    35  GLU35       0.1160
     29  CD       -14.1040   -7.5030  -18.3090 C.2    35  GLU35       0.3649
     30  OE1      -13.1850   -6.9680  -18.9820 O.co2  35  GLU35      -0.2457
     31  OE2      -14.2580   -8.7330  -18.2530 O.co2  35  GLU35      -0.2457
     32  N        -18.1180   -0.7710   -5.6260 N.3    56  VAL56      -0.1245
     33  CA       -18.4270   -0.9140   -7.0540 C.3    56  VAL56       0.1561
     34  C        -18.3900   -2.4050   -7.3940 C.2    56  VAL56       0.2260
     35  O        -17.3850   -3.0750   -7.1510 O.2    56  VAL56      -0.2867
     36  CB       -17.4300   -0.1370   -7.9420 C.3    56  VAL56       0.0252
     37  CG1      -17.7220   -0.3790   -9.4230 C.3    56  VAL56       0.0019
     38  CG2      -17.4730    1.3580   -7.6260 C.3    56  VAL56       0.0019
     39  N        -19.0530   -5.2870  -10.4200 N.3    58  ASP58      -0.1239
     40  CA       -19.3650   -5.6360  -11.8060 C.3    58  ASP58       0.1674
     41  C        -19.4420   -7.1520  -11.9670 C.2    58  ASP58       0.2266
     42  O        -19.0130   -7.9020  -11.0650 O.2    58  ASP58      -0.2867
     43  CB       -18.4060   -4.9580  -12.8170 C.3    58  ASP58       0.1410
     44  CG       -16.9920   -5.5630  -12.8460 C.2    58  ASP58       0.3668
     45  OD1      -16.0310   -4.7700  -12.7740 O.co2  58  ASP58      -0.2456
     46  OD2      -16.8220   -6.8060  -12.9780 O.co2  58  ASP58      -0.2456
     47  N        -15.3010  -10.5160  -16.2140 N.3    61  ARG61      -0.1231
     48  CA       -14.4890  -11.7340  -16.1310 C.3    61  ARG61       0.1694
     49  C        -13.7810  -11.8430  -14.7960 C.2    61  ARG61       0.2593
     50  O        -13.4420  -12.9490  -14.3530 O.2    61  ARG61      -0.2718
     51  CB       -13.4480  -11.7630  -17.2420 C.3    61  ARG61       0.0321
     52  CG       -14.0140  -12.0340  -18.6250 C.3    61  ARG61       0.0489
     53  CD       -12.9610  -11.7690  -19.6920 C.3    61  ARG61       0.2205
     54  NE       -12.6410  -10.3490  -19.8410 N.pl3  61  ARG61      -0.0865
     55  CZ       -11.7150   -9.8620  -20.6660 C.cat  61  ARG61       0.5346
     56  NH1      -11.5000   -8.5520  -20.7370 N.pl3  61  ARG61       0.1354
     57  NH2      -10.9910  -10.6880  -21.4230 N.pl3  61  ARG61       0.1354
     58  N        -13.5450  -10.6890  -14.1700 N.am   62  GLY62      -0.1942
     59  CA       -12.7170  -10.6080  -12.9640 C.3    62  GLY62       0.2014
     60  C        -11.2990  -10.2250  -13.3430 C.2    62  GLY62       0.2639
     61  O        -10.7250  -10.8070  -14.2730 O.2    62  GLY62      -0.2714
     62  N        -10.7290   -9.2470  -12.6380 N.am   63  ILE63      -0.1963
     63  CA        -9.3320   -8.8280  -12.8810 C.3    63  ILE63       0.1712
     64  C         -8.4220  -10.0580  -12.8830 C.2    63  ILE63       0.2458
     65  O         -8.5710  -10.9300  -12.0210 O.2    63  ILE63      -0.2730
     66  CB        -8.7980   -7.8380  -11.8030 C.3    63  ILE63       0.0289
     67  CG1       -9.7770   -6.6830  -11.5600 C.3    63  ILE63       0.0022
     68  CG2       -7.4240   -7.2900  -12.2010 C.3    63  ILE63       0.0023
     69  CD1       -9.3830   -5.7630  -10.4170 C.3    63  ILE63       0.0001
     70  N         -7.4820  -10.1430  -13.8540 N.am   64  PRO64      -0.2727
     71  CA        -6.5560  -11.2800  -13.8640 C.3    64  PRO64       0.1402
     72  C         -5.8440  -11.4380  -12.5190 C.2    64  PRO64       0.2269
     73  O         -5.4540  -10.4390  -11.8930 O.2    64  PRO64      -0.2865
     74  CB        -5.5680  -10.9260  -14.9850 C.3    64  PRO64       0.0296
     75  CG        -6.3710  -10.0750  -15.9130 C.3    64  PRO64       0.0237
     76  CD        -7.3100   -9.2830  -15.0370 C.3    64  PRO64       0.0939
     77  N         -2.3190   -3.9360  -10.2870 N.3    79  VAL79      -0.1231
     78  CA        -3.3740   -2.9740  -10.6360 C.3    79  VAL79       0.1692
     79  C         -3.5260   -1.9140   -9.5330 C.2    79  VAL79       0.2592
     80  O         -3.6220   -0.7140   -9.8090 O.2    79  VAL79      -0.2718
     81  CB        -4.7140   -3.6960  -10.9190 C.3    79  VAL79       0.0266
     82  CG1       -5.9100   -2.7560  -10.8030 C.3    79  VAL79       0.0020
     83  CG2       -4.6780   -4.3510  -12.2960 C.3    79  VAL79       0.0020
     84  N         -3.5190   -2.3610   -8.2820 N.am   80  PHE80      -0.1976
     85  CA        -3.7850   -1.4610   -7.1710 C.3    80  PHE80       0.1639
     86  C         -2.5550   -0.8570   -6.5010 C.2    80  PHE80       0.2290
     87  O         -2.6890    0.0590   -5.7020 O.2    80  PHE80      -0.2864
     88  CB        -4.6920   -2.1460   -6.1400 C.3    80  PHE80       0.0560
     89  CG        -6.0760   -2.4140   -6.6610 C.ar   80  PHE80      -0.0200
     90  CD1       -7.0110   -1.3810   -6.7600 C.ar   80  PHE80      -0.0042
     91  CD2       -6.4330   -3.6880   -7.0870 C.ar   80  PHE80      -0.0042
     92  CE1       -8.2870   -1.6290   -7.2580 C.ar   80  PHE80      -0.0003
     93  CE2       -7.6970   -3.9360   -7.5840 C.ar   80  PHE80      -0.0003
     94  CZ        -8.6240   -2.9070   -7.6650 C.ar   80  PHE80      -0.0000
     95  N         -9.0230    4.4670  -17.2180 N.3    85  GLY85      -0.1225
     96  CA        -8.9090    3.0480  -16.8880 C.3    85  GLY85       0.1811
     97  C         -7.5570    2.6220  -16.3350 C.2    85  GLY85       0.2280
     98  O         -7.2300    1.4330  -16.3510 O.2    85  GLY85      -0.2866
     99  N         -6.7520    2.9360  -10.7820 N.3    88  SER88      -0.1217
    100  CA        -7.0660    2.1270   -9.5890 C.3    88  SER88       0.1889
    101  C         -6.0750    2.3560   -8.4470 C.2    88  SER88       0.2288
    102  O         -6.4660    2.4370   -7.2860 O.2    88  SER88      -0.2866
    103  CB        -7.1130    0.6300   -9.9150 C.3    88  SER88       0.2089
    104  OG        -8.1890    0.3310  -10.7850 O.3    88  SER88      -0.2183
    105  N        -13.7930  -15.6090   -9.9960 N.3   104  LYS104     -0.1245
    106  CA       -13.2070  -16.1510  -11.2150 C.3   104  LYS104      0.1561
    107  C        -12.9200  -17.6300  -11.0180 C.2   104  LYS104      0.2260
    108  O        -12.3900  -18.0230   -9.9770 O.2   104  LYS104     -0.2867
    109  CB       -11.8950  -15.4090  -11.5160 C.3   104  LYS104      0.0271
    110  CG       -11.3470  -15.5230  -12.9230 C.3   104  LYS104      0.0035
    111  CD       -10.0680  -14.7070  -13.0160 C.3   104  LYS104      0.0206
    112  CE        -9.6200  -14.5040  -14.4510 C.3   104  LYS104      0.1093
    113  NZ       -10.2700  -13.3290  -15.0680 N.3   104  LYS104     -0.1314
    114  N        -15.7720   -8.4370  -10.5710 N.3   133  THR133     -0.1218
    115  CA       -14.8820   -7.7530   -9.6390 C.3   133  THR133      0.1862
    116  C        -15.6940   -6.8410   -8.7260 C.2   133  THR133      0.2287
    117  O        -16.5970   -6.1270   -9.1760 O.2   133  THR133     -0.2866
    118  CB       -13.8200   -6.9280  -10.4040 C.3   133  THR133      0.1770
    119  OG1      -13.0890   -7.7920  -11.2770 O.3   133  THR133     -0.2211
    120  CG2      -12.8300   -6.2380   -9.4460 C.3   133  THR133      0.0375
    121  N        -14.8790   -3.8820   -5.8380 N.3   135  VAL135     -0.1245
    122  CA       -13.9050   -2.9920   -5.2100 C.3   135  VAL135      0.1561
    123  C        -14.6180   -2.1300   -4.1780 C.2   135  VAL135      0.2260
    124  O        -15.6370   -1.5010   -4.4830 O.2   135  VAL135     -0.2867
    125  CB       -13.2020   -2.0750   -6.2480 C.3   135  VAL135      0.0252
    126  CG1      -12.3250   -1.0220   -5.5660 C.3   135  VAL135      0.0019
    127  CG2      -12.3840   -2.9070   -7.2260 C.3   135  VAL135      0.0019
@<TRIPOS>BOND
     1    57    55    1
     2    56    55    1
     3    55    54    2
     4    26    25    2
     5    54    53    1
     6    53    52    1
     7    25    24    1
     8    24    23    1
     9    24    27    1
    10    30    29   ar
    11    52    51    1
    12    29    31   ar
    13    29    28    1
    14    27    28    1
    15    51    48    1
    16    95    96    1
    17    20    19    2
    18    96    97    1
    19    98    97    2
    20    19    18    1
    21    12    11    2
    22    47    48    1
    23    48    49    1
    24    75    76    1
    25    75    74    1
    26    11    10    1
    27    11    17   am
    28    10     9    1
    29    10    13    1
    30   113   112    1
    31    76    70    1
    32    74    71    1
    33    18    17    1
    34    18    21    1
    35    49    50    2
    36    49    58   am
    37    15    14    2
    38   112   111    1
    39    61    60    2
    40    58    59    1
    41    13    14    1
    42    71    70    1
    43    71    72    1
    44    14    16   am
    45    70    64   am
    46    21    22    1
    47    60    59    1
    48    60    62   am
    49   111   110    1
    50    46    44   ar
    51   110   109    1
    52    64    63    1
    53    64    65    2
    54    63    62    1
    55    63    66    1
    56    44    43    1
    57    44    45   ar
    58    43    40    1
    59    72    73    2
    60    83    81    1
    61    68    66    1
    62     4     3    2
    63    41    40    1
    64    41    42    2
    65    40    39    1
    66    66    67    1
    67    67    69    1
    68   109   106    1
    69     3     2    1
    70   119   118    1
    71   106   107    1
    72   106   105    1
    73   107   108    2
    74    81    82    1
    75    81    78    1
    76   104   103    1
    77    99   100    1
    78    78    77    1
    79    78    79    1
    80   114   115    1
    81     1     2    1
    82   118   115    1
    83   118   120    1
    84     2     5    1
    85   103   100    1
    86    80    79    2
    87   115   116    1
    88   100   101    1
    89    79    84   am
    90    37    36    1
    91   117   116    2
    92     5     7    1
    93     5     6    1
    94   101   102    2
    95    84    85    1
    96     8     6    1
    97    36    38    1
    98    36    33    1
    99    94    93   ar
   100    94    92   ar
   101    93    91   ar
   102    34    35    2
   103    34    33    1
   104    92    90   ar
   105   127   125    1
   106    85    86    1
   107    85    88    1
   108    91    89   ar
   109    33    32    1
   110    90    89   ar
   111    89    88    1
   112    86    87    2
   113   125   126    1
   114   125   122    1
   115   121   122    1
   116   122   123    1
   117   124   123    2
