@<TRIPOS>MOLECULE
tmp/4ktoA02.pdb
 129 124 0 0 0
SMALL
GASTEIGER

@<TRIPOS>ATOM
      1  N         65.9680   39.6890  109.8940 N.3   251  TYR251     -0.1241
      2  CA        64.5500   40.0190  110.0770 C.3   251  TYR251      0.1605
      3  C         63.6520   39.4520  108.9680 C.2   251  TYR251      0.2264
      4  O         62.5610   38.9630  109.2290 O.2   251  TYR251     -0.2867
      5  CB        64.3570   41.5370  110.1690 C.3   251  TYR251      0.0534
      6  CG        63.0450   41.9140  110.7970 C.ar  251  TYR251     -0.0201
      7  CD1       62.9180   41.9490  112.1780 C.ar  251  TYR251     -0.0009
      8  CD2       61.9350   42.2200  110.0220 C.ar  251  TYR251     -0.0009
      9  CE1       61.7300   42.2790  112.7800 C.ar  251  TYR251      0.0417
     10  CE2       60.7180   42.5560  110.6210 C.ar  251  TYR251      0.0417
     11  CZ        60.6320   42.5790  112.0070 C.ar  251  TYR251      0.1957
     12  OH        59.4610   42.9030  112.6500 O.3   251  TYR251     -0.2866
     13  N         60.7680   37.2800  110.4210 N.3   255  ARG255     -0.1245
     14  CA        59.4100   37.8040  110.4440 C.3   255  ARG255      0.1563
     15  C         58.4910   37.0620  109.4700 C.2   255  ARG255      0.2260
     16  O         58.7560   37.0120  108.2680 O.2   255  ARG255     -0.2867
     17  CB        59.3830   39.2990  110.1620 C.3   255  ARG255      0.0307
     18  CG        57.9780   39.8810  110.1780 C.3   255  ARG255      0.0489
     19  CD        57.3800   39.8440  111.5760 C.3   255  ARG255      0.2205
     20  NE        56.3410   40.8570  111.7240 N.pl3 255  ARG255     -0.0865
     21  CZ        55.2130   40.6870  112.4020 C.cat 255  ARG255      0.5346
     22  NH1       54.9650   39.5300  113.0050 N.pl3 255  ARG255      0.1354
     23  NH2       54.3310   41.6780  112.4700 N.pl3 255  ARG255      0.1354
     24  N         54.5660   36.7660  107.8870 N.3   257  GLN257     -0.1231
     25  CA        53.2370   37.3080  107.6590 C.3   257  GLN257      0.1698
     26  C         52.6580   36.5280  106.4880 C.2   257  GLN257      0.2592
     27  O         53.3980   36.1030  105.5950 O.2   257  GLN257     -0.2718
     28  CB        53.3000   38.8070  107.3380 C.3   257  GLN257      0.0381
     29  CG        53.5850   39.7080  108.5410 C.3   257  GLN257      0.0905
     30  CD        52.3950   39.8170  109.4880 C.2   257  GLN257      0.2608
     31  OE1       51.4290   40.5300  109.2110 O.2   257  GLN257     -0.2717
     32  NE2       52.4630   39.1090  110.6120 N.am  257  GLN257     -0.0878
     33  N         51.3440   36.3220  106.5030 N.am  258  PHE258     -0.1976
     34  CA        50.6680   35.5360  105.4700 C.3   258  PHE258      0.1639
     35  C         51.2350   34.1210  105.3730 C.2   258  PHE258      0.2290
     36  O         51.2810   33.5360  104.2920 O.2   258  PHE258     -0.2864
     37  CB        50.7280   36.2420  104.1070 C.3   258  PHE258      0.0560
     38  CG        50.1820   37.6440  104.1250 C.ar  258  PHE258     -0.0200
     39  CD1       48.8110   37.8680  104.1480 C.ar  258  PHE258     -0.0042
     40  CD2       51.0370   38.7360  104.1140 C.ar  258  PHE258     -0.0042
     41  CE1       48.3060   39.1580  104.1690 C.ar  258  PHE258     -0.0003
     42  CE2       50.5380   40.0280  104.1350 C.ar  258  PHE258     -0.0003
     43  CZ        49.1710   40.2390  104.1600 C.ar  258  PHE258     -0.0000
     44  N         58.7560   37.1290  105.3970 N.3   262  ILE262     -0.1245
     45  CA        58.4920   38.2400  104.4880 C.3   262  ILE262      0.1561
     46  C         59.5910   38.4130  103.4300 C.2   262  ILE262      0.2260
     47  O         59.4650   39.2310  102.5210 O.2   262  ILE262     -0.2867
     48  CB        58.2470   39.5590  105.2510 C.3   262  ILE262      0.0252
     49  CG1       59.5090   39.9790  106.0070 C.3   262  ILE262      0.0019
     50  CG2       57.0570   39.4040  106.1960 C.3   262  ILE262      0.0019
     51  CD1       59.3640   41.2670  106.7720 C.3   262  ILE262      0.0001
     52  N         58.4230   37.3370   99.7660 N.3   265  PHE265     -0.1241
     53  CA        57.5230   38.1840   98.9870 C.3   265  PHE265      0.1605
     54  C         58.2980   38.9600   97.9300 C.2   265  PHE265      0.2264
     55  O         59.3320   39.5540   98.2340 O.2   265  PHE265     -0.2867
     56  CB        56.7410   39.1350   99.8980 C.3   265  PHE265      0.0534
     57  CG        55.7620   38.4320  100.8050 C.ar  265  PHE265     -0.0203
     58  CD1       54.7540   37.6320  100.2740 C.ar  265  PHE265     -0.0042
     59  CD2       55.8410   38.5770  102.1860 C.ar  265  PHE265     -0.0042
     60  CE1       53.8480   36.9800  101.1040 C.ar  265  PHE265     -0.0003
     61  CE2       54.9390   37.9310  103.0200 C.ar  265  PHE265     -0.0003
     62  CZ        53.9390   37.1290  102.4770 C.ar  265  PHE265     -0.0000
     63  N         58.1400   41.8300   96.3740 N.3   267  LEU267     -0.1245
     64  CA        58.5340   43.2290   96.5840 C.3   267  LEU267      0.1561
     65  C         59.7060   43.3440   97.5560 C.2   267  LEU267      0.2260
     66  O         60.5700   44.2090   97.4040 O.2   267  LEU267     -0.2867
     67  CB        57.3590   44.0760   97.1040 C.3   267  LEU267      0.0270
     68  CG        56.3080   44.6250   96.1330 C.3   267  LEU267      0.0019
     69  CD1       55.2700   45.4630   96.8710 C.3   267  LEU267      0.0001
     70  CD2       56.9530   45.4210   94.9940 C.3   267  LEU267      0.0001
     71  N         63.4030   44.7680   97.0380 N.3   270  LYS270     -0.1245
     72  CA        63.9700   45.7670   97.9390 C.3   270  LYS270      0.1561
     73  C         65.3640   45.3040   98.4080 C.2   270  LYS270      0.2260
     74  O         66.3270   46.0780   98.4310 O.2   270  LYS270     -0.2867
     75  CB        63.0230   45.9820   99.1330 C.3   270  LYS270      0.0271
     76  CG        63.4500   47.0770  100.1110 C.3   270  LYS270      0.0035
     77  CD        62.4290   47.2610  101.2470 C.3   270  LYS270      0.0206
     78  CE        60.9960   47.4980  100.7290 C.3   270  LYS270      0.1093
     79  NZ        60.8250   48.7500   99.8950 N.3   270  LYS270     -0.1314
     80  N         61.7710   50.6830  106.6040 N.3   319  GLN319     -0.1231
     81  CA        60.6450   50.1290  105.8550 C.3   319  GLN319      0.1698
     82  C         60.5270   48.5920  105.9360 C.2   319  GLN319      0.2592
     83  O         59.4370   48.0400  106.1190 O.2   319  GLN319     -0.2718
     84  CB        60.7400   50.5450  104.3930 C.3   319  GLN319      0.0381
     85  CG        59.4580   50.2910  103.6330 C.3   319  GLN319      0.0905
     86  CD        58.3610   51.2730  104.0330 C.2   319  GLN319      0.2608
     87  OE1       58.6410   52.4010  104.4630 O.2   319  GLN319     -0.2717
     88  NE2       57.1130   50.8470  103.9000 N.am  319  GLN319     -0.0878
     89  N         61.6520   47.9070  105.8020 N.am  320  ALA320     -0.1966
     90  CA        61.6500   46.4530  105.7600 C.3   320  ALA320      0.1728
     91  C         61.3260   45.9030  107.1230 C.2   320  ALA320      0.2616
     92  O         60.7860   44.8040  107.2600 O.2   320  ALA320     -0.2715
     93  CB        63.0160   45.9310  105.2820 C.3   320  ALA320      0.0334
     94  N         61.6580   46.6520  108.1560 N.am  321  LEU321     -0.1963
     95  CA        61.3640   46.1450  109.4880 C.3   321  LEU321      0.1728
     96  C         59.9750   46.5260  109.9670 C.2   321  LEU321      0.2617
     97  O         59.4710   45.9680  110.9500 O.2   321  LEU321     -0.2715
     98  CB        62.4130   46.6080  110.4890 C.3   321  LEU321      0.0311
     99  CG        63.4830   45.5620  110.8010 C.3   321  LEU321      0.0022
    100  CD1       64.4410   45.4410  109.6540 C.3   321  LEU321      0.0001
    101  CD2       64.2160   45.9310  112.0610 C.3   321  LEU321      0.0001
    102  N         59.3520   47.4750  109.2750 N.am  322  GLY322     -0.1940
    103  CA        58.0270   47.9190  109.6590 C.3   322  GLY322      0.2014
    104  C         58.0110   48.6580  110.9880 C.2   322  GLY322      0.2639
    105  O         58.9630   49.3770  111.3520 O.2   322  GLY322     -0.2714
    106  N         56.9200   48.4620  111.7160 N.am  323  GLY323     -0.1939
    107  CA        56.7030   49.1100  113.0040 C.3   323  GLY323      0.2014
    108  C         57.8660   48.9380  113.9530 C.2   323  GLY323      0.2638
    109  O         58.3480   49.9040  114.5520 O.2   323  GLY323     -0.2714
    110  N         58.3200   47.6990  114.0880 N.am  324  ASN324     -0.1972
    111  CA        59.5380   47.4010  114.8310 C.3   324  ASN324      0.1688
    112  C         60.7020   48.3100  114.4030 C.2   324  ASN324      0.2292
    113  O         61.4640   48.7940  115.2350 O.2   324  ASN324     -0.2864
    114  CB        59.9380   45.9390  114.6250 C.3   324  ASN324      0.1181
    115  CG        59.2670   45.0040  115.6050 C.2   324  ASN324      0.2629
    116  OD1       58.8150   45.4150  116.6770 O.2   324  ASN324     -0.2716
    117  ND2       59.2050   43.7260  115.2430 N.am  324  ASN324     -0.0877
    118  N         60.4750   51.2000  113.2410 N.3   326  TYR326     -0.1241
    119  CA        60.1990   52.5590  113.6960 C.3   326  TYR326      0.1605
    120  C         60.4220   52.7610  115.2140 C.2   326  TYR326      0.2264
    121  O         60.2280   53.8690  115.7250 O.2   326  TYR326     -0.2867
    122  CB        58.7610   52.9430  113.3480 C.3   326  TYR326      0.0534
    123  CG        58.5030   54.4350  113.3160 C.ar  326  TYR326     -0.0201
    124  CD1       59.1530   55.2480  112.3980 C.ar  326  TYR326     -0.0009
    125  CD2       57.5990   55.0290  114.1930 C.ar  326  TYR326     -0.0009
    126  CE1       58.9220   56.6080  112.3490 C.ar  326  TYR326      0.0417
    127  CE2       57.3650   56.3890  114.1540 C.ar  326  TYR326      0.0417
    128  CZ        58.0390   57.1720  113.2220 C.ar  326  TYR326      0.1957
    129  OH        57.8210   58.5180  113.1600 O.3   326  TYR326     -0.2866
@<TRIPOS>BOND
     1    70    68    1
     2    68    69    1
     3    68    67    1
     4    63    64    1
     5    64    67    1
     6    64    65    1
     7    71    72    1
     8    66    65    2
     9    54    55    2
    10    54    53    1
    11    72    73    1
    12    72    75    1
    13    73    74    2
    14    53    52    1
    15    53    56    1
    16    75    76    1
    17    79    78    1
    18    56    57    1
    19    76    77    1
    20    58    57   ar
    21    58    60   ar
    22    78    77    1
    23    57    59   ar
    24    60    62   ar
    25    59    61   ar
    26    62    61   ar
    27    47    46    2
    28    46    45    1
    29    85    86    1
    30    85    84    1
    31    88    86   am
    32    86    87    2
    33    37    38    1
    34    37    34    1
    35    40    38   ar
    36    40    42   ar
    37    38    39   ar
    38    42    43   ar
    39    39    41   ar
    40    43    41   ar
    41    36    35    2
    42    84    81    1
    43    45    48    1
    44    45    44    1
    45    48    49    1
    46    48    50    1
    47    93    90    1
    48    35    34    1
    49    34    33    1
    50    27    26    2
    51    90    89    1
    52    90    91    1
    53    89    82   am
    54    81    82    1
    55    81    80    1
    56    82    83    2
    57    49    51    1
    58    26    33   am
    59    26    25    1
    60    91    92    2
    61    91    94   am
    62    28    25    1
    63    28    29    1
    64    25    24    1
    65    94    95    1
    66    16    15    2
    67    29    30    1
    68     3     4    2
    69     3     2    1
    70    31    30    2
    71   102   103    1
    72   102    96   am
    73    15    14    1
    74    30    32   am
    75    95    96    1
    76    95    98    1
    77   100    99    1
    78   103   104    1
    79     1     2    1
    80    96    97    2
    81     8    10   ar
    82     8     6   ar
    83     2     5    1
    84    17    18    1
    85    17    14    1
    86     5     6    1
    87    18    19    1
    88    13    14    1
    89    98    99    1
    90    10    11   ar
    91     6     7   ar
    92    99   101    1
    93   104   105    2
    94   104   106   am
    95    19    20    1
    96   106   107    1
    97    20    21    2
    98    11    12    1
    99    11     9   ar
   100     7     9   ar
   101   126   124   ar
   102   126   128   ar
   103   124   123   ar
   104    21    23    1
   105    21    22    1
   106   107   108    1
   107   129   128    1
   108   128   127   ar
   109   118   119    1
   110   123   122    1
   111   123   125   ar
   112   122   119    1
   113   119   120    1
   114   108   110   am
   115   108   109    2
   116   110   111    1
   117   127   125   ar
   118   112   111    1
   119   112   113    2
   120   114   111    1
   121   114   115    1
   122   120   121    2
   123   117   115   am
   124   115   116    2
