@<TRIPOS>MOLECULE
tmp/4ktoA00.pdb
 165 156 0 0 0
SMALL
GASTEIGER

@<TRIPOS>ATOM
      1  N         82.7220   58.3460  112.8530 N.3    86  LEU86      -0.1245
      2  CA        82.9680   59.7290  112.4970 C.3    86  LEU86       0.1561
      3  C         84.1050   60.2870  113.3630 C.2    86  LEU86       0.2260
      4  O         85.0580   60.8690  112.8450 O.2    86  LEU86      -0.2867
      5  CB        81.6880   60.5500  112.6500 C.3    86  LEU86       0.0270
      6  CG        81.6890   62.0440  112.3090 C.3    86  LEU86       0.0019
      7  CD1       82.0250   62.3380  110.8330 C.3    86  LEU86       0.0001
      8  CD2       80.3150   62.5830  112.6410 C.3    86  LEU86       0.0001
      9  N         87.7600   61.6440  111.9490 N.3    90  ALA90      -0.1245
     10  CA        88.2600   62.9890  112.1770 C.3    90  ALA90       0.1562
     11  C         89.6210   62.9510  112.8650 C.2    90  ALA90       0.2260
     12  O         90.5130   63.7300  112.5170 O.2    90  ALA90      -0.2867
     13  CB        87.2670   63.8160  112.9680 C.3    90  ALA90       0.0290
     14  N         91.5280   63.3020  109.3450 N.3    94  LEU94      -0.1245
     15  CA        91.4910   64.7600  109.2270 C.3    94  LEU94       0.1561
     16  C         92.6420   65.3700  109.9960 C.2    94  LEU94       0.2260
     17  O         93.2270   66.3380  109.5600 O.2    94  LEU94      -0.2867
     18  CB        90.1710   65.3660  109.7220 C.3    94  LEU94       0.0270
     19  CG        88.7870   64.9390  109.1890 C.3    94  LEU94       0.0019
     20  CD1       87.7930   66.1220  109.1180 C.3    94  LEU94       0.0001
     21  CD2       88.8880   64.2330  107.8690 C.3    94  LEU94       0.0001
     22  N         90.2170   68.6840  113.3900 N.3   124  LEU124     -0.1231
     23  CA        90.5530   69.5970  112.3150 C.3   124  LEU124      0.1693
     24  C         89.4810   70.6790  112.2630 C.2   124  LEU124      0.2591
     25  O         88.3020   70.3670  112.2490 O.2   124  LEU124     -0.2718
     26  CB        90.5720   68.8480  110.9860 C.3   124  LEU124      0.0284
     27  CG        90.6320   69.7500  109.7420 C.3   124  LEU124      0.0019
     28  CD1       92.0740   69.9070  109.2770 C.3   124  LEU124      0.0001
     29  CD2       89.7530   69.2230  108.6190 C.3   124  LEU124      0.0001
     30  N         89.8960   71.9430  112.2240 N.am  125  ALA125     -0.1980
     31  CA        88.9760   73.0710  112.2300 C.3   125  ALA125      0.1597
     32  C         89.1680   73.9950  111.0230 C.2   125  ALA125      0.2287
     33  O         90.1840   74.6890  110.8940 O.2   125  ALA125     -0.2864
     34  CB        89.1240   73.8550  113.5350 C.3   125  ALA125      0.0319
     35  N         85.7620   75.0900  109.0500 N.3   126  SER126     -0.1202
     36  CA        84.4740   75.7370  108.8130 C.3   126  SER126      0.2020
     37  C         84.1350   76.8770  109.7850 C.2   126  SER126      0.2619
     38  O         84.3800   76.7700  110.9840 O.2   126  SER126     -0.2717
     39  CB        83.3580   74.6880  108.8520 C.3   126  SER126      0.2103
     40  OG        83.6220   73.6500  107.9280 O.3   126  SER126     -0.2182
     41  N         83.5420   77.9440  109.2490 N.am  127  GLU127     -0.1965
     42  CA        83.0760   79.0870  110.0420 C.3   127  GLU127      0.1718
     43  C         81.6390   79.4790  109.6990 C.2   127  GLU127      0.2458
     44  O         81.2100   79.3210  108.5530 O.2   127  GLU127     -0.2730
     45  CB        83.9750   80.2980  109.8020 C.3   127  GLU127      0.0428
     46  CG        85.4030   80.0580  110.1730 C.3   127  GLU127      0.1163
     47  CD        86.2890   81.2250  109.8170 C.2   127  GLU127      0.3649
     48  OE1       85.7610   82.3290  109.5660 O.co2 127  GLU127     -0.2457
     49  OE2       87.5180   81.0280  109.7790 O.co2 127  GLU127     -0.2457
     50  N         80.9010   80.0160  110.6930 N.am  128  PRO128     -0.2727
     51  CA        79.5220   80.5100  110.5550 C.3   128  PRO128      0.1402
     52  C         79.2790   81.3540  109.3040 C.2   128  PRO128      0.2269
     53  O         78.2130   81.2510  108.7070 O.2   128  PRO128     -0.2865
     54  CB        79.3430   81.3610  111.8100 C.3   128  PRO128      0.0296
     55  CG        80.1700   80.6750  112.8220 C.3   128  PRO128      0.0237
     56  CD        81.3690   80.1220  112.0880 C.3   128  PRO128      0.0939
     57  N         81.2200   73.5450  114.1120 N.3   149  TRP149     -0.1227
     58  CA        81.0120   72.1570  113.7140 C.3   149  TRP149      0.1737
     59  C         82.2590   71.2980  113.7510 C.2   149  TRP149      0.2595
     60  O         82.5470   70.6020  112.7900 O.2   149  TRP149     -0.2718
     61  CB        80.3970   72.0960  112.3120 C.3   149  TRP149      0.0564
     62  CG        78.9580   72.3280  112.3580 C.ar  149  TRP149      0.0003
     63  CD1       78.3100   73.5210  112.2290 C.ar  149  TRP149      0.0946
     64  CD2       77.9540   71.3430  112.6060 C.ar  149  TRP149      0.0152
     65  NE1       76.9580   73.3310  112.3660 N.ar  149  TRP149     -0.2442
     66  CE2       76.7170   72.0020  112.6010 C.ar  149  TRP149      0.0810
     67  CE3       77.9840   69.9660  112.8420 C.ar  149  TRP149      0.0012
     68  CZ2       75.5180   71.3300  112.8110 C.ar  149  TRP149      0.0191
     69  CZ3       76.7790   69.2960  113.0330 C.ar  149  TRP149      0.0001
     70  CH2       75.5710   69.9780  113.0170 C.ar  149  TRP149      0.0015
     71  N         82.9910   71.3090  114.8570 N.am  150  ILE150     -0.1966
     72  CA        84.2350   70.5470  114.9020 C.3   150  ILE150      0.1727
     73  C         84.0600   69.2020  115.6180 C.2   150  ILE150      0.2616
     74  O         83.7610   69.1470  116.8190 O.2   150  ILE150     -0.2715
     75  CB        85.3610   71.3560  115.5750 C.3   150  ILE150      0.0290
     76  CG1       85.3820   72.7870  115.0330 C.3   150  ILE150      0.0022
     77  CG2       86.7230   70.6330  115.4130 C.3   150  ILE150      0.0023
     78  CD1       85.5470   72.8350  113.5370 C.3   150  ILE150      0.0001
     79  N         84.2260   68.1220  114.8660 N.am  151  THR151     -0.1951
     80  CA        84.2320   66.7760  115.4350 C.3   151  THR151      0.1897
     81  C         85.4350   66.5870  116.3620 C.2   151  THR151      0.2313
     82  O         86.5640   66.9410  116.0110 O.2   151  THR151     -0.2863
     83  CB        84.2480   65.7160  114.3230 C.3   151  THR151      0.1794
     84  OG1       83.0970   65.9040  113.4900 O.3   151  THR151     -0.2208
     85  CG2       84.2080   64.3120  114.8980 C.3   151  THR151      0.0378
     86  N         72.4850   66.9800  118.2610 N.3   191  LYS191     -0.1245
     87  CA        72.3020   66.6110  116.8540 C.3   191  LYS191      0.1561
     88  C         71.2830   65.5010  116.6360 C.2   191  LYS191      0.2260
     89  O         71.0520   64.6780  117.5040 O.2   191  LYS191     -0.2867
     90  CB        73.6420   66.2000  116.2140 C.3   191  LYS191      0.0271
     91  CG        74.8110   67.1280  116.5460 C.3   191  LYS191      0.0035
     92  CD        76.0590   66.7890  115.7180 C.3   191  LYS191      0.0206
     93  CE        76.6680   65.4260  116.0680 C.3   191  LYS191      0.1093
     94  NZ        77.1530   65.3720  117.4940 N.3   191  LYS191     -0.1314
     95  N         80.6730   67.1720  119.1230 N.3   198  THR198     -0.1218
     96  CA        80.8200   68.2450  118.1530 C.3   198  THR198      0.1862
     97  C         80.5780   69.5760  118.8250 C.2   198  THR198      0.2287
     98  O         79.6440   69.7050  119.6130 O.2   198  THR198     -0.2866
     99  CB        79.7830   68.1050  117.0360 C.3   198  THR198      0.1770
    100  OG1       79.6620   66.7270  116.6830 O.3   198  THR198     -0.2211
    101  CG2       80.2000   68.9030  115.8030 C.3   198  THR198      0.0375
    102  N         73.9880   62.7740  108.1890 N.3   341  LEU341     -0.1245
    103  CA        75.1320   63.6130  108.5150 C.3   341  LEU341      0.1561
    104  C         76.0550   63.7640  107.3070 C.2   341  LEU341      0.2260
    105  O         76.4890   64.8740  106.9740 O.2   341  LEU341     -0.2867
    106  CB        75.9030   62.9720  109.6480 C.3   341  LEU341      0.0270
    107  CG        77.0820   63.7520  110.2380 C.3   341  LEU341      0.0019
    108  CD1       78.3900   63.5660  109.4380 C.3   341  LEU341      0.0001
    109  CD2       76.6540   65.1840  110.2910 C.3   341  LEU341      0.0001
    110  N         75.4770   66.3640  104.6430 N.3   344  ILE344     -0.1231
    111  CA        75.9880   67.6900  104.9570 C.3   344  ILE344      0.1692
    112  C         77.4660   67.7020  105.3510 C.2   344  ILE344      0.2593
    113  O         78.3130   68.1870  104.5940 O.2   344  ILE344     -0.2718
    114  CB        75.2900   68.3140  106.1130 C.3   344  ILE344      0.0266
    115  CG1       73.7670   68.1900  105.9380 C.3   344  ILE344      0.0019
    116  CG2       75.8310   69.7380  106.2870 C.3   344  ILE344      0.0020
    117  CD1       73.1170   67.3690  107.0550 C.3   344  ILE344      0.0001
    118  N         77.7530   67.1970  106.5520 N.am  345  GLY345     -0.1942
    119  CA        79.0880   67.2410  107.1300 C.3   345  GLY345      0.2014
    120  C         80.1810   66.7930  106.1850 C.2   345  GLY345      0.2639
    121  O         79.9760   65.9170  105.3410 O.2   345  GLY345     -0.2714
    122  N         81.3460   67.4080  106.3240 N.am  346  ALA346     -0.1963
    123  CA        82.4330   67.1870  105.3930 C.3   346  ALA346      0.1728
    124  C         81.9800   67.5830  104.0040 C.2   346  ALA346      0.2617
    125  O         82.1100   66.8140  103.0530 O.2   346  ALA346     -0.2715
    126  CB        82.9000   65.7300  105.4200 C.3   346  ALA346      0.0334
    127  N         81.4430   68.7930  103.8980 N.am  347  GLY347     -0.1940
    128  CA        81.0310   69.3300  102.6150 C.3   347  GLY347      0.2014
    129  C         79.7200   68.7110  102.1850 C.2   347  GLY347      0.2639
    130  O         79.5000   67.5260  102.3560 O.2   347  GLY347     -0.2714
    131  N         78.8370   69.5150  101.6230 N.am  348  THR348     -0.1950
    132  CA        77.5040   69.0440  101.3270 C.3   348  THR348      0.1897
    133  C         77.4610   68.3950   99.9470 C.2   348  THR348      0.2313
    134  O         78.3750   68.5680   99.1220 O.2   348  THR348     -0.2863
    135  CB        76.5000   70.2090  101.3600 C.3   348  THR348      0.1794
    136  OG1       76.7780   71.0880  100.2670 O.3   348  THR348     -0.2208
    137  CG2       76.6220   70.9870  102.6770 C.3   348  THR348      0.0378
    138  N         75.5350   69.3560   97.5830 N.3   350  GLU350     -0.1231
    139  CA        75.5140   70.4620   96.6300 C.3   350  GLU350      0.1699
    140  C         76.9210   70.9280   96.2570 C.2   350  GLU350      0.2592
    141  O         77.2330   71.0820   95.0690 O.2   350  GLU350     -0.2718
    142  CB        74.6880   71.6480   97.1560 C.3   350  GLU350      0.0402
    143  CG        73.1720   71.3920   97.2050 C.3   350  GLU350      0.1161
    144  CD        72.7780   70.2840   98.1890 C.2   350  GLU350      0.3649
    145  OE1       73.2710   70.3060   99.3410 O.co2 350  GLU350     -0.2457
    146  OE2       71.9790   69.3870   97.8110 O.co2 350  GLU350     -0.2457
    147  N         77.7570   71.1490   97.2710 N.am  351  ILE351     -0.1980
    148  CA        79.1350   71.5850   97.0570 C.3   351  ILE351      0.1595
    149  C         79.9340   70.5260   96.2760 C.2   351  ILE351      0.2287
    150  O         80.6880   70.8570   95.3630 O.2   351  ILE351     -0.2864
    151  CB        79.8410   71.9530   98.3860 C.3   351  ILE351      0.0276
    152  CG1       79.7240   73.4530   98.6690 C.3   351  ILE351      0.0022
    153  CG2       81.3230   71.5910   98.3400 C.3   351  ILE351      0.0022
    154  CD1       78.3200   74.0060   98.6930 C.3   351  ILE351      0.0001
    155  N         82.1560   71.8080   87.8800 N.3   357  ARG357     -0.1245
    156  CA        83.0220   72.9260   87.5150 C.3   357  ARG357      0.1563
    157  C         84.3380   72.4130   86.9500 C.2   357  ARG357      0.2260
    158  O         84.8140   72.8890   85.9030 O.2   357  ARG357     -0.2867
    159  CB        83.3120   73.8250   88.7240 C.3   357  ARG357      0.0307
    160  CG        82.2440   74.8470   89.0330 C.3   357  ARG357      0.0489
    161  CD        82.6330   75.6820   90.2380 C.3   357  ARG357      0.2205
    162  NE        81.4970   75.8620   91.1380 N.pl3 357  ARG357     -0.0865
    163  CZ        80.6590   76.8940   91.0950 C.cat 357  ARG357      0.5346
    164  NH1       80.8340   77.8580   90.1920 N.pl3 357  ARG357      0.1354
    165  NH2       79.6490   76.9610   91.9600 N.pl3 357  ARG357      0.1354
@<TRIPOS>BOND
     1   158   157    2
     2   157   156    1
     3   156   155    1
     4   156   159    1
     5   159   160    1
     6   160   161    1
     7   164   163    1
     8   161   162    1
     9   163   162    2
    10   163   165    1
    11   141   140    2
    12   150   149    2
    13   140   139    1
    14   140   147   am
    15   149   148    1
    16   139   142    1
    17   139   138    1
    18   148   147    1
    19   148   151    1
    20   142   143    1
    21   143   144    1
    22   146   144   ar
    23   144   145   ar
    24   153   151    1
    25   151   152    1
    26   152   154    1
    27   134   133    2
    28   133   132    1
    29   136   135    1
    30   132   135    1
    31   132   131    1
    32   135   137    1
    33   131   129   am
    34   129   130    2
    35   129   128    1
    36   128   127    1
    37   125   124    2
    38   127   124   am
    39   124   123    1
    40   113   112    2
    41   110   111    1
    42   111   112    1
    43   111   114    1
    44   121   120    2
    45   112   118   am
    46   123   126    1
    47   123   122    1
    48   115   114    1
    49   115   117    1
    50   114   116    1
    51   120   122   am
    52   120   119    1
    53   118   119    1
    54   105   104    2
    55   104   103    1
    56    21    19    1
    57    40    39    1
    58   102   103    1
    59   103   106    1
    60    44    43    2
    61    29    27    1
    62    53    52    2
    63    36    39    1
    64    36    35    1
    65    36    37    1
    66    20    19    1
    67    19    18    1
    68    15    14    1
    69    15    18    1
    70    15    16    1
    71    41    37   am
    72    41    42    1
    73    28    27    1
    74    52    51    1
    75   108   107    1
    76    17    16    2
    77    48    47   ar
    78   106   107    1
    79    43    42    1
    80    43    50   am
    81    27    26    1
    82    49    47   ar
    83    37    38    2
    84    45    42    1
    85    45    46    1
    86    47    46    1
    87   107   109    1
    88    51    50    1
    89    51    54    1
    90    50    56    1
    91     7     6    1
    92    33    32    2
    93    26    23    1
    94    32    31    1
    95    54    55    1
    96     9    10    1
    97    56    55    1
    98    10    11    1
    99    10    13    1
   100    30    31    1
   101    30    24   am
   102    63    62   ar
   103    63    65   ar
   104    31    34    1
   105    25    24    2
   106    24    23    1
   107     6     8    1
   108     6     5    1
   109    61    62    1
   110    61    58    1
   111    23    22    1
   112    62    64   ar
   113    65    66   ar
   114     2     5    1
   115     2     1    1
   116     2     3    1
   117    12    11    2
   118    66    64   ar
   119    66    68   ar
   120    64    67   ar
   121    60    59    2
   122    68    70   ar
   123    67    69   ar
   124     4     3    2
   125    70    69   ar
   126    84    83    1
   127    78    76    1
   128    58    59    1
   129    58    57    1
   130    59    71   am
   131    83    85    1
   132    83    80    1
   133    71    72    1
   134    79    80    1
   135    79    73   am
   136    72    75    1
   137    72    73    1
   138    76    75    1
   139    77    75    1
   140    80    81    1
   141    73    74    2
   142    92    93    1
   143    92    91    1
   144   101    99    1
   145    82    81    2
   146    93    94    1
   147    90    91    1
   148    90    87    1
   149    88    87    1
   150    88    89    2
   151   100    99    1
   152    87    86    1
   153    99    96    1
   154    96    97    1
   155    96    95    1
   156    97    98    2
