@<TRIPOS>MOLECULE
tmp/4ktoA01.pdb
 91 84 0 0 0
SMALL
GASTEIGER

@<TRIPOS>ATOM
      1  N         79.9420   47.8280  119.1320 N.3    29  ALA29      -0.1245
      2  CA        78.4880   47.6470  118.9820 C.3    29  ALA29       0.1562
      3  C         77.6910   47.6330  120.2890 C.2    29  ALA29       0.2260
      4  O         76.6080   48.2100  120.3370 O.2    29  ALA29      -0.2867
      5  CB        78.1570   46.3900  118.1400 C.3    29  ALA29       0.0290
      6  N         77.0490   51.2560  121.2560 N.3    32  ALA32      -0.1231
      7  CA        76.5700   52.1930  120.2410 C.3    32  ALA32       0.1694
      8  C         75.2490   52.8970  120.6640 C.2    32  ALA32       0.2592
      9  O         75.1200   54.1400  120.5610 O.2    32  ALA32      -0.2718
     10  CB        76.4150   51.4650  118.8870 C.3    32  ALA32       0.0304
     11  N         74.2860   52.1090  121.1570 N.am   33  ASP33      -0.1974
     12  CA        73.0350   52.6760  121.6640 C.3    33  ASP33       0.1709
     13  C         73.3030   53.6470  122.8170 C.2    33  ASP33       0.2293
     14  O         72.6590   54.7060  122.9140 O.2    33  ASP33      -0.2864
     15  CB        72.0600   51.5890  122.1500 C.3    33  ASP33       0.1436
     16  CG        71.4730   50.7620  121.0210 C.2    33  ASP33       0.3671
     17  OD1       71.6730   51.1160  119.8380 O.co2  33  ASP33      -0.2456
     18  OD2       70.8010   49.7500  121.3250 O.co2  33  ASP33      -0.2456
     19  N         82.4520   51.9330  111.5690 N.3    78  SER78      -0.1202
     20  CA        81.1910   52.6260  111.3270 C.3    78  SER78       0.2020
     21  C         80.0090   51.6530  111.3350 C.2    78  SER78       0.2619
     22  O         78.8970   52.0030  111.7410 O.2    78  SER78      -0.2717
     23  CB        81.2510   53.3690  109.9870 C.3    78  SER78       0.2103
     24  OG        82.2840   54.3540  110.0010 O.3    78  SER78      -0.2182
     25  N         80.2650   50.4350  110.8620 N.am   79  ARG79      -0.1965
     26  CA        79.2580   49.3870  110.8320 C.3    79  ARG79       0.1729
     27  C         78.7340   49.0890  112.2450 C.2    79  ARG79       0.2616
     28  O         77.5710   48.7340  112.4230 O.2    79  ARG79      -0.2715
     29  CB        79.8650   48.1230  110.2280 C.3    79  ARG79       0.0348
     30  CG        78.9010   46.9500  110.0810 C.3    79  ARG79       0.0492
     31  CD        79.6150   45.8380  109.3630 C.3    79  ARG79       0.2205
     32  NE        78.7720   44.7050  109.0130 N.pl3  79  ARG79      -0.0865
     33  CZ        79.2010   43.7050  108.2550 C.cat  79  ARG79       0.5346
     34  NH1       80.4480   43.7500  107.8000 N.pl3  79  ARG79       0.1354
     35  NH2       78.4040   42.6760  107.9500 N.pl3  79  ARG79       0.1354
     36  N         79.6040   49.2490  113.2400 N.am   80  ALA80      -0.1977
     37  CA        79.2460   48.9940  114.6310 C.3    80  ALA80       0.1597
     38  C         78.6360   50.2210  115.3080 C.2    80  ALA80       0.2287
     39  O         77.6180   50.1190  115.9930 O.2    80  ALA80      -0.2864
     40  CB        80.4580   48.4930  115.4030 C.3    80  ALA80       0.0319
     41  N         78.2540   54.3690  113.8880 N.3    82  ALA82      -0.1245
     42  CA        78.6090   55.4380  112.9620 C.3    82  ALA82       0.1562
     43  C         79.1990   56.6480  113.7000 C.2    82  ALA82       0.2260
     44  O         80.0710   57.3210  113.1600 O.2    82  ALA82      -0.2867
     45  CB        77.4140   55.8400  112.0950 C.3    82  ALA82       0.0290
     46  N         75.5740   47.9060  107.9390 N.3   243  ALA243     -0.1245
     47  CA        74.7260   47.7860  109.1130 C.3   243  ALA243      0.1562
     48  C         73.2460   47.6810  108.7320 C.2   243  ALA243      0.2260
     49  O         72.4870   46.9930  109.4070 O.2   243  ALA243     -0.2867
     50  CB        74.9650   48.9740  110.0640 C.3   243  ALA243      0.0290
     51  N         72.8580   44.1230  107.8930 N.3   246  ASP246     -0.1225
     52  CA        73.0020   43.3690  109.1370 C.3   246  ASP246      0.1805
     53  C         71.6760   43.3180  109.8740 C.2   246  ASP246      0.2597
     54  O         71.3000   42.2730  110.3710 O.2   246  ASP246     -0.2718
     55  CB        74.0410   44.0130  110.0790 C.3   246  ASP246      0.1424
     56  CG        75.4820   43.8090  109.6150 C.2   246  ASP246      0.3668
     57  OD1       75.7360   42.8840  108.8190 O.co2 246  ASP246     -0.2456
     58  OD2       76.3700   44.5640  110.0690 O.co2 246  ASP246     -0.2456
     59  N         70.9780   44.4480  109.9760 N.am  247  VAL247     -0.1980
     60  CA        69.6930   44.4430  110.6910 C.3   247  VAL247      0.1595
     61  C         68.5610   43.8240  109.8800 C.2   247  VAL247      0.2287
     62  O         67.7310   43.0960  110.4260 O.2   247  VAL247     -0.2864
     63  CB        69.2550   45.8540  111.2200 C.3   247  VAL247      0.0276
     64  CG1       70.3750   46.5000  112.0420 C.3   247  VAL247      0.0022
     65  CG2       68.8230   46.7840  110.0880 C.3   247  VAL247      0.0022
     66  N         67.8690   49.4000  115.7540 N.3   331  PRO331     -0.2116
     67  CA        68.8240   50.4690  115.4800 C.3   331  PRO331      0.1372
     68  C         68.6190   51.1410  114.1330 C.2   331  PRO331      0.2244
     69  O         69.3940   52.0250  113.7830 O.2   331  PRO331     -0.2868
     70  CB        70.1550   49.7220  115.4690 C.3   331  PRO331      0.0268
     71  CG        69.8000   48.3860  114.9400 C.3   331  PRO331      0.0207
     72  CD        68.4350   48.0680  115.4650 C.3   331  PRO331      0.0892
     73  N         68.4270   54.7980  114.1140 N.3   334  ARG334     -0.1231
     74  CA        69.7180   55.3820  114.4070 C.3   334  ARG334      0.1694
     75  C         70.5560   55.4450  113.1520 C.2   334  ARG334      0.2591
     76  O         71.2380   56.4370  112.9200 O.2   334  ARG334     -0.2718
     77  CB        70.4860   54.5890  115.4630 C.3   334  ARG334      0.0321
     78  CG        71.6210   55.4090  116.0450 C.3   334  ARG334      0.0489
     79  CD        72.8570   54.5950  116.3730 C.3   334  ARG334      0.2205
     80  NE        72.5640   53.3500  117.0720 N.pl3 334  ARG334     -0.0865
     81  CZ        73.2070   52.2160  116.8210 C.cat 334  ARG334      0.5346
     82  NH1       74.1610   52.2060  115.8970 N.pl3 334  ARG334      0.1354
     83  NH2       72.9060   51.1070  117.4800 N.pl3 334  ARG334      0.1354
     84  N         70.5130   54.3750  112.3590 N.am  335  LEU335     -0.1980
     85  CA        71.2490   54.3300  111.0920 C.3   335  LEU335      0.1596
     86  C         70.8250   55.4640  110.1700 C.2   335  LEU335      0.2287
     87  O         71.6760   56.0890  109.5380 O.2   335  LEU335     -0.2864
     88  CB        71.0530   52.9870  110.3840 C.3   335  LEU335      0.0297
     89  CG        71.5330   51.7440  111.1410 C.3   335  LEU335      0.0022
     90  CD1       71.3510   50.4420  110.2850 C.3   335  LEU335      0.0001
     91  CD2       72.9790   51.9100  111.6000 C.3   335  LEU335      0.0001
@<TRIPOS>BOND
     1    34    33    1
     2    51    52    1
     3    46    47    1
     4    35    33    1
     5    33    32    2
     6    48    47    1
     7    48    49    2
     8    57    56   ar
     9    32    31    1
    10    47    50    1
    11    52    53    1
    12    52    55    1
    13    31    30    1
    14    87    86    2
    15    56    58   ar
    16    56    55    1
    17    53    59   am
    18    53    54    2
    19    61    62    2
    20    61    60    1
    21    59    60    1
    22    23    24    1
    23    23    20    1
    24    30    29    1
    25    65    63    1
    26    86    85    1
    27    29    26    1
    28    90    89    1
    29    88    85    1
    30    88    89    1
    31    60    63    1
    32    26    25    1
    33    26    27    1
    34    25    21   am
    35    85    84    1
    36    89    91    1
    37    63    64    1
    38    20    21    1
    39    20    19    1
    40    21    22    2
    41    45    42    1
    42    27    28    2
    43    27    36   am
    44    84    75   am
    45    76    75    2
    46    42    43    1
    47    42    41    1
    48    75    74    1
    49    44    43    2
    50    36    37    1
    51    69    68    2
    52    73    74    1
    53    68    67    1
    54    74    77    1
    55    37    38    1
    56    37    40    1
    57    71    72    1
    58    71    70    1
    59    38    39    2
    60    77    78    1
    61    72    66    1
    62    70    67    1
    63    67    66    1
    64    82    81    1
    65    78    79    1
    66    79    80    1
    67    81    80    2
    68    81    83    1
    69     5     2    1
    70    10     7    1
    71     2     1    1
    72     2     3    1
    73    17    16   ar
    74     7     8    1
    75     7     6    1
    76     3     4    2
    77     9     8    2
    78     8    11   am
    79    16    18   ar
    80    16    15    1
    81    11    12    1
    82    12    15    1
    83    12    13    1
    84    13    14    2
