@<TRIPOS>MOLECULE
tmp/4ktpA01.pdb
 88 83 0 0 0
SMALL
GASTEIGER

@<TRIPOS>ATOM
      1  N         60.9340   42.6910   44.6050 N.3    65  LYS65      -0.1245
      2  CA        59.9510   43.7450   44.3340 C.3    65  LYS65       0.1561
      3  C         59.2090   44.0370   45.6230 C.2    65  LYS65       0.2260
      4  O         57.9790   44.0430   45.6750 O.2    65  LYS65      -0.2867
      5  CB        58.9890   43.2640   43.2550 C.3    65  LYS65       0.0271
      6  CG        58.0060   44.3150   42.6810 C.3    65  LYS65       0.0035
      7  CD        57.2670   43.4350   41.6280 C.3    65  LYS65       0.0206
      8  CE        56.2240   44.2090   40.9160 C.3    65  LYS65       0.1093
      9  NZ        55.5230   43.3760   39.8650 N.3    65  LYS65      -0.1314
     10  N         56.2560   46.4720   45.6780 N.3    68  GLY68      -0.1210
     11  CA        55.0990   46.1110   44.8530 C.3    68  GLY68       0.1956
     12  C         55.0780   46.7060   43.4480 C.2    68  GLY68       0.2611
     13  O         54.1400   46.4490   42.7040 O.2    68  GLY68      -0.2717
     14  N         56.0650   47.5220   43.0970 N.am   69  LYS69      -0.1979
     15  CA        56.1870   48.1070   41.7660 C.3    69  LYS69       0.1596
     16  C         57.5160   47.8860   41.0240 C.2    69  LYS69       0.2287
     17  O         57.4990   47.4670   39.8720 O.2    69  LYS69      -0.2864
     18  CB        56.0090   49.6300   41.9260 C.3    69  LYS69       0.0298
     19  CG        56.0110   50.3520   40.6620 C.3    69  LYS69       0.0038
     20  CD        55.6170   51.7930   40.9100 C.3    69  LYS69       0.0206
     21  CE        55.3390   52.4660   39.5850 C.3    69  LYS69       0.1093
     22  NZ        55.2770   53.9810   39.7350 N.3    69  LYS69      -0.1314
     23  N         60.7350   45.9440   40.4320 N.3    71  GLU71      -0.1245
     24  CA        61.5290   44.8020   40.6560 C.3    71  GLU71       0.1567
     25  C         63.0160   45.1880   40.2520 C.2    71  GLU71       0.2260
     26  O         63.2990   45.3300   39.0710 O.2    71  GLU71      -0.2867
     27  CB        60.9480   43.6390   39.8470 C.3    71  GLU71       0.0388
     28  CG        61.7550   42.3570   40.0340 C.3    71  GLU71       0.1160
     29  CD        60.9480   41.1260   39.7150 C.2    71  GLU71       0.3649
     30  OE1       59.7560   41.2850   39.3110 O.co2  71  GLU71      -0.2457
     31  OE2       61.5210   40.0170   39.8450 O.co2  71  GLU71      -0.2457
     32  N         49.4210   38.4050   26.8030 N.3   371  ARG371     -0.1245
     33  CA        48.7930   39.2870   27.7600 C.3   371  ARG371      0.1563
     34  C         48.3190   40.5070   27.0370 C.2   371  ARG371      0.2260
     35  O         47.2780   41.0570   27.3810 O.2   371  ARG371     -0.2867
     36  CB        49.7940   39.6920   28.8830 C.3   371  ARG371      0.0307
     37  CG        49.3290   40.7820   29.8290 C.3   371  ARG371      0.0489
     38  CD        50.2240   40.9290   31.0280 C.3   371  ARG371      0.2205
     39  NE        51.6760   41.1950   30.6670 N.pl3 371  ARG371     -0.0865
     40  CZ        52.1100   42.3820   30.2560 C.cat 371  ARG371      0.5346
     41  NH1       51.2320   43.3940   30.1220 N.pl3 371  ARG371      0.1354
     42  NH2       53.4120   42.5610   29.9580 N.pl3 371  ARG371      0.1354
     43  N         57.8380   41.0490   31.5530 N.3   389  GLU389     -0.1231
     44  CA        58.0460   42.4800   31.5220 C.3   389  GLU389      0.1699
     45  C         58.3520   43.0440   32.9250 C.2   389  GLU389      0.2595
     46  O         57.5370   42.8450   33.7910 O.2   389  GLU389     -0.2718
     47  CB        56.7320   43.1670   30.9940 C.3   389  GLU389      0.0402
     48  CG        56.9790   44.7120   30.9230 C.3   389  GLU389      0.1161
     49  CD        58.1870   45.1080   29.9930 C.2   389  GLU389      0.3649
     50  OE1       59.2900   45.4330   30.5280 O.co2 389  GLU389     -0.2457
     51  OE2       58.0160   45.0860   28.7310 O.co2 389  GLU389     -0.2457
     52  N         59.4780   43.7530   33.1440 N.am  390  LEU390     -0.1920
     53  CA        59.7270   44.3440   34.4870 C.3   390  LEU390      0.1941
     54  C         59.3570   45.8240   34.4880 C.2   390  LEU390      0.2659
     55  O         59.2810   46.4610   35.5740 O.2   390  LEU390     -0.2711
     56  CB        61.2190   44.1970   34.8110 C.2   390  LEU390     -0.0041
     57  CG        61.6570   42.8840   35.4940 C.2   390  LEU390     -0.0457
     58  CD1       60.6520   41.7700   35.9360 C.3   390  LEU390      0.0261
     59  CD2       63.1550   42.6040   35.5520 C.3   390  LEU390      0.0261
     60  N         59.1800   46.4150   33.2970 N.am  391  CYS391     -0.1952
     61  CA        58.9570   47.9080   33.1760 C.3   391  CYS391      0.1828
     62  C         57.5670   48.2370   33.6920 C.2   391  CYS391      0.2467
     63  O         56.6200   47.6800   33.1740 O.2   391  CYS391     -0.2730
     64  CB        59.0230   48.2890   31.7100 C.3   391  CYS391      0.0996
     65  SG        58.9690   50.0710   31.5470 S.3   391  CYS391     -0.0797
     66  N         57.4300   49.1170   34.7230 N.am  392  PRO392     -0.2715
     67  CA        56.0860   49.4370   35.1960 C.3   392  PRO392      0.1535
     68  C         55.2950   50.1960   34.1520 C.2   392  PRO392      0.2595
     69  O         55.8740   50.8770   33.2750 O.2   392  PRO392     -0.2716
     70  CB        56.3260   50.3890   36.3980 C.3   392  PRO392      0.0310
     71  CG        57.6910   50.0210   36.8580 C.3   392  PRO392      0.0237
     72  CD        58.4880   49.7250   35.5410 C.3   392  PRO392      0.0939
     73  N         53.9650   50.1220   34.2680 N.am  393  ASP393     -0.2025
     74  CA        53.1120   50.9910   33.4090 C.3   393  ASP393      0.1395
     75  C         53.3220   52.4560   33.7600 C.3   393  ASP393      0.2041
     76  O         53.2860   53.3800   32.8670 O.3   393  ASP393     -0.2185
     77  CB        51.6030   50.6670   33.6510 C.3   393  ASP393      0.1383
     78  CG        51.1300   49.3030   33.0510 C.2   393  ASP393      0.3667
     79  OD1       51.9010   48.5450   32.4100 O.co2 393  ASP393     -0.2456
     80  OD2       49.8980   49.0140   33.2220 O.co2 393  ASP393     -0.2456
     81  N         56.3930   49.9750   27.8030 N.3   410  ASN410     -0.1240
     82  CA        56.3050   48.5290   27.9670 C.3   410  ASN410      0.1653
     83  C         55.3130   47.8650   27.0320 C.2   410  ASN410      0.2266
     84  O         55.2480   46.6430   26.9600 O.2   410  ASN410     -0.2867
     85  CB        56.0310   48.1610   29.4690 C.3   410  ASN410      0.1155
     86  CG        54.6270   48.5160   29.9480 C.2   410  ASN410      0.2627
     87  OD1       53.7580   48.9440   29.1500 O.2   410  ASN410     -0.2716
     88  ND2       54.4130   48.4470   31.2740 N.am  410  ASN410     -0.0877
@<TRIPOS>BOND
     1    32    33    1
     2    84    83    2
     3    83    82    1
     4    34    35    2
     5    34    33    1
     6    33    36    1
     7    81    82    1
     8    82    85    1
     9    51    49   ar
    10    36    37    1
    11    87    86    2
    12    85    86    1
    13    37    38    1
    14    86    88   am
    15    42    40    1
    16    49    50   ar
    17    49    48    1
    18    41    40    1
    19    40    39    2
    20    39    38    1
    21    48    47    1
    22    47    44    1
    23    44    43    1
    24    44    45    1
    25    65    64    1
    26    64    61    1
    27    79    78   ar
    28    76    75    1
    29    45    52   am
    30    45    46    2
    31    78    80   ar
    32    78    77    1
    33    52    53    1
    34    63    62    2
    35    61    60    1
    36    61    62    1
    37    69    68    2
    38    60    54   am
    39    74    77    1
    40    74    75    1
    41    74    73    1
    42    62    66   am
    43    68    73   am
    44    68    67    1
    45    53    54    1
    46    53    56    1
    47    54    55    2
    48    66    67    1
    49    66    72    1
    50    56    57    2
    51    67    70    1
    52    57    59    1
    53    57    58    1
    54    72    71    1
    55    70    71    1
    56    26    25    2
    57    30    29   ar
    58    21    22    1
    59    21    20    1
    60    29    31   ar
    61    29    28    1
    62    27    28    1
    63    27    24    1
    64     9     8    1
    65    17    16    2
    66    25    24    1
    67    23    24    1
    68    19    20    1
    69    19    18    1
    70     8     7    1
    71    16    15    1
    72     7     6    1
    73    15    18    1
    74    15    14    1
    75     6     5    1
    76    13    12    2
    77    14    12   am
    78     5     2    1
    79    12    11    1
    80     2     1    1
    81     2     3    1
    82    11    10    1
    83     3     4    2
