@<TRIPOS>MOLECULE
tmp/4ktpA00.pdb
 140 136 0 0 0
SMALL
GASTEIGER

@<TRIPOS>ATOM
      1  N         71.0440   48.2200   31.9800 N.3   319  ALA319     -0.1231
      2  CA        71.2280   49.5170   31.3200 C.3   319  ALA319      0.1694
      3  C         71.9590   50.5860   32.1470 C.2   319  ALA319      0.2591
      4  O         72.3610   51.6410   31.6170 O.2   319  ALA319     -0.2718
      5  CB        69.9190   50.0330   30.8710 C.3   319  ALA319      0.0304
      6  N         72.0930   50.3170   33.4550 N.am  320  ARG320     -0.1980
      7  CA        73.0390   51.0810   34.2770 C.3   320  ARG320      0.1597
      8  C         74.0010   50.1190   34.9450 C.2   320  ARG320      0.2287
      9  O         74.5750   50.3840   35.9970 O.2   320  ARG320     -0.2864
     10  CB        72.2650   51.8950   35.3030 C.3   320  ARG320      0.0334
     11  CG        71.3370   52.9290   34.6710 C.3   320  ARG320      0.0492
     12  CD        72.1280   54.1470   34.1910 C.3   320  ARG320      0.2205
     13  NE        71.2460   55.1910   33.6400 N.pl3 320  ARG320     -0.0865
     14  CZ        70.8950   55.3000   32.3610 C.cat 320  ARG320      0.5346
     15  NH1       71.2960   54.3680   31.4290 N.pl3 320  ARG320      0.1354
     16  NH2       70.1560   56.3660   31.9910 N.pl3 320  ARG320      0.1354
     17  N         67.2620   51.3100   36.5680 N.3   327  TYR327     -0.1241
     18  CA        67.0400   50.5340   35.3300 C.3   327  TYR327      0.1605
     19  C         67.1350   49.0460   35.6230 C.2   327  TYR327      0.2264
     20  O         67.2440   48.2300   34.7050 O.2   327  TYR327     -0.2867
     21  CB        68.0000   50.9520   34.2160 C.3   327  TYR327      0.0534
     22  CG        67.6240   52.2910   33.6650 C.ar  327  TYR327     -0.0201
     23  CD1       68.2330   52.7770   32.4910 C.ar  327  TYR327     -0.0009
     24  CD2       66.5790   52.9860   34.1750 C.ar  327  TYR327     -0.0009
     25  CE1       67.8370   53.9880   31.9370 C.ar  327  TYR327      0.0417
     26  CE2       66.1840   54.2190   33.6630 C.ar  327  TYR327      0.0417
     27  CZ        66.7910   54.6950   32.5540 C.ar  327  TYR327      0.1957
     28  OH        66.4170   55.8960   32.1030 O.3   327  TYR327     -0.2866
     29  N         67.7780   46.0240   28.1850 N.3   332  PHE332     -0.1227
     30  CA        66.9370   46.7960   27.2530 C.3   332  PHE332      0.1736
     31  C         67.4810   46.4820   25.8590 C.2   332  PHE332      0.2595
     32  O         68.4380   45.7180   25.7760 O.2   332  PHE332     -0.2718
     33  CB        67.1500   48.3140   27.4800 C.3   332  PHE332      0.0547
     34  CG        66.5290   48.8430   28.7680 C.ar  332  PHE332     -0.0202
     35  CD1       67.0050   48.4280   29.9910 C.ar  332  PHE332     -0.0042
     36  CD2       65.5510   49.8110   28.7210 C.ar  332  PHE332     -0.0042
     37  CE1       66.5160   48.8560   31.2050 C.ar  332  PHE332     -0.0003
     38  CE2       65.0670   50.3530   29.9590 C.ar  332  PHE332     -0.0003
     39  CZ        65.6030   49.8610   31.1990 C.ar  332  PHE332     -0.0000
     40  N         66.9020   47.0710   24.8070 N.am  333  TRP333     -0.1962
     41  CA        67.4770   46.8700   23.4570 C.3   333  TRP333      0.1771
     42  C         68.9610   47.2760   23.4190 C.2   333  TRP333      0.2619
     43  O         69.7380   46.8590   22.5130 O.2   333  TRP333     -0.2715
     44  CB        66.6160   47.6150   22.4600 C.3   333  TRP333      0.0590
     45  CG        66.6760   49.1580   22.5500 C.ar  333  TRP333      0.0006
     46  CD1       66.4340   49.9790   23.6830 C.ar  333  TRP333      0.0946
     47  CD2       67.0000   50.0300   21.4800 C.ar  333  TRP333      0.0152
     48  NE1       66.6430   51.2860   23.3650 N.ar  333  TRP333     -0.2442
     49  CE2       66.9050   51.3780   21.9950 C.ar  333  TRP333      0.0810
     50  CE3       67.2860   49.8260   20.0690 C.ar  333  TRP333      0.0012
     51  CZ2       67.1340   52.5030   21.2070 C.ar  333  TRP333      0.0191
     52  CZ3       67.5090   50.9890   19.2600 C.ar  333  TRP333      0.0001
     53  CH2       67.4350   52.3070   19.8200 C.ar  333  TRP333      0.0015
     54  N         69.3590   48.1360   24.3710 N.am  334  ASP334     -0.1971
     55  CA        70.7620   48.5750   24.6160 C.3   334  ASP334      0.1709
     56  C         71.6970   47.3560   24.5270 C.2   334  ASP334      0.2293
     57  O         72.7610   47.3930   23.9480 O.2   334  ASP334     -0.2864
     58  CB        70.8920   49.0450   26.1420 C.3   334  ASP334      0.1436
     59  CG        70.0730   50.3000   26.4570 C.2   334  ASP334      0.3671
     60  OD1       68.9570   50.4890   25.8640 O.co2 334  ASP334     -0.2456
     61  OD2       70.5010   51.0970   27.3460 O.co2 334  ASP334     -0.2456
     62  N         60.3960   45.1450   27.3840 N.3   381  TRP381     -0.1241
     63  CA        61.1690   46.3680   27.3050 C.3   381  TRP381      0.1605
     64  C         62.3340   46.2970   28.3050 C.2   381  TRP381      0.2264
     65  O         63.4870   46.6890   28.0080 O.2   381  TRP381     -0.2867
     66  CB        60.2580   47.5830   27.4560 C.3   381  TRP381      0.0550
     67  CG        61.0430   48.8220   27.1990 C.ar  381  TRP381      0.0003
     68  CD1       61.4660   49.7780   28.1250 C.ar  381  TRP381      0.0946
     69  CD2       61.6230   49.2120   25.9240 C.ar  381  TRP381      0.0152
     70  NE1       62.2180   50.7420   27.5240 N.ar  381  TRP381     -0.2442
     71  CE2       62.3770   50.4410   26.1850 C.ar  381  TRP381      0.0810
     72  CE3       61.5940   48.6700   24.6520 C.ar  381  TRP381      0.0012
     73  CZ2       63.1010   51.0900   25.1990 C.ar  381  TRP381      0.0191
     74  CZ3       62.3130   49.3340   23.6480 C.ar  381  TRP381      0.0001
     75  CH2       63.0820   50.4560   23.9160 C.ar  381  TRP381      0.0015
     76  N         56.3200   50.2330   22.5520 N.3   413  GLN413     -0.1245
     77  CA        57.6910   50.4040   21.9780 C.3   413  GLN413      0.1566
     78  C         58.0690   49.0410   21.4860 C.2   413  GLN413      0.2260
     79  O         58.8310   48.2980   22.0920 O.2   413  GLN413     -0.2867
     80  CB        58.7260   51.0510   22.9450 C.3   413  GLN413      0.0367
     81  CG        60.0120   51.5250   22.1920 C.3   413  GLN413      0.0905
     82  CD        60.8570   52.5030   22.9830 C.2   413  GLN413      0.2608
     83  OE1       60.5590   52.7950   24.1540 O.2   413  GLN413     -0.2717
     84  NE2       61.9070   52.9550   22.4010 N.am  413  GLN413     -0.0878
     85  N         62.3670   54.7090   18.8430 N.3   473  PRO473     -0.2116
     86  CA        63.4850   55.0380   19.7050 C.3   473  PRO473      0.1372
     87  C         63.3900   56.4710   20.3440 C.2   473  PRO473      0.2244
     88  O         63.8050   56.6480   21.4920 O.2   473  PRO473     -0.2868
     89  CB        64.7180   54.9760   18.7060 C.3   473  PRO473      0.0268
     90  CG        64.3200   53.9360   17.7090 C.3   473  PRO473      0.0207
     91  CD        62.7910   54.2460   17.5030 C.3   473  PRO473      0.0892
     92  N         61.6610   58.3970   22.4470 N.3   475  GLU475     -0.1245
     93  CA        60.6010   57.9500   23.3360 C.3   475  GLU475      0.1567
     94  C         59.6060   59.0840   23.5560 C.2   475  GLU475      0.2260
     95  O         58.5180   58.8360   24.0440 O.2   475  GLU475     -0.2867
     96  CB        61.2400   57.5510   24.6870 C.3   475  GLU475      0.0388
     97  CG        62.0680   56.2270   24.5880 C.3   475  GLU475      0.1160
     98  CD        62.2460   55.5930   25.9420 C.2   475  GLU475      0.3649
     99  OE1       62.3750   56.3840   26.9550 O.co2 475  GLU475     -0.2457
    100  OE2       62.2510   54.3400   26.0150 O.co2 475  GLU475     -0.2457
    101  N         64.1850   62.9960   21.3740 N.3   587  LYS587     -0.1231
    102  CA        65.0290   62.5860   22.5210 C.3   587  LYS587      0.1693
    103  C         66.4100   62.0560   22.0630 C.2   587  LYS587      0.2591
    104  O         67.4570   62.3180   22.7160 O.2   587  LYS587     -0.2718
    105  CB        64.3230   61.4260   23.2560 C.3   587  LYS587      0.0285
    106  CG        65.0310   61.0590   24.6240 C.3   587  LYS587      0.0035
    107  CD        64.3520   59.8690   25.3460 C.3   587  LYS587      0.0206
    108  CE        64.9100   59.8270   26.7970 C.3   587  LYS587      0.1093
    109  NZ        64.3390   58.6900   27.5480 N.3   587  LYS587     -0.1314
    110  N         66.4010   61.3390   20.9230 N.am  588  GLN588     -0.1979
    111  CA        67.6010   60.5300   20.5170 C.3   588  GLN588      0.1601
    112  C         67.4310   60.0420   19.0980 C.2   588  GLN588      0.2287
    113  O         66.3200   60.1240   18.5260 O.2   588  GLN588     -0.2864
    114  CB        67.7890   59.3200   21.4420 C.3   588  GLN588      0.0394
    115  CG        66.5680   58.3460   21.3430 C.3   588  GLN588      0.0908
    116  CD        66.5770   57.3340   22.4730 C.2   588  GLN588      0.2608
    117  OE1       66.1180   57.6890   23.5680 O.2   588  GLN588     -0.2717
    118  NE2       67.1700   56.1390   22.2880 N.am  588  GLN588     -0.0878
    119  N         69.0410   61.4270   25.7830 N.3   622  SER622     -0.1217
    120  CA        69.4830   60.0600   26.0750 C.3   622  SER622      0.1889
    121  C         71.0050   59.8820   25.7650 C.2   622  SER622      0.2288
    122  O         71.5080   60.3190   24.7190 O.2   622  SER622     -0.2866
    123  CB        68.6250   59.0250   25.2720 C.3   622  SER622      0.2089
    124  OG        69.0970   57.7050   25.4360 O.3   622  SER622     -0.2183
    125  N         72.1720   57.4090   24.5550 N.3   624  LEU624     -0.1245
    126  CA        72.2930   56.4600   23.4560 C.3   624  LEU624      0.1561
    127  C         72.5170   57.2910   22.1870 C.2   624  LEU624      0.2260
    128  O         72.8120   56.7440   21.0920 O.2   624  LEU624     -0.2867
    129  CB        70.9860   55.6820   23.2930 C.3   624  LEU624      0.0270
    130  CG        70.9340   54.4000   24.1200 C.3   624  LEU624      0.0019
    131  CD1       70.8670   54.6280   25.6780 C.3   624  LEU624      0.0001
    132  CD2       69.7220   53.5950   23.6610 C.3   624  LEU624      0.0001
    133  N         67.2040   58.2030   37.3340 N.3   667  ILE667     -0.1245
    134  CA        67.7060   57.5760   36.0650 C.3   667  ILE667      0.1561
    135  C         69.2430   57.6940   35.9180 C.2   667  ILE667      0.2260
    136  O         69.7740   57.5390   34.7790 O.2   667  ILE667     -0.2867
    137  CB        66.9300   58.1080   34.8380 C.3   667  ILE667      0.0252
    138  CG1       67.1930   59.6220   34.6810 C.3   667  ILE667      0.0019
    139  CG2       65.4290   57.8460   35.0360 C.3   667  ILE667      0.0019
    140  CD1       66.7570   60.2040   33.3380 C.3   667  ILE667      0.0001
@<TRIPOS>BOND
     1    91    90    1
     2    91    85    1
     3    90    89    1
     4   113   112    2
     5    89    86    1
     6    85    86    1
     7   112   111    1
     8    52    53   ar
     9    52    50   ar
    10    86    87    1
    11    53    51   ar
    12    50    47   ar
    13    87    88    2
    14   111   110    1
    15   111   114    1
    16   110   103   am
    17   128   127    2
    18    51    49   ar
    19   115   114    1
    20   115   116    1
    21   101   102    1
    22    47    49   ar
    23    47    45   ar
    24    78    77    1
    25    78    79    2
    26    77    76    1
    27    77    80    1
    28    49    48   ar
    29   103   102    1
    30   103   104    2
    31   127   126    1
    32    81    80    1
    33    81    82    1
    34   118   116   am
    35    84    82   am
    36    92    93    1
    37    44    45    1
    38    44    41    1
    39   116   117    2
    40    43    42    2
    41   102   105    1
    42    45    46   ar
    43    82    83    2
    44   105   106    1
    45   129   126    1
    46   129   130    1
    47    93    94    1
    48    93    96    1
    49    48    46   ar
    50    42    41    1
    51    42    54   am
    52   126   125    1
    53    41    40    1
    54    94    95    2
    55    74    75   ar
    56    74    72   ar
    57   132   130    1
    58    75    73   ar
    59    57    56    2
    60   130   131    1
    61    54    55    1
    62    56    55    1
    63    97    96    1
    64    97    98    1
    65    55    58    1
    66   106   107    1
    67    72    69   ar
    68   122   121    2
    69    40    31   am
    70    73    71   ar
    71   123   124    1
    72   123   120    1
    73   107   108    1
    74   121   120    1
    75    32    31    2
    76   119   120    1
    77    31    30    1
    78    60    59   ar
    79    69    71   ar
    80    69    67   ar
    81    98   100   ar
    82    98    99   ar
    83    58    59    1
    84    71    70   ar
    85    59    61   ar
    86   108   109    1
    87    67    66    1
    88    67    68   ar
    89    30    33    1
    90    30    29    1
    91    63    62    1
    92    63    66    1
    93    63    64    1
    94    33    34    1
    95    70    68   ar
    96    65    64    2
    97    36    34   ar
    98    36    38   ar
    99    34    35   ar
   100    38    39   ar
   101    35    37   ar
   102     5     2    1
   103    39    37   ar
   104     2     1    1
   105     2     3    1
   106    15    14    1
   107     4     3    2
   108    25    23   ar
   109    25    27   ar
   110    16    14    1
   111    28    27    1
   112     3     6   am
   113    14    13    2
   114    23    22   ar
   115    27    26   ar
   116   140   138    1
   117     6     7    1
   118    13    12    1
   119    26    24   ar
   120    22    24   ar
   121    22    21    1
   122    12    11    1
   123    21    18    1
   124     7     8    1
   125     7    10    1
   126    11    10    1
   127   138   137    1
   128    20    19    2
   129   136   135    2
   130   137   139    1
   131   137   134    1
   132     8     9    2
   133    18    19    1
   134    18    17    1
   135   135   134    1
   136   134   133    1
