@<TRIPOS>MOLECULE
tmp/4ktrC01.pdb
 210 200 0 0 0
SMALL
GASTEIGER

@<TRIPOS>ATOM
      1  N         17.8460   16.7400   86.9140 N.3   336  GLU336     -0.1231
      2  CA        17.9840   15.5490   87.7720 C.3   336  GLU336      0.1699
      3  C         18.9110   14.4790   87.2120 C.2   336  GLU336      0.2592
      4  O         19.6960   13.8520   87.9510 O.2   336  GLU336     -0.2718
      5  CB        16.5720   14.9080   88.0910 C.3   336  GLU336      0.0402
      6  CG        15.6500   15.7720   89.0110 C.3   336  GLU336      0.1161
      7  CD        15.2140   17.1060   88.4320 C.2   336  GLU336      0.3649
      8  OE1       15.0660   17.2410   87.1790 O.co2 336  GLU336     -0.2457
      9  OE2       15.0220   18.0740   89.2010 O.co2 336  GLU336     -0.2457
     10  N         18.7400   14.1700   85.9240 N.am  337  ILE337     -0.1980
     11  CA        19.3490   12.9820   85.3940 C.3   337  ILE337      0.1595
     12  C         20.8030   13.2780   84.9550 C.2   337  ILE337      0.2287
     13  O         21.6470   12.4310   85.0600 O.2   337  ILE337     -0.2864
     14  CB        18.4630   12.3610   84.2770 C.3   337  ILE337      0.0276
     15  CG1       17.0230   12.1060   84.8310 C.3   337  ILE337      0.0022
     16  CG2       19.1170   11.0850   83.7180 C.3   337  ILE337      0.0022
     17  CD1       16.9270   11.1440   86.0510 C.3   337  ILE337      0.0001
     18  N         22.3900   16.4330   88.5060 N.3   340  MET340     -0.1231
     19  CA        22.2660   16.1300   89.9430 C.3   340  MET340      0.1687
     20  C         23.2730   15.1230   90.4900 C.2   340  MET340      0.2434
     21  O         23.7440   15.3110   91.5950 O.2   340  MET340     -0.2733
     22  CB        20.8270   15.7350   90.3320 C.3   340  MET340      0.0400
     23  CG        20.6710   15.2120   91.7460 C.3   340  MET340      0.0596
     24  SD        18.9320   14.8670   92.1260 S.3   340  MET340     -0.1393
     25  CE        19.1970   13.6560   93.3800 C.3   340  MET340      0.0692
     26  N         23.6530   14.0960   89.7060 N.am  341  PRO341     -0.2729
     27  CA        24.6010   13.1090   90.2660 C.3   341  PRO341      0.1401
     28  C         25.9160   13.6570   90.8710 C.2   341  PRO341      0.2269
     29  O         26.3420   13.1890   91.9340 O.2   341  PRO341     -0.2865
     30  CB        24.8870   12.1650   89.0710 C.3   341  PRO341      0.0296
     31  CG        23.6270   12.2650   88.2490 C.3   341  PRO341      0.0237
     32  CD        23.1300   13.6840   88.3800 C.3   341  PRO341      0.0939
     33  N         25.0320   15.0010   94.0870 N.3   344  LEU344     -0.1231
     34  CA        24.5780   13.9350   94.9690 C.3   344  LEU344      0.1693
     35  C         25.7650   13.3280   95.7070 C.2   344  LEU344      0.2592
     36  O         25.6960   13.0630   96.9300 O.2   344  LEU344     -0.2718
     37  CB        23.8520   12.8330   94.1770 C.3   344  LEU344      0.0284
     38  CG        23.3990   11.5980   94.9800 C.3   344  LEU344      0.0019
     39  CD1       22.5800   11.8960   96.2430 C.3   344  LEU344      0.0001
     40  CD2       22.5320   10.7770   94.0650 C.3   344  LEU344      0.0001
     41  N         26.8510   13.0930   94.9640 N.am  345  TYR345     -0.1976
     42  CA        28.0270   12.3730   95.5380 C.3   345  TYR345      0.1639
     43  C         29.1430   13.3220   96.0550 C.2   345  TYR345      0.2290
     44  O         30.0110   12.8720   96.7670 O.2   345  TYR345     -0.2864
     45  CB        28.6380   11.4450   94.5220 C.3   345  TYR345      0.0560
     46  CG        27.8180   10.2300   94.1700 C.ar  345  TYR345     -0.0198
     47  CD1       27.7790    9.1290   95.0360 C.ar  345  TYR345     -0.0009
     48  CD2       27.0900   10.1540   92.9400 C.ar  345  TYR345     -0.0009
     49  CE1       27.0130    8.0110   94.7460 C.ar  345  TYR345      0.0417
     50  CE2       26.3110    9.0340   92.6440 C.ar  345  TYR345      0.0417
     51  CZ        26.3000    7.9620   93.5600 C.ar  345  TYR345      0.1957
     52  OH        25.6390    6.7930   93.3180 O.3   345  TYR345     -0.2866
     53  N         12.2800    9.1940   90.5620 N.3   422  TYR422     -0.1227
     54  CA        13.5060    8.3610   90.6010 C.3   422  TYR422      0.1736
     55  C         14.6250    9.1050   91.3240 C.2   422  TYR422      0.2595
     56  O         15.3650    8.5290   92.0740 O.2   422  TYR422     -0.2718
     57  CB        13.9380    8.0830   89.1560 C.3   422  TYR422      0.0548
     58  CG        15.3340    7.5530   88.9920 C.ar  422  TYR422     -0.0200
     59  CD1       15.5650    6.1740   88.9720 C.ar  422  TYR422     -0.0009
     60  CD2       16.4330    8.4300   88.8590 C.ar  422  TYR422     -0.0009
     61  CE1       16.8620    5.6770   88.8110 C.ar  422  TYR422      0.0417
     62  CE2       17.7350    7.9410   88.7050 C.ar  422  TYR422      0.0417
     63  CZ        17.9240    6.5660   88.6770 C.ar  422  TYR422      0.1957
     64  OH        19.1880    6.0130   88.5340 O.3   422  TYR422     -0.2866
     65  N         14.7640   10.3960   91.0620 N.am  423  ALA423     -0.1980
     66  CA        15.8440   11.1690   91.6420 C.3   423  ALA423      0.1597
     67  C         15.6210   11.2860   93.2030 C.2   423  ALA423      0.2287
     68  O         16.5850   11.2360   93.9570 O.2   423  ALA423     -0.2864
     69  CB        15.9720   12.5690   90.9560 C.3   423  ALA423      0.0319
     70  N         16.7130    7.9640   94.6420 N.3   426  LYS426     -0.1245
     71  CA        18.1600    7.7640   94.5360 C.3   426  LYS426      0.1561
     72  C         18.8420    8.6610   95.5640 C.2   426  LYS426      0.2260
     73  O         19.7880    8.2270   96.2330 O.2   426  LYS426     -0.2867
     74  CB        18.6730    8.0620   93.0960 C.3   426  LYS426      0.0271
     75  CG        18.2070    7.0070   92.0750 C.3   426  LYS426      0.0035
     76  CD        18.8800    5.6800   92.4490 C.3   426  LYS426      0.0206
     77  CE        18.0990    4.4580   92.0130 C.3   426  LYS426      0.1093
     78  NZ        19.0450    3.3350   91.9790 N.3   426  LYS426     -0.1314
     79  N         21.2000    7.0890   98.4620 N.3   430  VAL430     -0.1245
     80  CA        22.6130    7.5020   98.5740 C.3   430  VAL430      0.1561
     81  C         22.9300    8.2200   99.8820 C.2   430  VAL430      0.2260
     82  O         23.9180    7.9280  100.4720 O.2   430  VAL430     -0.2867
     83  CB        23.1090    8.2840   97.3250 C.3   430  VAL430      0.0252
     84  CG1       24.5290    8.8550   97.5230 C.3   430  VAL430      0.0019
     85  CG2       23.0760    7.3430   96.1180 C.3   430  VAL430      0.0019
     86  N         19.2400    1.6020   81.1740 N.3   595  PHE595     -0.1227
     87  CA        20.3800    0.9250   81.8090 C.3   595  PHE595      0.1736
     88  C         21.2760    1.9120   82.5510 C.2   595  PHE595      0.2595
     89  O         21.8660    1.5190   83.5600 O.2   595  PHE595     -0.2718
     90  CB        21.2670    0.1360   80.7960 C.3   595  PHE595      0.0547
     91  CG        20.5030   -0.7910   79.8740 C.ar  595  PHE595     -0.0202
     92  CD1       19.5390   -1.6550   80.3670 C.ar  595  PHE595     -0.0042
     93  CD2       20.8300   -0.8640   78.5270 C.ar  595  PHE595     -0.0042
     94  CE1       18.9010   -2.5610   79.5210 C.ar  595  PHE595     -0.0003
     95  CE2       20.1920   -1.7600   77.6970 C.ar  595  PHE595     -0.0003
     96  CZ        19.2290   -2.5910   78.1860 C.ar  595  PHE595     -0.0000
     97  N         21.4280    3.1590   82.0630 N.am  596  VAL596     -0.1966
     98  CA        22.1450    4.1940   82.8900 C.3   596  VAL596      0.1727
     99  C         21.4750    4.3790   84.2960 C.2   596  VAL596      0.2616
    100  O         22.1660    4.3940   85.2960 O.2   596  VAL596     -0.2715
    101  CB        22.2810    5.5680   82.1710 C.3   596  VAL596      0.0290
    102  CG1       23.0700    6.5700   83.0230 C.3   596  VAL596      0.0023
    103  CG2       22.9380    5.4240   80.7920 C.3   596  VAL596      0.0023
    104  N         20.1330    4.3860   84.3580 N.am  597  LEU597     -0.1977
    105  CA        19.3960    4.7060   85.5620 C.3   597  LEU597      0.1596
    106  C         19.2520    3.4610   86.4680 C.2   597  LEU597      0.2287
    107  O         19.0710    3.5870   87.7060 O.2   597  LEU597     -0.2864
    108  CB        17.9900    5.2440   85.2010 C.3   597  LEU597      0.0297
    109  CG        17.9740    6.7610   85.0580 C.3   597  LEU597      0.0022
    110  CD1       19.0000    7.2920   84.1030 C.3   597  LEU597      0.0001
    111  CD2       16.6510    7.3450   84.7040 C.3   597  LEU597      0.0001
    112  N         21.2900    0.2660   86.5800 N.3   599  PRO599     -0.2116
    113  CA        22.4100   -0.5580   86.1370 C.3   599  PRO599      0.1372
    114  C         22.3700   -2.0020   86.6060 C.2   599  PRO599      0.2244
    115  O         22.9790   -2.8570   85.9650 O.2   599  PRO599     -0.2868
    116  CB        23.6530    0.1470   86.6940 C.3   599  PRO599      0.0268
    117  CG        23.1690    1.1480   87.6630 C.3   599  PRO599      0.0207
    118  CD        21.7260    1.4390   87.3640 C.3   599  PRO599      0.0892
    119  N         24.5030   -8.4250   82.3310 N.3   604  ARG604     -0.1245
    120  CA        25.4950   -7.7430   81.4900 C.3   604  ARG604      0.1563
    121  C         25.2750   -8.1360   80.0280 C.2   604  ARG604      0.2260
    122  O         25.2970   -7.2820   79.1380 O.2   604  ARG604     -0.2867
    123  CB        26.8970   -8.1770   81.9150 C.3   604  ARG604      0.0307
    124  CG        27.8740   -7.0820   82.2490 C.3   604  ARG604      0.0489
    125  CD        29.0450   -7.7280   82.9600 C.3   604  ARG604      0.2205
    126  NE        30.2940   -7.0270   82.7110 N.pl3 604  ARG604     -0.0865
    127  CZ        31.1850   -7.3390   81.7610 C.cat 604  ARG604      0.5346
    128  NH1       32.3070   -6.6210   81.6440 N.pl3 604  ARG604      0.1354
    129  NH2       30.9640   -8.3490   80.9220 N.pl3 604  ARG604      0.1354
    130  N         22.3730   -6.2620   78.4050 N.3   607  VAL607     -0.1245
    131  CA        22.6600   -4.8620   78.2340 C.3   607  VAL607      0.1561
    132  C         23.5470   -4.7020   76.9750 C.2   607  VAL607      0.2260
    133  O         23.3620   -3.7940   76.1730 O.2   607  VAL607     -0.2867
    134  CB        23.3260   -4.2430   79.4830 C.3   607  VAL607      0.0252
    135  CG1       23.8590   -2.8730   79.1450 C.3   607  VAL607      0.0019
    136  CG2       22.3240   -4.1340   80.6580 C.3   607  VAL607      0.0019
    137  N         28.6640    5.7160   79.3520 N.3   631  ILE631     -0.1231
    138  CA        28.4200    5.1680   80.6720 C.3   631  ILE631      0.1692
    139  C         28.0870    3.7160   80.5260 C.2   631  ILE631      0.2591
    140  O         28.7100    2.8950   81.1880 O.2   631  ILE631     -0.2718
    141  CB        27.3760    5.9030   81.4900 C.3   631  ILE631      0.0266
    142  CG1       27.9570    7.2240   82.0430 C.3   631  ILE631      0.0019
    143  CG2       26.8940    4.9990   82.6310 C.3   631  ILE631      0.0020
    144  CD1       26.8810    8.2760   82.3470 C.3   631  ILE631      0.0001
    145  N         27.1850    3.3630   79.6130 N.am  632  VAL632     -0.1980
    146  CA        26.8510    1.9520   79.5080 C.3   632  VAL632      0.1595
    147  C         28.0350    1.1430   78.9730 C.2   632  VAL632      0.2287
    148  O         28.3040    0.0660   79.5070 O.2   632  VAL632     -0.2864
    149  CB        25.5840    1.7150   78.6960 C.3   632  VAL632      0.0276
    150  CG1       25.3740    0.2300   78.3880 C.3   632  VAL632      0.0022
    151  CG2       24.3610    2.2890   79.4150 C.3   632  VAL632      0.0022
    152  N         30.8720   -0.3310   81.0450 N.3   635  GLN635     -0.1231
    153  CA        30.6100   -1.4690   81.9810 C.3   635  GLN635      0.1698
    154  C         30.2060   -2.7630   81.2930 C.2   635  GLN635      0.2592
    155  O         29.8280   -3.6850   81.9470 O.2   635  GLN635     -0.2718
    156  CB        29.5240   -1.0560   82.9870 C.3   635  GLN635      0.0381
    157  CG        30.0000   -0.0070   83.9490 C.3   635  GLN635      0.0905
    158  CD        31.2550   -0.4360   84.6670 C.2   635  GLN635      0.2608
    159  OE1       31.4600   -1.6190   84.9520 O.2   635  GLN635     -0.2717
    160  NE2       32.1120    0.5230   84.9670 N.am  635  GLN635     -0.0878
    161  N         30.2630   -2.8180   79.9620 N.am  636  ILE636     -0.1980
    162  CA        30.0580   -4.0850   79.2340 C.3   636  ILE636      0.1595
    163  C         31.2510   -4.4370   78.3480 C.2   636  ILE636      0.2287
    164  O         31.0990   -4.9910   77.2280 O.2   636  ILE636     -0.2864
    165  CB        28.7220   -4.0410   78.3730 C.3   636  ILE636      0.0276
    166  CG1       28.7960   -2.8860   77.3610 C.3   636  ILE636      0.0022
    167  CG2       27.4970   -3.9130   79.3080 C.3   636  ILE636      0.0022
    168  CD1       27.6920   -2.7910   76.3480 C.3   636  ILE636      0.0001
    169  N         29.9850   12.2250   85.5660 N.3   680  GLN680     -0.1245
    170  CA        29.3920   10.8910   85.7040 C.3   680  GLN680      0.1566
    171  C         30.1340    9.9360   84.8500 C.2   680  GLN680      0.2260
    172  O         30.2540    8.7410   85.2130 O.2   680  GLN680     -0.2867
    173  CB        27.8830   10.7810   85.2790 C.3   680  GLN680      0.0367
    174  CG        26.9360   11.7950   85.8950 C.3   680  GLN680      0.0905
    175  CD        25.4710   11.6130   85.4180 C.2   680  GLN680      0.2608
    176  OE1       25.0060   10.4930   85.1750 O.2   680  GLN680     -0.2717
    177  NE2       24.7590   12.7310   85.2590 N.am  680  GLN680     -0.0878
    178  N         30.6750    7.3360   87.5210 N.3   684  ASN684     -0.1240
    179  CA        29.6810    6.2640   87.3540 C.3   684  ASN684      0.1653
    180  C         30.0230    5.3260   86.2110 C.2   684  ASN684      0.2266
    181  O         29.8960    4.1000   86.3260 O.2   684  ASN684     -0.2867
    182  CB        28.3080    6.8650   87.2120 C.3   684  ASN684      0.1155
    183  CG        27.9630    7.7110   88.4040 C.2   684  ASN684      0.2627
    184  OD1       27.7650    8.9110   88.2580 O.2   684  ASN684     -0.2716
    185  ND2       27.9480    7.0860   89.6420 N.am  684  ASN684     -0.0877
    186  N         32.2140    2.8970   87.5570 N.3   688  GLY688     -0.1210
    187  CA        31.0730    2.0320   87.8430 C.3   688  GLY688      0.1956
    188  C         30.5180    2.2040   89.2420 C.2   688  GLY688      0.2612
    189  O         30.0630    1.2500   89.8400 O.2   688  GLY688     -0.2717
    190  N         30.6330    3.3920   89.7960 N.am  689  LEU689     -0.1965
    191  CA        30.0760    3.6340   91.1160 C.3   689  LEU689      0.1728
    192  C         28.5460    3.6390   91.0190 C.2   689  LEU689      0.2617
    193  O         27.9710    4.3980   90.2200 O.2   689  LEU689     -0.2715
    194  CB        30.4790    5.0200   91.6300 C.3   689  LEU689      0.0311
    195  CG        29.7340    5.5070   92.9140 C.3   689  LEU689      0.0022
    196  CD1       29.9920    4.5870   94.1380 C.3   689  LEU689      0.0001
    197  CD2       30.0770    6.9690   93.1870 C.3   689  LEU689      0.0001
    198  N         27.8980    2.8410   91.8540 N.am  690  SER690     -0.1936
    199  CA        26.4570    2.9830   92.0180 C.3   690  SER690      0.2055
    200  C         26.0270    2.4010   93.3740 C.2   690  SER690      0.2642
    201  O         26.8230    1.7950   94.0960 O.2   690  SER690     -0.2714
    202  CB        25.7100    2.3500   90.8500 C.3   690  SER690      0.2130
    203  OG        25.8710    0.9420   90.8700 O.3   690  SER690     -0.2179
    204  N         24.7870    2.6430   93.7320 N.am  691  VAL691     -0.1977
    205  CA        24.2130    2.1730   94.9920 C.3   691  VAL691      0.1596
    206  C         22.9020    1.3860   94.6870 C.2   691  VAL691      0.2287
    207  O         21.9910    1.8990   94.0280 O.2   691  VAL691     -0.2864
    208  CB        23.9430    3.3830   95.8990 C.3   691  VAL691      0.0276
    209  CG1       23.0140    3.0520   97.0530 C.3   691  VAL691      0.0022
    210  CG2       25.2530    3.9700   96.4130 C.3   691  VAL691      0.0022
@<TRIPOS>BOND
     1   133   132    2
     2   168   166    1
     3   132   131    1
     4   164   163    2
     5   166   165    1
     6    95    96   ar
     7    95    93   ar
     8    96    94   ar
     9   131   130    1
    10   131   134    1
    11   163   162    1
    12   165   162    1
    13   165   167    1
    14   150   149    1
    15    93    91   ar
    16   149   151    1
    17   149   146    1
    18   147   148    2
    19   147   146    1
    20   122   121    2
    21   135   134    1
    22   162   161    1
    23   137   138    1
    24   134   136    1
    25   146   145    1
    26    94    92   ar
    27   145   139   am
    28    91    92   ar
    29    91    90    1
    30   161   154   am
    31   121   120    1
    32   139   138    1
    33   139   140    2
    34   138   141    1
    35   103   101    1
    36    90    87    1
    37   129   127    1
    38   152   153    1
    39    86    87    1
    40   154   155    2
    41   154   153    1
    42   120   123    1
    43   120   119    1
    44   141   142    1
    45   141   143    1
    46   128   127    1
    47   127   126    2
    48    87    88    1
    49   123   124    1
    50   153   156    1
    51   142   144    1
    52    97    88   am
    53    97    98    1
    54   101    98    1
    55   101   102    1
    56   124   125    1
    57    88    89    2
    58   126   125    1
    59    98    99    1
    60   156   157    1
    61    16    14    1
    62   157   158    1
    63   110   109    1
    64    14    15    1
    65    14    11    1
    66    99   104   am
    67    99   100    2
    68   104   105    1
    69   158   159    2
    70   158   160   am
    71   111   109    1
    72    15    17    1
    73   171   172    2
    74   171   170    1
    75    12    13    2
    76    12    11    1
    77   109   108    1
    78   176   175    2
    79   108   105    1
    80   177   175   am
    81   173   170    1
    82   173   174    1
    83    11    10    1
    84   175   174    1
    85   105   106    1
    86   169   170    1
    87    10     3   am
    88   115   114    2
    89   113   112    1
    90   113   114    1
    91   113   116    1
    92   180   181    2
    93   180   179    1
    94   106   107    2
    95   112   118    1
    96   116   117    1
    97     1     2    1
    98     8     7   ar
    99   182   179    1
   100   182   183    1
   101     3     2    1
   102     3     4    2
   103   179   178    1
   104   118   117    1
   105   186   187    1
   106     2     5    1
   107   187   188    1
   108     5     6    1
   109    31    32    1
   110    31    30    1
   111   184   183    2
   112    32    26    1
   113   183   185   am
   114     7     6    1
   115     7     9   ar
   116    18    19    1
   117    64    63    1
   118    63    62   ar
   119    63    61   ar
   120    62    60   ar
   121    61    59   ar
   122    60    58   ar
   123    59    58   ar
   124    58    57    1
   125    30    27    1
   126    57    54    1
   127   188   190   am
   128   188   189    2
   129    26    27    1
   130    26    20   am
   131   190   191    1
   132    19    22    1
   133    19    20    1
   134   193   192    2
   135    27    28    1
   136    22    23    1
   137    20    21    2
   138    53    54    1
   139    54    55    1
   140   202   203    1
   141   202   199    1
   142    28    29    2
   143    69    66    1
   144   192   191    1
   145   192   198   am
   146    65    55   am
   147    65    66    1
   148   191   194    1
   149    55    56    2
   150   194   195    1
   151    66    67    1
   152    23    24    1
   153   198   199    1
   154    78    77    1
   155    77    76    1
   156   199   200    1
   157    75    76    1
   158    75    74    1
   159    24    25    1
   160    50    48   ar
   161    50    51   ar
   162   195   197    1
   163   195   196    1
   164    48    46   ar
   165    74    71    1
   166    67    68    2
   167    52    51    1
   168   200   204   am
   169   200   201    2
   170    51    49   ar
   171   204   205    1
   172   207   206    2
   173    40    38    1
   174    33    34    1
   175    46    45    1
   176    46    47   ar
   177    37    34    1
   178    37    38    1
   179    45    42    1
   180    71    70    1
   181    71    72    1
   182   206   205    1
   183    49    47   ar
   184    41    42    1
   185    41    35   am
   186    34    35    1
   187    38    39    1
   188   205   208    1
   189    42    43    1
   190    72    73    2
   191    35    36    2
   192   208   210    1
   193   208   209    1
   194    43    44    2
   195    85    83    1
   196    83    84    1
   197    83    80    1
   198    79    80    1
   199    80    81    1
   200    81    82    2
