@<TRIPOS>MOLECULE
tmp/4ktrF02.pdb
 139 132 0 0 0
SMALL
GASTEIGER

@<TRIPOS>ATOM
      1  N         58.0990   56.0430  -12.6330 N.3   336  GLU336     -0.1231
      2  CA        59.1380   57.0310  -12.9940 C.3   336  GLU336      0.1699
      3  C         59.6330   57.8710  -11.8260 C.2   336  GLU336      0.2592
      4  O         60.8580   58.0880  -11.6450 O.2   336  GLU336     -0.2718
      5  CB        58.6450   57.9350  -14.1350 C.3   336  GLU336      0.0402
      6  CG        58.6530   57.1810  -15.4600 C.3   336  GLU336      0.1161
      7  CD        57.4230   56.3200  -15.6440 C.2   336  GLU336      0.3649
      8  OE1       56.4220   56.4740  -14.8910 O.co2 336  GLU336     -0.2457
      9  OE2       57.4460   55.5250  -16.5800 O.co2 336  GLU336     -0.2457
     10  N         58.6860   58.3540  -11.0300 N.am  337  ILE337     -0.1980
     11  CA        59.0500   59.2360   -9.9480 C.3   337  ILE337      0.1595
     12  C         59.6040   58.5020   -8.7190 C.2   337  ILE337      0.2287
     13  O         60.5160   59.0110   -8.0790 O.2   337  ILE337     -0.2864
     14  CB        57.8760   60.1830   -9.5920 C.3   337  ILE337      0.0276
     15  CG1       57.4190   60.9620  -10.8340 C.3   337  ILE337      0.0022
     16  CG2       58.2350   61.0830   -8.4240 C.3   337  ILE337      0.0022
     17  CD1       58.5510   61.5270  -11.7030 C.3   337  ILE337      0.0001
     18  N         62.2230   54.6420  -10.6250 N.3   340  MET340     -0.1231
     19  CA        63.2540   54.8820  -11.6330 C.3   340  MET340      0.1687
     20  C         64.6280   55.3730  -11.0890 C.2   340  MET340      0.2434
     21  O         65.6350   54.8630  -11.5480 O.2   340  MET340     -0.2733
     22  CB        62.7730   55.8090  -12.7520 C.3   340  MET340      0.0400
     23  CG        63.7240   55.8300  -13.9340 C.3   340  MET340      0.0596
     24  SD        63.1700   56.9040  -15.2700 S.3   340  MET340     -0.1393
     25  CE        64.4110   58.2030  -15.3310 C.3   340  MET340      0.0692
     26  N         64.6520   56.3340  -10.1300 N.am  341  PRO341     -0.2729
     27  CA        65.8970   56.9360   -9.6560 C.3   341  PRO341      0.1401
     28  C         66.9430   55.9550   -9.2530 C.2   341  PRO341      0.2269
     29  O         68.0640   56.0280   -9.7800 O.2   341  PRO341     -0.2865
     30  CB        65.4660   57.8140   -8.4790 C.3   341  PRO341      0.0296
     31  CG        64.0910   58.2520   -8.8770 C.3   341  PRO341      0.0237
     32  CD        63.4880   57.0090   -9.5200 C.3   341  PRO341      0.0939
     33  N         68.2780   54.8250  -12.2380 N.3   344  LEU344     -0.1231
     34  CA        68.8760   55.9030  -13.0140 C.3   344  LEU344      0.1693
     35  C         70.3590   55.9560  -12.6430 C.2   344  LEU344      0.2592
     36  O         71.2050   55.8750  -13.4890 O.2   344  LEU344     -0.2718
     37  CB        68.2180   57.2770  -12.7720 C.3   344  LEU344      0.0284
     38  CG        68.8210   58.5080  -13.5280 C.3   344  LEU344      0.0019
     39  CD1       69.0760   58.2640  -15.0150 C.3   344  LEU344      0.0001
     40  CD2       67.9930   59.7730  -13.3630 C.3   344  LEU344      0.0001
     41  N         70.6230   55.9880  -11.3450 N.am  345  TYR345     -0.1976
     42  CA        71.9290   56.1980  -10.8150 C.3   345  TYR345      0.1639
     43  C         72.7430   54.9450  -10.5410 C.2   345  TYR345      0.2290
     44  O         73.9400   55.0790  -10.2920 O.2   345  TYR345     -0.2864
     45  CB        71.8100   56.9930   -9.5330 C.3   345  TYR345      0.0560
     46  CG        71.3600   58.4290   -9.7010 C.ar  345  TYR345     -0.0198
     47  CD1       72.1550   59.3770  -10.3790 C.ar  345  TYR345     -0.0009
     48  CD2       70.1400   58.8500   -9.1700 C.ar  345  TYR345     -0.0009
     49  CE1       71.7310   60.6980  -10.5240 C.ar  345  TYR345      0.0417
     50  CE2       69.7090   60.1530   -9.3100 C.ar  345  TYR345      0.0417
     51  CZ        70.5050   61.0770   -9.9760 C.ar  345  TYR345      0.1957
     52  OH        70.0320   62.3590  -10.0730 O.3   345  TYR345     -0.2866
     53  N         59.3650   64.6920  -17.7710 N.3   422  TYR422     -0.1227
     54  CA        60.3420   64.9870  -16.7820 C.3   422  TYR422      0.1736
     55  C         61.3470   63.8590  -16.6810 C.2   422  TYR422      0.2595
     56  O         62.5400   64.0930  -16.6700 O.2   422  TYR422     -0.2718
     57  CB        59.6670   65.2240  -15.4600 C.3   422  TYR422      0.0548
     58  CG        60.5970   65.3040  -14.2700 C.ar  422  TYR422     -0.0200
     59  CD1       61.1140   66.5250  -13.8430 C.ar  422  TYR422     -0.0009
     60  CD2       60.9230   64.1410  -13.5340 C.ar  422  TYR422     -0.0009
     61  CE1       61.9560   66.5980  -12.7350 C.ar  422  TYR422      0.0417
     62  CE2       61.7420   64.1930  -12.4180 C.ar  422  TYR422      0.0417
     63  CZ        62.2640   65.4170  -12.0130 C.ar  422  TYR422      0.1957
     64  OH        63.0680   65.4660  -10.8740 O.3   422  TYR422     -0.2866
     65  N         60.8790   62.6220  -16.6270 N.am  423  ALA423     -0.1980
     66  CA        61.7920   61.5210  -16.3150 C.3   423  ALA423      0.1597
     67  C         62.6780   61.3710  -17.5280 C.2   423  ALA423      0.2287
     68  O         63.8300   60.9730  -17.4230 O.2   423  ALA423     -0.2864
     69  CB        61.0120   60.2340  -16.0160 C.3   423  ALA423      0.0319
     70  N         65.3580   64.0700  -17.1980 N.3   426  LYS426     -0.1245
     71  CA        66.3240   63.8020  -16.1140 C.3   426  LYS426      0.1561
     72  C         67.2300   62.6200  -16.4510 C.2   426  LYS426      0.2260
     73  O         68.4250   62.6430  -16.1290 O.2   426  LYS426     -0.2867
     74  CB        65.7140   63.6560  -14.7260 C.3   426  LYS426      0.0271
     75  CG        65.1460   64.9520  -14.0960 C.3   426  LYS426      0.0035
     76  CD        66.1700   66.0120  -13.6720 C.3   426  LYS426      0.0206
     77  CE        65.5380   67.1060  -12.8150 C.3   426  LYS426      0.1093
     78  NZ        65.7310   68.5200  -13.2690 N.3   426  LYS426     -0.1314
     79  N         60.7040   68.0200   -4.4250 N.3   596  VAL596     -0.1231
     80  CA        61.4290   66.7660   -4.5930 C.3   596  VAL596      0.1692
     81  C         61.9760   66.6710   -6.0050 C.2   596  VAL596      0.2591
     82  O         63.0790   66.1770   -6.2290 O.2   596  VAL596     -0.2718
     83  CB        60.5780   65.5040   -4.2730 C.3   596  VAL596      0.0266
     84  CG1       61.3390   64.2600   -4.6750 C.3   596  VAL596      0.0020
     85  CG2       60.1830   65.4630   -2.8030 C.3   596  VAL596      0.0020
     86  N         61.1890   67.1190   -6.9650 N.am  597  LEU597     -0.1980
     87  CA        61.5600   66.9130   -8.3420 C.3   597  LEU597      0.1596
     88  C         62.4630   68.0190   -8.9120 C.2   597  LEU597      0.2287
     89  O         63.2440   67.7890   -9.8180 O.2   597  LEU597     -0.2864
     90  CB        60.2980   66.7800   -9.1790 C.3   597  LEU597      0.0297
     91  CG        59.7070   65.3840   -9.3550 C.3   597  LEU597      0.0022
     92  CD1       59.0930   64.8740   -8.0610 C.3   597  LEU597      0.0001
     93  CD2       58.6300   65.5360  -10.4130 C.3   597  LEU597      0.0001
     94  N         64.6910   70.3440   -7.0620 N.3   599  PRO599     -0.2116
     95  CA        65.2280   70.8320   -5.7700 C.3   599  PRO599      0.1372
     96  C         65.9880   72.1730   -5.8990 C.2   599  PRO599      0.2244
     97  O         66.1710   72.8670   -4.9100 O.2   599  PRO599     -0.2868
     98  CB        66.1710   69.7080   -5.3340 C.3   599  PRO599      0.0268
     99  CG        66.6200   69.0950   -6.6290 C.3   599  PRO599      0.0207
    100  CD        65.5290   69.2960   -7.6660 C.3   599  PRO599      0.0892
    101  N         62.8480   63.7090    2.0780 N.3   631  ILE631     -0.1245
    102  CA        63.8400   64.1310    1.1380 C.3   631  ILE631      0.1561
    103  C         63.9500   65.6400    1.1630 C.2   631  ILE631      0.2260
    104  O         65.0240   66.1930    0.9500 O.2   631  ILE631     -0.2867
    105  CB        63.4520   63.7080   -0.2700 C.3   631  ILE631      0.0252
    106  CG1       63.7110   62.2130   -0.4170 C.3   631  ILE631      0.0019
    107  CG2       64.1910   64.5420   -1.3470 C.3   631  ILE631      0.0019
    108  CD1       62.9260   61.6260   -1.5530 C.3   631  ILE631      0.0001
    109  N         66.1280   56.3940   -2.5490 N.3   680  GLN680     -0.1245
    110  CA        66.1700   57.8400   -2.8240 C.3   680  GLN680      0.1566
    111  C         66.4060   58.6570   -1.5710 C.2   680  GLN680      0.2260
    112  O         67.0560   59.7200   -1.6270 O.2   680  GLN680     -0.2867
    113  CB        64.8550   58.3390   -3.4300 C.3   680  GLN680      0.0367
    114  CG        64.7320   58.3020   -4.9390 C.3   680  GLN680      0.0905
    115  CD        63.3220   58.6870   -5.3580 C.2   680  GLN680      0.2608
    116  OE1       62.9020   59.8370   -5.1730 O.2   680  GLN680     -0.2717
    117  NE2       62.5670   57.7150   -5.8980 N.am  680  GLN680     -0.0878
    118  N         69.4330   60.8010   -2.3920 N.3   684  ASN684     -0.1240
    119  CA        68.9580   62.0880   -2.8600 C.3   684  ASN684      0.1653
    120  C         68.5250   62.9450   -1.6910 C.2   684  ASN684      0.2266
    121  O         68.5890   64.1670   -1.7540 O.2   684  ASN684     -0.2867
    122  CB        67.7750   61.9080   -3.8330 C.3   684  ASN684      0.1155
    123  CG        68.1140   61.0260   -5.0410 C.2   684  ASN684      0.2627
    124  OD1       67.4390   60.0400   -5.2880 O.2   684  ASN684     -0.2716
    125  ND2       69.1500   61.3840   -5.7960 N.am  684  ASN684     -0.0877
    126  N         72.1730   64.0460   -3.4880 N.3   689  LEU689     -0.1231
    127  CA        72.5820   63.8830   -4.8790 C.3   689  LEU689      0.1693
    128  C         71.4940   64.4550   -5.8090 C.2   689  LEU689      0.2592
    129  O         70.3390   64.5560   -5.4110 O.2   689  LEU689     -0.2718
    130  CB        72.8770   62.4290   -5.1730 C.3   689  LEU689      0.0284
    131  CG        73.1840   62.1840   -6.6380 C.3   689  LEU689      0.0019
    132  CD1       74.5850   62.6390   -7.0350 C.3   689  LEU689      0.0001
    133  CD2       73.0150   60.7180   -6.9390 C.3   689  LEU689      0.0001
    134  N         71.8710   64.8560   -7.0240 N.am  690  SER690     -0.1952
    135  CA        70.9980   65.6100   -7.9530 C.3   690  SER690      0.1924
    136  C         71.8100   66.2520   -9.0540 C.2   690  SER690      0.2314
    137  O         72.9780   66.6020   -8.8920 O.2   690  SER690     -0.2863
    138  CB        70.1300   66.6940   -7.2770 C.3   690  SER690      0.2116
    139  OG        70.8980   67.7850   -6.8310 O.3   690  SER690     -0.2180
@<TRIPOS>BOND
     1    53    54    1
     2    67    68    2
     3    67    66    1
     4    70    71    1
     5    54    55    1
     6    54    57    1
     7    55    56    2
     8    55    65   am
     9    65    66    1
    10     9     7   ar
    11    72    73    2
    12    72    71    1
    13    66    69    1
    14    71    74    1
    15     7     6    1
    16     7     8   ar
    17    57    58    1
    18     6     5    1
    19    25    24    1
    20    24    23    1
    21    39    38    1
    22    74    75    1
    23    58    59   ar
    24    58    60   ar
    25     5     2    1
    26    75    76    1
    27    23    22    1
    28    59    61   ar
    29    76    77    1
    30    60    62   ar
    31    38    40    1
    32    38    37    1
    33    36    35    2
    34    78    77    1
    35    34    37    1
    36    34    35    1
    37    34    33    1
    38     2     1    1
    39     2     3    1
    40    22    19    1
    41    61    63   ar
    42    35    41   am
    43    62    63   ar
    44    63    64    1
    45     3     4    2
    46     3    10   am
    47    17    15    1
    48    19    20    1
    49    19    18    1
    50    21    20    2
    51    41    42    1
    52    20    26   am
    53    10    11    1
    54    15    14    1
    55    42    43    1
    56    42    45    1
    57    43    44    2
    58    49    47   ar
    59    49    51   ar
    60    93    91    1
    61    47    46   ar
    62    26    27    1
    63    26    32    1
    64    52    51    1
    65    51    50   ar
    66    11    14    1
    67    11    12    1
    68    89    88    2
    69    29    28    2
    70    46    45    1
    71    46    48   ar
    72    27    28    1
    73    27    30    1
    74    14    16    1
    75    32    31    1
    76    91    90    1
    77    91    92    1
    78    50    48   ar
    79    90    87    1
    80   136   137    2
    81   136   135    1
    82    88    87    1
    83    31    30    1
    84    12    13    2
    85    87    86    1
    86   135   138    1
    87   135   134    1
    88   100    94    1
    89   100    99    1
    90   138   139    1
    91    94    95    1
    92   132   131    1
    93   134   128   am
    94    86    81   am
    95   133   131    1
    96   131   130    1
    97    99    98    1
    98    82    81    2
    99    81    80    1
   100    96    95    1
   101    96    97    2
   102   117   115   am
   103   128   129    2
   104   128   127    1
   105   125   123   am
   106    95    98    1
   107   115   116    2
   108   115   114    1
   109   124   123    2
   110   130   127    1
   111   123   122    1
   112   114   113    1
   113   127   126    1
   114    84    83    1
   115    80    79    1
   116    80    83    1
   117    83    85    1
   118   122   119    1
   119   113   110    1
   120   119   118    1
   121   119   120    1
   122   110   109    1
   123   110   111    1
   124   121   120    2
   125   112   111    2
   126   108   106    1
   127   107   105    1
   128   106   105    1
   129   105   102    1
   130   104   103    2
   131   102   103    1
   132   102   101    1
