@<TRIPOS>MOLECULE
tmp/4ktrH01.pdb
 79 75 0 0 0
SMALL
GASTEIGER

@<TRIPOS>ATOM
      1  N          2.5940   60.6410   71.8290 N.3    65  LYS65      -0.1245
      2  CA         3.9060   60.7640   71.2240 C.3    65  LYS65       0.1561
      3  C          4.6670   59.4400   71.4130 C.2    65  LYS65       0.2260
      4  O          5.8510   59.4350   71.7770 O.2    65  LYS65      -0.2867
      5  CB         4.6380   61.9200   71.9410 C.3    65  LYS65       0.0271
      6  CG         5.7540   62.6090   71.1630 C.3    65  LYS65       0.0035
      7  CD         6.3190   63.7440   72.0060 C.3    65  LYS65       0.0206
      8  CE         7.5950   64.2670   71.3960 C.3    65  LYS65       0.1093
      9  NZ         8.1040   65.4260   72.1720 N.3    65  LYS65      -0.1314
     10  N          8.3780   59.1160   70.2940 N.3    68  GLY68      -0.1210
     11  CA         9.3250   60.1640   70.7690 C.3    68  GLY68       0.1956
     12  C          9.5300   61.4640   69.9680 C.2    68  GLY68       0.2611
     13  O         10.2900   62.3540   70.3740 O.2    68  GLY68      -0.2717
     14  N          8.8870   61.5970   68.8150 N.am   69  LYS69      -0.1979
     15  CA         9.0470   62.8100   68.0010 C.3    69  LYS69       0.1596
     16  C          7.6870   63.5170   67.6390 C.2    69  LYS69       0.2287
     17  O          7.4500   64.7130   67.9440 O.2    69  LYS69      -0.2864
     18  CB         9.8310   62.4590   66.7600 C.3    69  LYS69       0.0298
     19  CG        10.0540   63.6310   65.8390 C.3    69  LYS69       0.0038
     20  CD        10.8950   63.2020   64.6650 C.3    69  LYS69       0.0206
     21  CE        11.3220   64.3820   63.7950 C.3    69  LYS69       0.1093
     22  NZ        11.9500   63.9450   62.5050 N.3    69  LYS69      -0.1314
     23  N         11.7670   79.6190   76.5690 N.3   371  ARG371     -0.1245
     24  CA        12.6470   78.5810   76.0260 C.3   371  ARG371      0.1563
     25  C         13.6210   79.1560   74.9950 C.2   371  ARG371      0.2260
     26  O         14.7940   78.8050   74.9950 O.2   371  ARG371     -0.2867
     27  CB        11.8470   77.3920   75.4180 C.3   371  ARG371      0.0307
     28  CG        12.7630   76.2700   74.8960 C.3   371  ARG371      0.0489
     29  CD        12.1120   74.9510   74.4240 C.3   371  ARG371      0.2205
     30  NE        10.8890   75.1150   73.6190 N.pl3 371  ARG371     -0.0865
     31  CZ        10.8290   75.3770   72.2970 C.cat 371  ARG371      0.5346
     32  NH1       11.9300   75.5200   71.5350 N.pl3 371  ARG371      0.1354
     33  NH2        9.6370   75.4920   71.7240 N.pl3 371  ARG371      0.1354
     34  N          4.8500   74.0270   72.0280 N.3   389  GLU389     -0.1231
     35  CA         5.2240   73.6650   70.6860 C.3   389  GLU389      0.1699
     36  C          5.1760   72.1240   70.3630 C.2   389  GLU389      0.2592
     37  O          5.8940   71.3410   70.9900 O.2   389  GLU389     -0.2718
     38  CB         6.6300   74.1940   70.4360 C.3   389  GLU389      0.0402
     39  CG         7.1110   74.0030   69.0030 C.3   389  GLU389      0.1161
     40  CD         6.2050   74.7010   67.9910 C.2   389  GLU389      0.3649
     41  OE1        5.3760   74.0000   67.3560 O.co2 389  GLU389     -0.2457
     42  OE2        6.3240   75.9490   67.8250 O.co2 389  GLU389     -0.2457
     43  N          4.3680   71.7080   69.3770 N.am  390  LEU390     -0.1966
     44  CA         4.4110   70.2890   68.9220 C.3   390  LEU390      0.1728
     45  C          5.2060   70.1130   67.6380 C.2   390  LEU390      0.2616
     46  O          5.4050   69.0100   67.2110 O.2   390  LEU390     -0.2715
     47  CB         3.0000   69.7290   68.6850 C.3   390  LEU390      0.0311
     48  CG         2.0120   70.0360   69.7970 C.3   390  LEU390      0.0022
     49  CD1        0.7050   69.2900   69.4890 C.3   390  LEU390      0.0001
     50  CD2        2.5970   69.6290   71.1650 C.3   390  LEU390      0.0001
     51  N          5.6150   71.2030   67.0020 N.am  391  CYS391     -0.1954
     52  CA         6.4070   71.1390   65.7680 C.3   391  CYS391      0.1828
     53  C          7.8590   70.7630   66.0730 C.2   391  CYS391      0.2467
     54  O          8.5520   71.5410   66.7680 O.2   391  CYS391     -0.2730
     55  CB         6.3380   72.4630   65.0220 C.3   391  CYS391      0.0996
     56  SG         7.1940   72.4240   63.4110 S.3   391  CYS391     -0.0797
     57  N          8.3210   69.5720   65.6080 N.am  392  PRO392     -0.2715
     58  CA         9.7530   69.2010   65.8360 C.3   392  PRO392      0.1536
     59  C         10.7150   70.1410   65.1130 C.2   392  PRO392      0.2598
     60  O         10.3220   70.8390   64.1510 O.2   392  PRO392     -0.2715
     61  CB         9.8730   67.7910   65.2130 C.3   392  PRO392      0.0310
     62  CG         8.4590   67.2900   65.0770 C.3   392  PRO392      0.0237
     63  CD         7.6030   68.5280   64.8380 C.3   392  PRO392      0.0939
     64  N         11.9700   70.1280   65.5400 N.am  393  ASP393     -0.1972
     65  CA        13.0590   70.8420   64.8320 C.3   393  ASP393      0.1709
     66  C         13.3810   70.2660   63.4920 C.2   393  ASP393      0.2293
     67  O         13.7420   71.0080   62.5510 O.2   393  ASP393     -0.2864
     68  CB        14.3490   70.8790   65.6720 C.3   393  ASP393      0.1436
     69  CG        14.1440   71.5250   67.0430 C.2   393  ASP393      0.3671
     70  OD1       13.2310   72.3610   67.1910 O.co2 393  ASP393     -0.2456
     71  OD2       14.8700   71.1680   67.9920 O.co2 393  ASP393     -0.2456
     72  N          9.4440   76.0940   63.6170 N.3   410  ASN410     -0.1240
     73  CA         9.0800   76.2410   65.0180 C.3   410  ASN410      0.1653
     74  C          9.7030   77.4260   65.8290 C.2   410  ASN410      0.2266
     75  O          9.3220   77.6630   66.9990 O.2   410  ASN410     -0.2867
     76  CB         9.3000   74.8970   65.7300 C.3   410  ASN410      0.1155
     77  CG        10.7770   74.5230   65.8890 C.2   410  ASN410      0.2627
     78  OD1       11.7040   75.2590   65.4830 O.2   410  ASN410     -0.2716
     79  ND2       11.0050   73.3600   66.5010 N.am  410  ASN410     -0.0877
@<TRIPOS>BOND
     1    22    21    1
     2    67    66    2
     3    56    55    1
     4    66    65    1
     5    72    73    1
     6    21    20    1
     7    60    59    2
     8    20    19    1
     9    65    64    1
    10    65    68    1
    11    63    62    1
    12    63    57    1
    13    73    76    1
    14    73    74    1
    15    55    52    1
    16    62    61    1
    17    59    64   am
    18    59    58    1
    19    61    58    1
    20    78    77    2
    21    57    58    1
    22    57    53   am
    23    68    69    1
    24    76    77    1
    25    52    53    1
    26    52    51    1
    27    74    75    2
    28    19    18    1
    29    77    79   am
    30    53    54    2
    31    18    15    1
    32    51    45   am
    33    69    70   ar
    34    69    71   ar
    35    46    45    2
    36    41    40   ar
    37    45    44    1
    38    16    17    2
    39    16    15    1
    40    42    40   ar
    41    40    39    1
    42    15    14    1
    43    47    44    1
    44    47    48    1
    45    14    12   am
    46    44    43    1
    47    39    38    1
    48    43    36   am
    49    49    48    1
    50    48    50    1
    51    12    13    2
    52    12    11    1
    53    10    11    1
    54    36    35    1
    55    36    37    2
    56    38    35    1
    57    35    34    1
    58     6     5    1
    59     6     7    1
    60     2     3    1
    61     2     1    1
    62     2     5    1
    63     8     7    1
    64     8     9    1
    65     3     4    2
    66    32    31    1
    67    33    31    1
    68    31    30    2
    69    30    29    1
    70    29    28    1
    71    28    27    1
    72    25    26    2
    73    25    24    1
    74    27    24    1
    75    24    23    1
