@<TRIPOS>MOLECULE
tmp/4ktrB01.pdb
 208 199 0 0 0
SMALL
GASTEIGER

@<TRIPOS>ATOM
      1  N          6.8370    5.2840  -24.4030 N.3   336  GLU336     -0.1231
      2  CA         6.1980    4.1290  -25.0480 C.3   336  GLU336      0.1699
      3  C          4.9110    3.6730  -24.3480 C.2   336  GLU336      0.2592
      4  O          3.9720    3.3110  -25.0310 O.2   336  GLU336     -0.2718
      5  CB         7.1600    2.9130  -25.1960 C.3   336  GLU336      0.0402
      6  CG         8.2670    3.1370  -26.2550 C.3   336  GLU336      0.1161
      7  CD         9.3320    4.1570  -25.8310 C.2   336  GLU336      0.3649
      8  OE1        9.5330    4.3800  -24.5800 O.co2 336  GLU336     -0.2457
      9  OE2        9.9210    4.7720  -26.7330 O.co2 336  GLU336     -0.2457
     10  N          4.8900    3.6730  -22.9970 N.am  337  ILE337     -0.1980
     11  CA         3.8810    2.9970  -22.2370 C.3   337  ILE337      0.1595
     12  C          2.7590    3.9550  -21.9500 C.2   337  ILE337      0.2287
     13  O          1.6330    3.5600  -21.9420 O.2   337  ILE337     -0.2864
     14  CB         4.4690    2.4180  -20.9070 C.3   337  ILE337      0.0276
     15  CG1        5.6350    1.4830  -21.2280 C.3   337  ILE337      0.0022
     16  CG2        3.3550    1.7610  -20.0530 C.3   337  ILE337      0.0022
     17  CD1        5.2330    0.3350  -22.1640 C.3   337  ILE337      0.0001
     18  N          2.6910    6.6850  -26.2130 N.3   340  MET340     -0.1231
     19  CA         2.5440    6.1080  -27.5350 C.3   340  MET340      0.1687
     20  C          1.1060    5.5600  -27.8500 C.2   340  MET340      0.2434
     21  O          0.6430    5.6740  -28.9970 O.2   340  MET340     -0.2733
     22  CB         3.6200    4.9880  -27.6920 C.3   340  MET340      0.0400
     23  CG         3.4500    4.1280  -28.9270 C.3   340  MET340      0.0596
     24  SD         4.8410    3.0230  -29.2140 S.3   340  MET340     -0.1393
     25  CE         4.0590    1.7060  -30.1160 C.3   340  MET340      0.0692
     26  N          0.3970    4.9340  -26.8760 N.am  341  PRO341     -0.2729
     27  CA        -0.9520    4.3440  -27.3380 C.3   341  PRO341      0.1401
     28  C         -1.8830    5.2590  -28.0980 C.2   341  PRO341      0.2269
     29  O         -2.4740    4.8280  -29.0850 O.2   341  PRO341     -0.2865
     30  CB        -1.6460    3.9000  -26.0360 C.3   341  PRO341      0.0296
     31  CG        -0.4680    3.5980  -25.1170 C.3   341  PRO341      0.0237
     32  CD         0.6530    4.6330  -25.4380 C.3   341  PRO341      0.0939
     33  N         -0.6070    5.2870  -31.5760 N.3   344  LEU344     -0.1231
     34  CA        -0.6880    3.9300  -32.0920 C.3   344  LEU344      0.1693
     35  C         -2.0720    3.6940  -32.7790 C.2   344  LEU344      0.2592
     36  O         -2.1590    3.2610  -33.9130 O.2   344  LEU344     -0.2718
     37  CB        -0.4030    2.9060  -30.9830 C.3   344  LEU344      0.0284
     38  CG        -0.7180    1.4350  -31.4070 C.3   344  LEU344      0.0019
     39  CD1       -0.0910    1.0770  -32.7550 C.3   344  LEU344      0.0001
     40  CD2       -0.3090    0.4150  -30.3790 C.3   344  LEU344      0.0001
     41  N         -3.1190    4.0540  -32.0790 N.am  345  TYR345     -0.1976
     42  CA        -4.5070    3.8750  -32.4680 C.3   345  TYR345      0.1639
     43  C         -5.0640    5.0590  -33.2300 C.2   345  TYR345      0.2290
     44  O         -6.0510    4.9240  -33.9350 O.2   345  TYR345     -0.2864
     45  CB        -5.3670    3.7190  -31.1830 C.3   345  TYR345      0.0560
     46  CG        -5.2050    2.3940  -30.5170 C.ar  345  TYR345     -0.0198
     47  CD1       -5.7050    1.2790  -31.1220 C.ar  345  TYR345     -0.0009
     48  CD2       -4.5580    2.2530  -29.2710 C.ar  345  TYR345     -0.0009
     49  CE1       -5.5620    0.0310  -30.5720 C.ar  345  TYR345      0.0417
     50  CE2       -4.4010    0.9710  -28.7040 C.ar  345  TYR345      0.0417
     51  CZ        -4.9560   -0.1250  -29.3650 C.ar  345  TYR345      0.1957
     52  OH        -4.9020   -1.4390  -28.8910 O.3   345  TYR345     -0.2866
     53  N          8.3050   -4.6070  -25.8790 N.3   422  TYR422     -0.1227
     54  CA         6.8590   -4.7250  -25.7530 C.3   422  TYR422      0.1736
     55  C          6.1000   -3.7630  -26.7110 C.2   422  TYR422      0.2595
     56  O          5.1500   -4.1590  -27.4070 O.2   422  TYR422     -0.2718
     57  CB         6.4690   -4.4400  -24.2640 C.3   422  TYR422      0.0548
     58  CG         4.9910   -4.2830  -24.0510 C.ar  422  TYR422     -0.0200
     59  CD1        4.1950   -5.4020  -23.7350 C.ar  422  TYR422     -0.0009
     60  CD2        4.3980   -3.0740  -24.2330 C.ar  422  TYR422     -0.0009
     61  CE1        2.8110   -5.2990  -23.5630 C.ar  422  TYR422      0.0417
     62  CE2        3.0130   -2.9120  -24.0440 C.ar  422  TYR422      0.0417
     63  CZ         2.2280   -4.0390  -23.7210 C.ar  422  TYR422      0.1957
     64  OH         0.8740   -3.8820  -23.5730 O.3   422  TYR422     -0.2866
     65  N          6.5080   -2.5000  -26.7140 N.am  423  ALA423     -0.1980
     66  CA         5.9320   -1.5310  -27.6080 C.3   423  ALA423      0.1597
     67  C          6.1570   -1.8640  -29.1270 C.2   423  ALA423      0.2287
     68  O          5.2950   -1.5500  -29.9570 O.2   423  ALA423     -0.2864
     69  CB         6.4550   -0.1470  -27.2720 C.3   423  ALA423      0.0319
     70  N          3.5550   -4.6730  -29.8300 N.3   426  LYS426     -0.1245
     71  CA         2.2270   -4.0680  -29.8720 C.3   426  LYS426      0.1561
     72  C          2.0120   -3.2800  -31.1250 C.2   426  LYS426      0.2260
     73  O          0.9400   -3.3570  -31.7400 O.2   426  LYS426     -0.2867
     74  CB         1.9360   -3.1110  -28.7020 C.3   426  LYS426      0.0271
     75  CG         2.0120   -3.6870  -27.3270 C.3   426  LYS426      0.0035
     76  CD         1.6930   -5.1950  -27.3180 C.3   426  LYS426      0.0206
     77  CE         0.2730   -5.4860  -27.0310 C.3   426  LYS426      0.1093
     78  NZ         0.1730   -6.8650  -26.4220 N.3   426  LYS426     -0.1314
     79  N         -0.8770   -5.7770  -15.3340 N.3   595  PHE595     -0.1227
     80  CA        -2.2120   -5.9870  -15.9020 C.3   595  PHE595      0.1736
     81  C         -2.6020   -4.9080  -16.9310 C.2   595  PHE595      0.2595
     82  O         -3.4330   -5.1530  -17.7640 O.2   595  PHE595     -0.2718
     83  CB        -3.3200   -5.9650  -14.8200 C.3   595  PHE595      0.0547
     84  CG        -3.0520   -6.8600  -13.6520 C.ar  595  PHE595     -0.0202
     85  CD1       -2.7050   -8.1670  -13.8340 C.ar  595  PHE595     -0.0042
     86  CD2       -3.2330   -6.3900  -12.3410 C.ar  595  PHE595     -0.0042
     87  CE1       -2.4410   -9.0160  -12.7380 C.ar  595  PHE595     -0.0003
     88  CE2       -3.0260   -7.2310  -11.2650 C.ar  595  PHE595     -0.0003
     89  CZ        -2.6220   -8.5510  -11.4370 C.ar  595  PHE595     -0.0000
     90  N         -2.1150   -3.6800  -16.7880 N.am  596  VAL596     -0.1966
     91  CA        -2.4060   -2.6940  -17.7980 C.3   596  VAL596      0.1727
     92  C         -1.8020   -3.1730  -19.1490 C.2   596  VAL596      0.2616
     93  O         -2.4110   -2.9710  -20.1740 O.2   596  VAL596     -0.2715
     94  CB        -1.8750   -1.2970  -17.4580 C.3   596  VAL596      0.0290
     95  CG1       -2.1720   -0.2970  -18.5940 C.3   596  VAL596      0.0023
     96  CG2       -2.4490   -0.8010  -16.1320 C.3   596  VAL596      0.0023
     97  N         -0.6600   -3.8360  -19.1320 N.am  597  LEU597     -0.1977
     98  CA         0.0910   -4.1370  -20.3650 C.3   597  LEU597      0.1596
     99  C         -0.2900   -5.4850  -20.9550 C.2   597  LEU597      0.2287
    100  O         -0.2280   -5.6440  -22.1430 O.2   597  LEU597     -0.2864
    101  CB         1.6150   -4.1420  -20.0750 C.3   597  LEU597      0.0297
    102  CG         2.3410   -2.8100  -20.3220 C.3   597  LEU597      0.0022
    103  CD1        1.7500   -1.6040  -19.5940 C.3   597  LEU597      0.0001
    104  CD2        3.8450   -2.9590  -20.1360 C.3   597  LEU597      0.0001
    105  N         -3.4450   -7.3780  -20.4620 N.3   599  PRO599     -0.2116
    106  CA        -4.7650   -7.4740  -19.7840 C.3   599  PRO599      0.1372
    107  C         -5.4340   -8.8350  -19.9030 C.2   599  PRO599      0.2244
    108  O         -6.3900   -9.0910  -19.2170 O.2   599  PRO599     -0.2868
    109  CB        -5.6220   -6.4090  -20.5020 C.3   599  PRO599      0.0268
    110  CG        -4.8860   -6.1290  -21.8090 C.3   599  PRO599      0.0207
    111  CD        -3.4290   -6.4000  -21.5760 C.3   599  PRO599      0.0892
    112  N         -4.1600  -12.6500  -16.8750 N.3   602  TYR602     -0.1241
    113  CA        -4.7290  -13.2410  -15.6810 C.3   602  TYR602      0.1605
    114  C         -6.2500  -13.0930  -15.6850 C.2   602  TYR602      0.2264
    115  O         -6.7810  -12.0860  -16.1790 O.2   602  TYR602     -0.2867
    116  CB        -4.0800  -12.6360  -14.3920 C.3   602  TYR602      0.0534
    117  CG        -2.6270  -13.0510  -14.2360 C.ar  602  TYR602     -0.0201
    118  CD1       -2.2940  -14.3350  -13.8160 C.ar  602  TYR602     -0.0009
    119  CD2       -1.5650  -12.1590  -14.5610 C.ar  602  TYR602     -0.0009
    120  CE1       -0.9620  -14.7550  -13.6990 C.ar  602  TYR602      0.0417
    121  CE2       -0.2120  -12.5680  -14.4640 C.ar  602  TYR602      0.0417
    122  CZ         0.0600  -13.8570  -14.0510 C.ar  602  TYR602      0.1957
    123  OH         1.3310  -14.2610  -13.9030 O.3   602  TYR602     -0.2866
    124  N         -9.9850  -12.4090  -14.2640 N.3   604  ARG604     -0.1245
    125  CA       -10.4670  -11.1930  -13.6950 C.3   604  ARG604      0.1563
    126  C        -10.4820  -11.2500  -12.1480 C.2   604  ARG604      0.2260
    127  O        -10.2760  -10.2510  -11.5000 O.2   604  ARG604     -0.2867
    128  CB       -11.8570  -10.8980  -14.2810 C.3   604  ARG604      0.0307
    129  CG       -11.8740   -9.9510  -15.4950 C.3   604  ARG604      0.0489
    130  CD       -13.2150   -9.2080  -15.6450 C.3   604  ARG604      0.2205
    131  NE       -13.9660   -9.2470  -14.3720 N.pl3 604  ARG604     -0.0865
    132  CZ       -15.0380   -8.5080  -14.0470 C.cat 604  ARG604      0.5346
    133  NH1      -15.5440   -7.5860  -14.8770 N.pl3 604  ARG604      0.1354
    134  NH2      -15.5980   -8.6810  -12.8470 N.pl3 604  ARG604      0.1354
    135  N         -6.9930  -10.4530  -10.9580 N.3   607  VAL607     -0.1245
    136  CA        -6.7240   -9.0160  -11.1160 C.3   607  VAL607      0.1561
    137  C         -7.3550   -8.2610   -9.9730 C.2   607  VAL607      0.2260
    138  O         -6.7260   -7.3740   -9.3400 O.2   607  VAL607     -0.2867
    139  CB        -7.1490   -8.5000  -12.5050 C.3   607  VAL607      0.0252
    140  CG1       -7.0070   -7.0020  -12.6100 C.3   607  VAL607      0.0019
    141  CG2       -6.2380   -9.1310  -13.5800 C.3   607  VAL607      0.0019
    142  N         -7.4760    2.3520  -15.1990 N.3   631  ILE631     -0.1231
    143  CA        -7.6490    1.4140  -16.2820 C.3   631  ILE631      0.1692
    144  C         -8.0170    0.0110  -15.7600 C.2   631  ILE631      0.2591
    145  O         -8.8760   -0.6740  -16.3050 O.2   631  ILE631     -0.2718
    146  CB        -6.3950    1.4060  -17.2050 C.3   631  ILE631      0.0266
    147  CG1       -6.3830    2.6960  -18.0790 C.3   631  ILE631      0.0019
    148  CG2       -6.3530    0.1250  -18.0680 C.3   631  ILE631      0.0020
    149  CD1       -4.9810    3.0970  -18.5670 C.3   631  ILE631      0.0001
    150  N         -7.3400   -0.4540  -14.7270 N.am  632  VAL632     -0.1980
    151  CA        -7.6240   -1.7940  -14.1860 C.3   632  VAL632      0.1595
    152  C         -8.9690   -1.8200  -13.4100 C.2   632  VAL632      0.2287
    153  O         -9.7430   -2.7160  -13.6450 O.2   632  VAL632     -0.2864
    154  CB        -6.4500   -2.2770  -13.3320 C.3   632  VAL632      0.0276
    155  CG1       -6.7090   -3.6370  -12.6730 C.3   632  VAL632      0.0022
    156  CG2       -5.1720   -2.3090  -14.1760 C.3   632  VAL632      0.0022
    157  N        -12.2200   -2.4110  -15.4250 N.3   635  GLN635     -0.1231
    158  CA       -12.4680   -3.6860  -16.0290 C.3   635  GLN635      0.1698
    159  C        -12.6580   -4.7800  -15.0010 C.2   635  GLN635      0.2592
    160  O        -12.8470   -5.9320  -15.3540 O.2   635  GLN635     -0.2718
    161  CB       -11.3310   -4.0660  -17.0050 C.3   635  GLN635      0.0381
    162  CG       -11.3110   -3.1940  -18.2440 C.3   635  GLN635      0.0905
    163  CD       -12.6400   -3.2580  -18.9800 C.2   635  GLN635      0.2608
    164  OE1      -13.2370   -4.3230  -19.0490 O.2   635  GLN635     -0.2717
    165  NE2      -13.1100   -2.1210  -19.5370 N.am  635  GLN635     -0.0878
    166  N        -12.6120   -4.4420  -13.7190 N.am  636  ILE636     -0.1980
    167  CA       -12.9670   -5.4230  -12.7250 C.3   636  ILE636      0.1595
    168  C        -14.1560   -4.9770  -11.8710 C.2   636  ILE636      0.2287
    169  O        -14.2050   -5.2710  -10.6700 O.2   636  ILE636     -0.2864
    170  CB       -11.7410   -5.7020  -11.8250 C.3   636  ILE636      0.0276
    171  CG1      -11.2500   -4.3780  -11.2030 C.3   636  ILE636      0.0022
    172  CG2      -10.6710   -6.4430  -12.6380 C.3   636  ILE636      0.0022
    173  CD1      -10.1690   -4.5200  -10.1520 C.3   636  ILE636      0.0001
    174  N         -5.8770    7.0610  -22.8990 N.3   680  GLN680     -0.1245
    175  CA        -5.9690    5.6170  -22.6220 C.3   680  GLN680      0.1566
    176  C         -7.0490    5.3330  -21.6100 C.2   680  GLN680      0.2260
    177  O         -7.6850    4.3250  -21.7100 O.2   680  GLN680     -0.2867
    178  CB        -4.6790    5.0520  -22.0380 C.3   680  GLN680      0.0367
    179  CG        -3.5150    5.0870  -22.9770 C.3   680  GLN680      0.0905
    180  CD        -2.3130    4.5290  -22.3020 C.2   680  GLN680      0.2608
    181  OE1       -2.3690    3.4230  -21.7650 O.2   680  GLN680     -0.2717
    182  NE2       -1.2360    5.3180  -22.2420 N.am  680  GLN680     -0.0878
    183  N         -8.8430    2.5560  -23.5960 N.3   684  ASN684     -0.1240
    184  CA        -8.4970    1.2240  -23.1130 C.3   684  ASN684      0.1653
    185  C         -9.1470    0.9470  -21.7230 C.2   684  ASN684      0.2266
    186  O         -9.5330   -0.1770  -21.4170 O.2   684  ASN684     -0.2867
    187  CB        -6.9420    1.0550  -23.0650 C.3   684  ASN684      0.1155
    188  CG        -6.2920    1.5070  -24.3540 C.2   684  ASN684      0.2627
    189  OD1       -5.5990    2.5310  -24.4150 O.2   684  ASN684     -0.2716
    190  ND2       -6.6130    0.8030  -25.4280 N.am  684  ASN684     -0.0877
    191  N        -12.1250   -0.4980  -22.7410 N.3   688  GLY688     -0.1210
    192  CA       -11.6080   -1.8130  -22.6740 C.3   688  GLY688      0.1956
    193  C        -11.0370   -2.2800  -23.9980 C.2   688  GLY688      0.2612
    194  O        -10.9360   -3.4730  -24.2320 O.2   688  GLY688     -0.2717
    195  N        -10.6280   -1.3520  -24.8410 N.am  689  LEU689     -0.1965
    196  CA       -10.0060   -1.6500  -26.1160 C.3   689  LEU689      0.1728
    197  C         -8.6280   -2.2630  -25.9280 C.2   689  LEU689      0.2616
    198  O         -7.7760   -1.6810  -25.2740 O.2   689  LEU689     -0.2715
    199  CB        -9.8440   -0.3520  -26.9140 C.3   689  LEU689      0.0311
    200  CG        -9.2090   -0.5820  -28.2920 C.3   689  LEU689      0.0022
    201  CD1      -10.0690   -1.4800  -29.1940 C.3   689  LEU689      0.0001
    202  CD2       -8.9180    0.7510  -28.9820 C.3   689  LEU689      0.0001
    203  N         -8.4440   -3.4540  -26.4920 N.am  690  SER690     -0.1950
    204  CA        -7.1940   -4.1190  -26.5020 C.3   690  SER690      0.1924
    205  C         -7.1730   -4.9940  -27.7220 C.2   690  SER690      0.2314
    206  O         -8.2300   -5.4330  -28.2210 O.2   690  SER690     -0.2863
    207  CB        -7.0000   -5.0210  -25.2550 C.3   690  SER690      0.2116
    208  OG        -8.0390   -5.9620  -25.1480 O.3   690  SER690     -0.2180
@<TRIPOS>BOND
     1    44    43    2
     2    36    35    2
     3    43    42    1
     4    35    34    1
     5    35    41   am
     6    39    38    1
     7    42    41    1
     8    42    45    1
     9    34    33    1
    10    34    37    1
    11    73    72    2
    12    38    37    1
    13    38    40    1
    14    45    46    1
    15    72    71    1
    16    47    49   ar
    17    47    46   ar
    18    49    51   ar
    19    46    48   ar
    20    25    24    1
    21    68    67    2
    22    71    70    1
    23    71    74    1
    24    51    52    1
    25    51    50   ar
    26    48    50   ar
    27    24    23    1
    28   201   200    1
    29    67    66    1
    30    29    28    2
    31    21    20    2
    32   202   200    1
    33    23    22    1
    34    74    75    1
    35   200   199    1
    36   206   205    2
    37    28    27    1
    38    20    19    1
    39    20    26   am
    40   205   204    1
    41    22    19    1
    42    66    69    1
    43    66    65    1
    44    19    18    1
    45    56    55    2
    46    27    26    1
    47    27    30    1
    48    75    76    1
    49    76    77    1
    50    77    78    1
    51   199   196    1
    52    26    32    1
    53     9     7   ar
    54    65    55   am
    55    55    54    1
    56   204   203    1
    57   204   207    1
    58   203   197   am
    59     6     7    1
    60     6     5    1
    61   196   197    1
    62   196   195    1
    63    30    31    1
    64   197   198    2
    65    53    54    1
    66     7     8   ar
    67    54    57    1
    68    32    31    1
    69   190   188   am
    70   207   208    1
    71     5     2    1
    72     2     1    1
    73     2     3    1
    74     4     3    2
    75   195   193   am
    76   189   188    2
    77   188   187    1
    78     3    10   am
    79    57    58    1
    80    60    58   ar
    81    60    62   ar
    82   194   193    2
    83    58    59   ar
    84    62    63   ar
    85   193   192    1
    86    59    61   ar
    87    63    64    1
    88    63    61   ar
    89   183   184    1
    90   184   187    1
    91   184   185    1
    92    10    11    1
    93   179   180    1
    94   179   178    1
    95   174   175    1
    96   191   192    1
    97   175   178    1
    98   175   176    1
    99   180   182   am
   100   180   181    2
   101    11    12    1
   102    11    14    1
   103    17    15    1
   104   100    99    2
   105    12    13    2
   106   110   111    1
   107   110   109    1
   108   185   186    2
   109   177   176    2
   110   111   105    1
   111    15    14    1
   112    99    98    1
   113    14    16    1
   114   109   106    1
   115   105   106    1
   116    98   101    1
   117    98    97    1
   118   102   104    1
   119   102   101    1
   120   102   103    1
   121    93    92    2
   122   107   106    1
   123   107   108    2
   124   165   163   am
   125    92    97   am
   126    92    91    1
   127   164   163    2
   128   163   162    1
   129    95    94    1
   130   149   147    1
   131   162   161    1
   132   147   146    1
   133   148   146    1
   134    91    94    1
   135    91    90    1
   136    82    81    2
   137    94    96    1
   138   146   143    1
   139   161   158    1
   140    81    90   am
   141    81    80    1
   142   112   113    1
   143   145   144    2
   144   143   144    1
   145   143   142    1
   146   115   114    2
   147   158   157    1
   148   158   159    1
   149    80    79    1
   150    80    83    1
   151   144   150   am
   152   114   113    1
   153   113   116    1
   154   130   129    1
   155   130   131    1
   156   129   128    1
   157   160   159    2
   158   159   166   am
   159   133   132    1
   160    83    84    1
   161   150   151    1
   162   119   121   ar
   163   119   117   ar
   164   121   122   ar
   165   116   117    1
   166   131   132    2
   167   128   125    1
   168   124   125    1
   169   117   118   ar
   170   151   152    1
   171   151   154    1
   172   156   154    1
   173   122   123    1
   174   122   120   ar
   175   132   134    1
   176    85    84   ar
   177    85    87   ar
   178   118   120   ar
   179   166   167    1
   180   125   126    1
   181    84    86   ar
   182   153   152    2
   183   141   139    1
   184   154   155    1
   185    87    89   ar
   186   167   168    1
   187   167   170    1
   188   172   170    1
   189   140   139    1
   190   139   136    1
   191    86    88   ar
   192   126   127    2
   193   168   169    2
   194   170   171    1
   195    89    88   ar
   196   171   173    1
   197   136   135    1
   198   136   137    1
   199   137   138    2
