@<TRIPOS>MOLECULE
tmp/4ktrH00.pdb
 133 132 0 0 0
SMALL
GASTEIGER

@<TRIPOS>ATOM
      1  N         -4.9100   71.5570   60.9370 N.3   319  ALA319     -0.1231
      2  CA        -4.5610   71.9440   59.5680 C.3   319  ALA319      0.1694
      3  C         -4.8560   70.8270   58.5670 C.2   319  ALA319      0.2591
      4  O         -4.8850   71.0740   57.3650 O.2   319  ALA319     -0.2718
      5  CB        -3.0870   72.4510   59.4400 C.3   319  ALA319      0.0304
      6  N         -5.1190   69.6190   59.0530 N.am  320  ARG320     -0.1980
      7  CA        -5.7370   68.6000   58.2150 C.3   320  ARG320      0.1597
      8  C         -6.9960   68.0500   58.8750 C.2   320  ARG320      0.2287
      9  O         -7.4140   66.8940   58.5850 O.2   320  ARG320     -0.2864
     10  CB        -4.7550   67.4650   57.9310 C.3   320  ARG320      0.0334
     11  CG        -3.5410   67.8760   57.0790 C.3   320  ARG320      0.0492
     12  CD        -3.8950   68.2280   55.6370 C.3   320  ARG320      0.2205
     13  NE        -2.6640   68.4920   54.8870 N.pl3 320  ARG320     -0.0865
     14  CZ        -2.2060   69.7140   54.5970 C.cat 320  ARG320      0.5346
     15  NH1       -2.8690   70.8120   54.9590 N.pl3 320  ARG320      0.1354
     16  NH2       -1.1000   69.8400   53.9070 N.pl3 320  ARG320      0.1354
     17  N         -0.4600   66.5670   60.3720 N.3   327  TYR327     -0.1241
     18  CA        -0.5470   67.9040   60.9490 C.3   327  TYR327      0.1605
     19  C         -1.1230   67.8870   62.3930 C.2   327  TYR327      0.2264
     20  O         -1.5610   68.9090   62.9790 O.2   327  TYR327     -0.2867
     21  CB        -1.1920   68.9110   59.9590 C.3   327  TYR327      0.0534
     22  CG        -0.2490   69.3750   58.8290 C.ar  327  TYR327     -0.0201
     23  CD1        1.0660   68.8870   58.6980 C.ar  327  TYR327     -0.0009
     24  CD2       -0.6790   70.2820   57.8770 C.ar  327  TYR327     -0.0009
     25  CE1        1.8990   69.3320   57.6620 C.ar  327  TYR327      0.0417
     26  CE2        0.1460   70.7010   56.8430 C.ar  327  TYR327      0.0417
     27  CZ         1.4290   70.2210   56.7460 C.ar  327  TYR327      0.1957
     28  OH         2.2150   70.6620   55.6930 O.3   327  TYR327     -0.2866
     29  N         -2.5120   75.6310   63.4440 N.3   332  PHE332     -0.1227
     30  CA        -1.4310   76.4210   62.8410 C.3   332  PHE332      0.1736
     31  C         -2.0300   77.8520   62.6590 C.2   332  PHE332      0.2595
     32  O         -3.2000   78.1390   63.0330 O.2   332  PHE332     -0.2718
     33  CB        -1.1200   75.8720   61.4410 C.3   332  PHE332      0.0547
     34  CG        -0.4340   74.5280   61.4090 C.ar  332  PHE332     -0.0202
     35  CD1       -1.0440   73.3840   61.9240 C.ar  332  PHE332     -0.0042
     36  CD2        0.8390   74.4010   60.8350 C.ar  332  PHE332     -0.0042
     37  CE1       -0.3860   72.1390   61.8690 C.ar  332  PHE332     -0.0003
     38  CE2        1.4680   73.1650   60.7590 C.ar  332  PHE332     -0.0003
     39  CZ         0.8520   72.0330   61.2680 C.ar  332  PHE332     -0.0000
     40  N         -1.2680   78.7480   62.0480 N.am  333  TRP333     -0.1962
     41  CA        -1.7850   80.0910   61.8200 C.3   333  TRP333      0.1771
     42  C         -2.9570   80.0670   60.8810 C.2   333  TRP333      0.2619
     43  O         -3.7340   81.0420   60.8570 O.2   333  TRP333     -0.2715
     44  CB        -0.6860   81.0270   61.3030 C.3   333  TRP333      0.0590
     45  CG        -0.2820   80.7480   59.8620 C.ar  333  TRP333      0.0006
     46  CD1        0.3000   79.5870   59.3620 C.ar  333  TRP333      0.0946
     47  CD2       -0.3860   81.6490   58.6940 C.ar  333  TRP333      0.0152
     48  NE1        0.5250   79.6860   58.0080 N.ar  333  TRP333     -0.2442
     49  CE2        0.1660   80.8940   57.5410 C.ar  333  TRP333      0.0810
     50  CE3       -0.8380   82.9520   58.4900 C.ar  333  TRP333      0.0012
     51  CZ2        0.2570   81.4530   56.2560 C.ar  333  TRP333      0.0191
     52  CZ3       -0.7590   83.4890   57.1830 C.ar  333  TRP333      0.0001
     53  CH2       -0.2420   82.7430   56.0910 C.ar  333  TRP333      0.0015
     54  N         -3.0410   79.0080   60.0530 N.am  334  ASP334     -0.1971
     55  CA        -4.2910   78.5760   59.3170 C.3   334  ASP334      0.1709
     56  C         -5.5940   78.8210   60.0800 C.2   334  ASP334      0.2293
     57  O         -6.5870   79.2670   59.5010 O.2   334  ASP334     -0.2864
     58  CB        -4.3270   77.0370   59.1660 C.3   334  ASP334      0.1436
     59  CG        -3.1750   76.4640   58.3730 C.2   334  ASP334      0.3671
     60  OD1       -2.0860   77.0450   58.3900 O.co2 334  ASP334     -0.2456
     61  OD2       -3.3510   75.4100   57.7310 O.co2 334  ASP334     -0.2456
     62  N          3.9830   77.0870   66.5990 N.3   381  TRP381     -0.1241
     63  CA         3.7530   76.8820   65.1770 C.3   381  TRP381      0.1605
     64  C          2.6110   75.8690   64.9810 C.2   381  TRP381      0.2264
     65  O          1.6830   76.0730   64.1550 O.2   381  TRP381     -0.2867
     66  CB         5.0480   76.4650   64.4380 C.3   381  TRP381      0.0550
     67  CG         4.7880   76.4530   62.9520 C.ar  381  TRP381      0.0003
     68  CD1        4.7890   75.3560   62.0920 C.ar  381  TRP381      0.0946
     69  CD2        4.4120   77.6040   62.1110 C.ar  381  TRP381      0.0152
     70  NE1        4.4370   75.7420   60.8040 N.ar  381  TRP381     -0.2442
     71  CE2        4.1780   77.0760   60.7640 C.ar  381  TRP381      0.0810
     72  CE3        4.2460   78.9590   62.3370 C.ar  381  TRP381      0.0012
     73  CZ2        3.8210   77.9000   59.7060 C.ar  381  TRP381      0.0191
     74  CZ3        3.8490   79.7790   61.2710 C.ar  381  TRP381      0.0001
     75  CH2        3.6430   79.2580   59.9880 C.ar  381  TRP381      0.0015
     76  N         10.5810   76.3150   60.9760 N.3   409  PHE409     -0.1241
     77  CA         9.1570   76.4380   61.2090 C.3   409  PHE409      0.1605
     78  C          8.8130   76.7850   62.6680 C.2   409  PHE409      0.2264
     79  O          7.9530   77.6470   62.9210 O.2   409  PHE409     -0.2867
     80  CB         8.3970   75.1500   60.7920 C.3   409  PHE409      0.0534
     81  CG         8.6720   74.7060   59.3680 C.ar  409  PHE409     -0.0203
     82  CD1        8.5790   75.5990   58.3100 C.ar  409  PHE409     -0.0042
     83  CD2        8.9580   73.3500   59.0870 C.ar  409  PHE409     -0.0042
     84  CE1        8.8280   75.1940   57.0060 C.ar  409  PHE409     -0.0003
     85  CE2        9.1890   72.9280   57.7690 C.ar  409  PHE409     -0.0003
     86  CZ         9.1310   73.8410   56.7250 C.ar  409  PHE409     -0.0000
     87  N          7.2310   79.7470   52.8590 N.3   475  GLN475     -0.1245
     88  CA         8.0090   78.8290   53.7010 C.3   475  GLN475      0.1566
     89  C          9.4160   78.5790   53.1420 C.2   475  GLN475      0.2260
     90  O         10.3130   78.2530   53.8750 O.2   475  GLN475     -0.2867
     91  CB         7.3360   77.4560   53.8380 C.3   475  GLN475      0.0367
     92  CG         5.8460   77.4840   54.0860 C.3   475  GLN475      0.0905
     93  CD         5.5670   78.1050   55.4250 C.2   475  GLN475      0.2608
     94  OE1        5.8590   77.4990   56.4680 O.2   475  GLN475     -0.2717
     95  NE2        5.0070   79.3460   55.4170 N.am  475  GLN475     -0.0878
     96  N          6.7640   79.6370   47.6380 N.3   587  LYS587     -0.1231
     97  CA         5.7210   78.6390   47.9360 C.3   587  LYS587      0.1693
     98  C          4.2830   79.1530   47.8410 C.2   587  LYS587      0.2591
     99  O          3.4000   78.4600   47.3540 O.2   587  LYS587     -0.2718
    100  CB         5.9380   77.9650   49.2740 C.3   587  LYS587      0.0285
    101  CG         5.2830   76.5890   49.3180 C.3   587  LYS587      0.0035
    102  CD         5.2930   76.0120   50.7090 C.3   587  LYS587      0.0206
    103  CE         4.6470   74.6350   50.7590 C.3   587  LYS587      0.1093
    104  NZ         4.7760   74.0590   52.1250 N.3   587  LYS587     -0.1314
    105  N          4.0660   80.4070   48.2030 N.am  588  GLN588     -0.1979
    106  CA         2.6990   80.8560   48.4670 C.3   588  GLN588      0.1601
    107  C          2.6300   82.3490   48.6970 C.2   588  GLN588      0.2287
    108  O          3.6610   82.9980   48.8630 O.2   588  GLN588     -0.2864
    109  CB         2.1510   80.1030   49.6940 C.3   588  GLN588      0.0394
    110  CG         2.9500   80.3350   50.9560 C.3   588  GLN588      0.0908
    111  CD         2.4660   79.4860   52.1030 C.2   588  GLN588      0.2608
    112  OE1        3.0370   78.4480   52.3650 O.2   588  GLN588     -0.2717
    113  NE2        1.3870   79.9100   52.7670 N.am  588  GLN588     -0.0878
    114  N          1.5700   75.4430   48.0750 N.3   622  SER622     -0.1202
    115  CA         0.8740   75.2780   49.3450 C.3   622  SER622      0.2020
    116  C         -0.5990   75.3810   49.0230 C.2   622  SER622      0.2619
    117  O         -1.0010   76.2110   48.2290 O.2   622  SER622     -0.2717
    118  CB         1.2420   76.3730   50.3610 C.3   622  SER622      0.2103
    119  OG         0.1950   76.5380   51.3280 O.3   622  SER622     -0.2182
    120  N         -1.4080   74.5400   49.6420 N.am  623  SER623     -0.1937
    121  CA        -2.8730   74.6730   49.5050 C.3   623  SER623      0.2055
    122  C         -3.4170   76.0410   49.9910 C.2   623  SER623      0.2642
    123  O         -4.5030   76.5010   49.5480 O.2   623  SER623     -0.2714
    124  CB        -3.5400   73.5330   50.2740 C.3   623  SER623      0.2130
    125  OG        -3.1580   73.6010   51.6210 O.3   623  SER623     -0.2179
    126  N         -2.6670   76.6960   50.8900 N.am  624  LEU624     -0.1977
    127  CA        -2.9120   78.1370   51.2450 C.3   624  LEU624      0.1596
    128  C         -2.8770   79.1430   50.0970 C.2   624  LEU624      0.2287
    129  O         -3.5060   80.2100   50.1770 O.2   624  LEU624     -0.2864
    130  CB        -2.0130   78.6210   52.4100 C.3   624  LEU624      0.0297
    131  CG        -2.5130   78.0360   53.7580 C.3   624  LEU624      0.0022
    132  CD1       -2.4900   76.4830   53.8410 C.3   624  LEU624      0.0001
    133  CD2       -1.7990   78.6330   54.9570 C.3   624  LEU624      0.0001
@<TRIPOS>BOND
     1    99    98    2
     2    96    97    1
     3    98    97    1
     4    98   105   am
     5    97   100    1
     6   114   115    1
     7   105   106    1
     8   117   116    2
     9   106   107    1
    10   106   109    1
    11   107   108    2
    12   116   115    1
    13   116   120   am
    14   100   101    1
    15   101   102    1
    16   115   118    1
    17   121   120    1
    18   121   122    1
    19   121   124    1
    20   123   122    2
    21   109   110    1
    22   122   126   am
    23   128   129    2
    24   128   127    1
    25   124   125    1
    26   118   119    1
    27   102   103    1
    28   103   104    1
    29   126   127    1
    30   110   111    1
    31   127   130    1
    32   111   112    2
    33   111   113   am
    34   130   131    1
    35    87    88    1
    36    89    88    1
    37    89    90    2
    38    88    91    1
    39   131   132    1
    40   131   133    1
    41    91    92    1
    42    16    14    1
    43    92    93    1
    44    14    13    2
    45    14    15    1
    46    13    12    1
    47    95    93   am
    48    93    94    2
    49    12    11    1
    50    28    27    1
    51    53    51   ar
    52    53    52   ar
    53    51    49   ar
    54    86    84   ar
    55    86    85   ar
    56    27    26   ar
    57    27    25   ar
    58    26    24   ar
    59    84    82   ar
    60    11    10    1
    61    52    50   ar
    62     4     3    2
    63    49    48   ar
    64    49    47   ar
    65    25    23   ar
    66    61    59   ar
    67    85    83   ar
    68    24    22   ar
    69    10     7    1
    70    48    46   ar
    71     7     8    1
    72     7     6    1
    73    82    81   ar
    74    59    60   ar
    75    59    58    1
    76    50    47   ar
    77     3     6   am
    78     3     2    1
    79     9     8    2
    80    47    45   ar
    81    23    22   ar
    82    22    21    1
    83    83    81   ar
    84    58    55    1
    85    55    54    1
    86    55    56    1
    87    46    45   ar
    88    81    80    1
    89     5     2    1
    90    57    56    2
    91     2     1    1
    92    73    75   ar
    93    73    71   ar
    94    45    44    1
    95    21    18    1
    96    75    74   ar
    97    54    42   am
    98    17    18    1
    99    38    36   ar
   100    38    39   ar
   101    71    70   ar
   102    71    69   ar
   103    80    77    1
   104    70    68   ar
   105    36    34   ar
   106    43    42    2
   107    42    41    1
   108    18    19    1
   109    76    77    1
   110    77    78    1
   111    39    37   ar
   112    74    72   ar
   113    44    41    1
   114    34    33    1
   115    34    35   ar
   116    33    30    1
   117    41    40    1
   118    37    35   ar
   119    40    31   am
   120    68    67   ar
   121    69    72   ar
   122    69    67   ar
   123    19    20    2
   124    31    30    1
   125    31    32    2
   126    78    79    2
   127    30    29    1
   128    67    66    1
   129    65    64    2
   130    66    63    1
   131    64    63    1
   132    63    62    1
