@<TRIPOS>MOLECULE
tmp/4ktrA02.pdb
 208 199 0 0 0
SMALL
GASTEIGER

@<TRIPOS>ATOM
      1  N         37.1050  -18.2070   14.8380 N.3   336  GLU336     -0.1231
      2  CA        37.9610  -19.1150   14.0850 C.3   336  GLU336      0.1699
      3  C         39.2430  -18.4220   13.6140 C.2   336  GLU336      0.2592
      4  O         40.3250  -19.0120   13.6340 O.2   336  GLU336     -0.2718
      5  CB        37.2240  -19.7610   12.8810 C.3   336  GLU336      0.0402
      6  CG        36.2420  -20.8780   13.2900 C.3   336  GLU336      0.1161
      7  CD        35.0220  -20.2430   13.9850 C.2   336  GLU336      0.3649
      8  OE1       34.7740  -19.0430   13.7020 O.co2 336  GLU336     -0.2457
      9  OE2       34.3220  -20.9070   14.7820 O.co2 336  GLU336     -0.2457
     10  N         39.0870  -17.1930   13.1110 N.am  337  ILE337     -0.1980
     11  CA        40.1280  -16.5500   12.3500 C.3   337  ILE337      0.1595
     12  C         41.1220  -15.8230   13.2910 C.2   337  ILE337      0.2287
     13  O         42.3310  -15.8570   13.0800 O.2   337  ILE337     -0.2864
     14  CB        39.5490  -15.6620   11.2090 C.3   337  ILE337      0.0276
     15  CG1       38.5830  -16.4540   10.3120 C.3   337  ILE337      0.0022
     16  CG2       40.7000  -14.9640   10.4310 C.3   337  ILE337      0.0022
     17  CD1       39.1680  -17.6590    9.5610 C.3   337  ILE337      0.0001
     18  N         41.1120  -18.8340   17.3760 N.3   340  MET340     -0.1231
     19  CA        41.5180  -20.2480   17.3000 C.3   340  MET340      0.1687
     20  C         43.0460  -20.5270   17.1760 C.2   340  MET340      0.2434
     21  O         43.5440  -21.4930   17.7330 O.2   340  MET340     -0.2733
     22  CB        40.7970  -20.9290   16.1310 C.3   340  MET340      0.0400
     23  CG        41.1300  -22.3950   16.0180 C.3   340  MET340      0.0596
     24  SD        39.9650  -23.1230   14.8910 S.3   340  MET340     -0.1393
     25  CE        40.9310  -24.4010   14.1390 C.3   340  MET340      0.0692
     26  N         43.7790  -19.6940   16.4360 N.am  341  PRO341     -0.2729
     27  CA        45.1710  -20.1090   16.1560 C.3   341  PRO341      0.1401
     28  C         46.0420  -20.3780   17.3500 C.2   341  PRO341      0.2269
     29  O         46.8200  -21.3660   17.3420 O.2   341  PRO341     -0.2865
     30  CB        45.7260  -18.9620   15.3190 C.3   341  PRO341      0.0296
     31  CG        44.4780  -18.5670   14.4870 C.3   341  PRO341      0.0237
     32  CD        43.3180  -18.6340   15.4980 C.3   341  PRO341      0.0939
     33  N         44.8430  -23.8360   18.4750 N.3   344  LEU344     -0.1231
     34  CA        45.2970  -24.8170   17.4780 C.3   344  LEU344      0.1693
     35  C         46.7300  -25.2510   17.7670 C.2   344  LEU344      0.2592
     36  O         47.0070  -26.4180   17.6920 O.2   344  LEU344     -0.2718
     37  CB        45.2660  -24.2530   16.0470 C.3   344  LEU344      0.0284
     38  CG        45.7030  -25.1860   14.8940 C.3   344  LEU344      0.0019
     39  CD1       45.0000  -26.5410   14.9760 C.3   344  LEU344      0.0001
     40  CD2       45.5090  -24.5130   13.5050 C.3   344  LEU344      0.0001
     41  N         47.6160  -24.3020   18.1010 N.am  345  TYR345     -0.1976
     42  CA        49.0400  -24.5820   18.1840 C.3   345  TYR345      0.1639
     43  C         49.4900  -24.8050   19.6320 C.2   345  TYR345      0.2290
     44  O         50.5550  -25.3890   19.8790 O.2   345  TYR345     -0.2864
     45  CB        49.8360  -23.4350   17.5970 C.3   345  TYR345      0.0560
     46  CG        49.8640  -23.3720   16.0760 C.ar  345  TYR345     -0.0198
     47  CD1       50.6230  -24.3050   15.3330 C.ar  345  TYR345     -0.0009
     48  CD2       49.2000  -22.3460   15.3690 C.ar  345  TYR345     -0.0009
     49  CE1       50.6690  -24.2550   13.9740 C.ar  345  TYR345      0.0417
     50  CE2       49.2240  -22.3000   13.9860 C.ar  345  TYR345      0.0417
     51  CZ        49.9680  -23.2550   13.3140 C.ar  345  TYR345      0.1957
     52  OH        50.0840  -23.2290   11.9600 O.3   345  TYR345     -0.2866
     53  N         37.4700  -23.2510    6.0470 N.3   422  TYR422     -0.1227
     54  CA        38.8840  -22.9670    6.1340 C.3   422  TYR422      0.1736
     55  C         39.4420  -23.4900    7.4430 C.2   422  TYR422      0.2595
     56  O         40.4840  -24.1790    7.4580 O.2   422  TYR422     -0.2718
     57  CB        39.1280  -21.4600    6.0170 C.3   422  TYR422      0.0548
     58  CG        40.5780  -21.0620    6.2520 C.ar  422  TYR422     -0.0200
     59  CD1       41.5460  -21.0930    5.1990 C.ar  422  TYR422     -0.0009
     60  CD2       40.9880  -20.6380    7.5100 C.ar  422  TYR422     -0.0009
     61  CE1       42.9110  -20.7160    5.4410 C.ar  422  TYR422      0.0417
     62  CE2       42.3150  -20.2590    7.7620 C.ar  422  TYR422      0.0417
     63  CZ        43.2690  -20.2900    6.7310 C.ar  422  TYR422      0.1957
     64  OH        44.5700  -19.9170    7.0750 O.3   422  TYR422     -0.2866
     65  N         38.7490  -23.1590    8.5500 N.am  423  ALA423     -0.1980
     66  CA        39.2830  -23.4220    9.8720 C.3   423  ALA423      0.1597
     67  C         39.3080  -24.9340   10.1450 C.2   423  ALA423      0.2287
     68  O         40.2050  -25.4410   10.8280 O.2   423  ALA423     -0.2864
     69  CB        38.5150  -22.6490   10.9810 C.3   423  ALA423      0.0319
     70  N         42.3920  -26.2190    8.2420 N.3   426  LYS426     -0.1245
     71  CA        43.6830  -25.8770    8.8760 C.3   426  LYS426      0.1561
     72  C         43.9350  -26.6940   10.1250 C.2   426  LYS426      0.2260
     73  O         45.0830  -27.0000   10.4530 O.2   426  LYS426     -0.2867
     74  CB        43.8590  -24.3710    9.1790 C.3   426  LYS426      0.0271
     75  CG        43.9430  -23.5890    7.8730 C.3   426  LYS426      0.0035
     76  CD        45.2510  -23.8510    7.1150 C.3   426  LYS426      0.0206
     77  CE        45.0290  -23.6740    5.6280 C.3   426  LYS426      0.1093
     78  NZ        46.3020  -23.2810    4.9590 N.3   426  LYS426     -0.1314
     79  N         46.0370  -12.8320    2.2940 N.3   595  PHE595     -0.1227
     80  CA        47.4500  -13.2800    2.4980 C.3   595  PHE595      0.1736
     81  C         47.6860  -13.8420    3.8880 C.2   595  PHE595      0.2595
     82  O         48.4940  -14.7410    4.0650 O.2   595  PHE595     -0.2718
     83  CB        48.4370  -12.1190    2.2430 C.3   595  PHE595      0.0547
     84  CG        48.2290  -11.4820    0.9330 C.ar  595  PHE595     -0.0202
     85  CD1       48.0120  -12.2880   -0.1970 C.ar  595  PHE595     -0.0042
     86  CD2       48.2140  -10.1280    0.8040 C.ar  595  PHE595     -0.0042
     87  CE1       47.7780  -11.7280   -1.4450 C.ar  595  PHE595     -0.0003
     88  CE2       47.9810   -9.5580   -0.4440 C.ar  595  PHE595     -0.0003
     89  CZ        47.7710  -10.3520   -1.5610 C.ar  595  PHE595     -0.0000
     90  N         47.0000  -13.2910    4.8970 N.am  596  VAL596     -0.1966
     91  CA        47.1020  -13.8290    6.2280 C.3   596  VAL596      0.1727
     92  C         46.6730  -15.2850    6.2270 C.2   596  VAL596      0.2616
     93  O         47.3670  -16.1120    6.7560 O.2   596  VAL596     -0.2715
     94  CB        46.2890  -12.9910    7.2410 C.3   596  VAL596      0.0290
     95  CG1       46.2310  -13.6420    8.6560 C.3   596  VAL596      0.0023
     96  CG2       46.8640  -11.5880    7.3110 C.3   596  VAL596      0.0023
     97  N         45.5180  -15.5900    5.6530 N.am  597  LEU597     -0.1977
     98  CA        45.0020  -16.9660    5.6300 C.3   597  LEU597      0.1596
     99  C         45.7490  -17.9240    4.6500 C.2   597  LEU597      0.2287
    100  O         45.7820  -19.1180    4.9200 O.2   597  LEU597     -0.2864
    101  CB        43.4660  -17.0030    5.3270 C.3   597  LEU597      0.0297
    102  CG        42.5580  -16.7820    6.5790 C.3   597  LEU597      0.0022
    103  CD1       42.7100  -15.4560    7.2680 C.3   597  LEU597      0.0001
    104  CD2       41.1000  -16.9510    6.2360 C.3   597  LEU597      0.0001
    105  N         49.2750  -17.7580    3.0760 N.3   599  PRO599     -0.2116
    106  CA        50.5510  -17.0670    2.9480 C.3   599  PRO599      0.1372
    107  C         51.4330  -17.6970    1.8620 C.2   599  PRO599      0.2244
    108  O         52.3700  -17.0650    1.4490 O.2   599  PRO599     -0.2868
    109  CB        51.2090  -17.2590    4.3090 C.3   599  PRO599      0.0268
    110  CG        50.5380  -18.4410    4.9260 C.3   599  PRO599      0.0207
    111  CD        49.1370  -18.4860    4.3690 C.3   599  PRO599      0.0892
    112  N         50.3400  -16.4950   -3.0240 N.3   602  TYR602     -0.1241
    113  CA        50.8960  -15.5960   -4.0360 C.3   602  TYR602      0.1605
    114  C         52.3490  -15.3520   -3.6780 C.2   602  TYR602      0.2264
    115  O         52.6870  -15.5590   -2.5300 O.2   602  TYR602     -0.2867
    116  CB        50.1790  -14.2370   -4.0010 C.3   602  TYR602      0.0534
    117  CG        48.8570  -14.3430   -4.6180 C.ar  602  TYR602     -0.0201
    118  CD1       48.7460  -14.4430   -5.9860 C.ar  602  TYR602     -0.0009
    119  CD2       47.6930  -14.4220   -3.8250 C.ar  602  TYR602     -0.0009
    120  CE1       47.5280  -14.6430   -6.5670 C.ar  602  TYR602      0.0417
    121  CE2       46.4500  -14.6110   -4.4120 C.ar  602  TYR602      0.0417
    122  CZ        46.3780  -14.7190   -5.7710 C.ar  602  TYR602      0.1957
    123  OH        45.1740  -14.8470   -6.4020 O.3   602  TYR602     -0.2866
    124  N         55.9700  -13.2460   -2.9290 N.3   604  ARG604     -0.1245
    125  CA        56.3130  -12.1260   -2.0830 C.3   604  ARG604      0.1563
    126  C         56.1440  -10.7120   -2.7290 C.2   604  ARG604      0.2260
    127  O         55.6920   -9.7760   -2.0540 O.2   604  ARG604     -0.2867
    128  CB        57.7410  -12.3440   -1.6010 C.3   604  ARG604      0.0307
    129  CG        58.1200  -11.5850   -0.3630 C.3   604  ARG604      0.0489
    130  CD        59.5430  -11.0730   -0.5240 C.3   604  ARG604      0.2205
    131  NE        59.6230   -9.6380   -0.2400 N.pl3 604  ARG604     -0.0865
    132  CZ        59.8030   -8.6990   -1.1610 C.cat 604  ARG604      0.5346
    133  NH1       59.8380   -7.4440   -0.7730 N.pl3 604  ARG604      0.1354
    134  NH2       59.9650   -9.0080   -2.4540 N.pl3 604  ARG604      0.1354
    135  N         52.4570   -9.8240   -2.9010 N.3   607  VAL607     -0.1245
    136  CA        51.9950   -9.5080   -1.5720 C.3   607  VAL607      0.1561
    137  C         52.5010   -8.1060   -1.2390 C.2   607  VAL607      0.2260
    138  O         51.7080   -7.2380   -0.7940 O.2   607  VAL607     -0.2867
    139  CB        52.4260  -10.5630   -0.5250 C.3   607  VAL607      0.0252
    140  CG1       51.9130  -10.1820    0.8840 C.3   607  VAL607      0.0019
    141  CG2       51.8890  -11.8910   -0.9250 C.3   607  VAL607      0.0019
    142  N         51.1180   -8.9660   10.3820 N.3   631  ILE631     -0.1231
    143  CA        51.4820  -10.3080   10.0830 C.3   631  ILE631      0.1692
    144  C         52.0430  -10.4200    8.6840 C.2   631  ILE631      0.2591
    145  O         53.0660  -11.0770    8.4940 O.2   631  ILE631     -0.2718
    146  CB        50.3250  -11.2640   10.2660 C.3   631  ILE631      0.0266
    147  CG1       50.2000  -11.6110   11.7560 C.3   631  ILE631      0.0019
    148  CG2       50.5760  -12.5540    9.4850 C.3   631  ILE631      0.0020
    149  CD1       48.8120  -12.2120   12.0560 C.3   631  ILE631      0.0001
    150  N         51.4120   -9.7270    7.7360 N.am  632  VAL632     -0.1980
    151  CA        51.8700   -9.6460    6.3510 C.3   632  VAL632      0.1595
    152  C         53.1910   -8.8410    6.2580 C.2   632  VAL632      0.2287
    153  O         54.1460   -9.3080    5.6380 O.2   632  VAL632     -0.2864
    154  CB        50.7480   -9.0780    5.4440 C.3   632  VAL632      0.0276
    155  CG1       51.2510   -8.8240    4.0520 C.3   632  VAL632      0.0022
    156  CG2       49.5520  -10.0470    5.4020 C.3   632  VAL632      0.0022
    157  N         56.7530  -10.4010    7.0040 N.3   635  GLN635     -0.1231
    158  CA        57.1540  -11.4810    6.1270 C.3   635  GLN635      0.1698
    159  C         57.4370  -10.9980    4.7030 C.2   635  GLN635      0.2592
    160  O         57.8420  -11.7710    3.8590 O.2   635  GLN635     -0.2718
    161  CB        56.0660  -12.5760    6.0900 C.3   635  GLN635      0.0381
    162  CG        56.0910  -13.6030    7.2640 C.3   635  GLN635      0.0905
    163  CD        57.5120  -14.0390    7.6710 C.2   635  GLN635      0.2608
    164  OE1       58.3420  -14.2840    6.8020 O.2   635  GLN635     -0.2717
    165  NE2       57.8020  -14.1160    8.9790 N.am  635  GLN635     -0.0878
    166  N         57.2120   -9.7350    4.4350 N.am  636  ILE636     -0.1980
    167  CA        57.6790   -9.1240    3.1670 C.3   636  ILE636      0.1595
    168  C         58.6880   -8.0380    3.4900 C.2   636  ILE636      0.2287
    169  O         58.7110   -6.9830    2.8540 O.2   636  ILE636     -0.2864
    170  CB        56.5100   -8.4730    2.3610 C.3   636  ILE636      0.0276
    171  CG1       55.7160   -7.4980    3.2350 C.3   636  ILE636      0.0022
    172  CG2       55.5230   -9.5100    1.8410 C.3   636  ILE636      0.0022
    173  CD1       54.7470   -6.6920    2.3890 C.3   636  ILE636      0.0001
    174  N         49.3340  -14.4010   17.5360 N.3   680  GLN680     -0.1245
    175  CA        49.6500  -14.7590   16.1580 C.3   680  GLN680      0.1566
    176  C         50.6510  -13.7980   15.5430 C.2   680  GLN680      0.2260
    177  O         51.4150  -14.2130   14.6740 O.2   680  GLN680     -0.2867
    178  CB        48.4100  -14.7320   15.2440 C.3   680  GLN680      0.0367
    179  CG        47.3100  -15.7260   15.4680 C.3   680  GLN680      0.0905
    180  CD        46.1170  -15.3930   14.5740 C.2   680  GLN680      0.2608
    181  OE1       46.2800  -15.1430   13.3610 O.2   680  GLN680     -0.2717
    182  NE2       44.8930  -15.3400   15.1830 N.am  680  GLN680     -0.0878
    183  N         52.9790  -16.3840   14.2080 N.3   684  ASN684     -0.1240
    184  CA        52.7680  -16.5460   12.8040 C.3   684  ASN684      0.1653
    185  C         53.3860  -15.3960   12.0670 C.2   684  ASN684      0.2266
    186  O         53.7870  -15.5620   10.9140 O.2   684  ASN684     -0.2867
    187  CB        51.2790  -16.6400   12.4550 C.3   684  ASN684      0.1155
    188  CG        50.6210  -17.8210   13.1240 C.2   684  ASN684      0.2627
    189  OD1       49.7960  -17.6740   14.0340 O.2   684  ASN684     -0.2716
    190  ND2       51.0530  -19.0030   12.7430 N.am  684  ASN684     -0.0877
    191  N         56.7450  -16.4040   11.5570 N.3   688  GLY688     -0.1210
    192  CA        56.5040  -16.9170   10.1970 C.3   688  GLY688      0.1956
    193  C         56.0620  -18.3690   10.2770 C.2   688  GLY688      0.2612
    194  O         56.1350  -19.0980    9.3080 O.2   688  GLY688     -0.2717
    195  N         55.6450  -18.8350   11.4510 N.am  689  LEU689     -0.1965
    196  CA        55.0780  -20.2070   11.5400 C.3   689  LEU689      0.1728
    197  C         53.8920  -20.3860   10.6430 C.2   689  LEU689      0.2616
    198  O         52.8810  -19.6780   10.7680 O.2   689  LEU689     -0.2715
    199  CB        54.6390  -20.5730   12.9680 C.3   689  LEU689      0.0311
    200  CG        54.0810  -21.9960   13.0830 C.3   689  LEU689      0.0022
    201  CD1       55.2140  -22.9960   12.8590 C.3   689  LEU689      0.0001
    202  CD2       53.4340  -22.2630   14.4310 C.3   689  LEU689      0.0001
    203  N         54.0070  -21.3320    9.7240 N.am  690  SER690     -0.1950
    204  CA        52.8410  -21.9010    9.0500 C.3   690  SER690      0.1924
    205  C         53.0420  -23.3750    8.6250 C.2   690  SER690      0.2314
    206  O         54.1450  -23.9050    8.6210 O.2   690  SER690     -0.2863
    207  CB        52.4120  -21.0590    7.8590 C.3   690  SER690      0.2116
    208  OG        53.4030  -21.0910    6.8750 O.3   690  SER690     -0.2180
@<TRIPOS>BOND
     1   120   118   ar
     2   120   122   ar
     3   123   122    1
     4   118   117   ar
     5   122   121   ar
     6   117   116    1
     7   117   119   ar
     8   121   119   ar
     9   113   116    1
    10   113   114    1
    11   113   112    1
    12   114   115    2
    13   124   125    1
    14   135   136    1
    15   126   125    1
    16   126   127    2
    17   134   132    1
    18   125   128    1
    19   128   129    1
    20   136   137    1
    21   136   139    1
    22    89    87   ar
    23    89    88   ar
    24    87    85   ar
    25   137   138    2
    26   132   133    1
    27   132   131    2
    28   141   139    1
    29   139   140    1
    30   130   129    1
    31   130   131    1
    32    88    86   ar
    33    85    84   ar
    34    86    84   ar
    35    84    83    1
    36   108   107    2
    37   172   170    1
    38   107   106    1
    39    83    80    1
    40    79    80    1
    41   170   167    1
    42   170   171    1
    43   173   171    1
    44    80    81    1
    45   169   168    2
    46   106   105    1
    47   106   109    1
    48   105   111    1
    49   167   168    1
    50   167   166    1
    51   160   159    2
    52    81    82    2
    53    81    90   am
    54   155   154    1
    55   109   110    1
    56   111   110    1
    57   166   159   am
    58    99   100    2
    59    99    98    1
    60   159   158    1
    61    90    91    1
    62    78    77    1
    63    59    61   ar
    64    59    58   ar
    65   101    98    1
    66   101   102    1
    67   156   154    1
    68    61    63   ar
    69   154   151    1
    70    77    76    1
    71    98    97    1
    72   153   152    2
    73    97    92   am
    74    57    54    1
    75    57    58    1
    76    53    54    1
    77   161   158    1
    78   161   162    1
    79   158   157    1
    80    54    55    1
    81    92    91    1
    82    92    93    2
    83    91    94    1
    84   104   102    1
    85    58    60   ar
    86   152   151    1
    87   151   150    1
    88   102   103    1
    89    63    64    1
    90    63    62   ar
    91   164   163    2
    92   208   207    1
    93    76    75    1
    94    94    96    1
    95    94    95    1
    96   162   163    1
    97    55    56    2
    98    55    65   am
    99    60    62   ar
   100   163   165   am
   101   150   144   am
   102   207   204    1
   103    75    74    1
   104    70    71    1
   105   145   144    2
   106    65    66    1
   107   206   205    2
   108   205   204    1
   109   144   143    1
   110    71    74    1
   111    71    72    1
   112   204   203    1
   113   194   193    2
   114   148   146    1
   115    17    15    1
   116   203   197   am
   117    66    67    1
   118    66    69    1
   119   143   146    1
   120   143   142    1
   121    72    73    2
   122    67    68    2
   123   192   193    1
   124   192   191    1
   125   146   147    1
   126   193   195   am
   127    15    14    1
   128    16    14    1
   129   197   198    2
   130   197   196    1
   131   186   185    2
   132    14    11    1
   133   195   196    1
   134   196   199    1
   135   147   149    1
   136    52    51    1
   137   185   184    1
   138    11    10    1
   139    11    12    1
   140   187   184    1
   141   187   188    1
   142   190   188   am
   143   184   183    1
   144   201   200    1
   145     5     6    1
   146     5     2    1
   147   199   200    1
   148    13    12    2
   149   200   202    1
   150    10     3   am
   151   188   189    2
   152     6     7    1
   153    51    49   ar
   154    51    50   ar
   155   181   180    2
   156    40    38    1
   157     3     4    2
   158     3     2    1
   159     8     7   ar
   160    49    47   ar
   161     7     9   ar
   162    50    48   ar
   163     2     1    1
   164    25    24    1
   165    31    30    1
   166    31    32    1
   167   180   182   am
   168   180   179    1
   169   177   176    2
   170    24    23    1
   171    38    39    1
   172    38    37    1
   173   178   179    1
   174   178   175    1
   175    30    27    1
   176    47    46   ar
   177    48    46   ar
   178    32    26    1
   179   176   175    1
   180    23    22    1
   181    37    34    1
   182    46    45    1
   183    22    19    1
   184    27    26    1
   185    27    28    1
   186   175   174    1
   187    26    20   am
   188    20    19    1
   189    20    21    2
   190    19    18    1
   191    29    28    2
   192    34    35    1
   193    34    33    1
   194    45    42    1
   195    36    35    2
   196    35    41   am
   197    41    42    1
   198    42    43    1
   199    43    44    2
