@<TRIPOS>MOLECULE
tmp/4ktrG01.pdb
 79 75 0 0 0
SMALL
GASTEIGER

@<TRIPOS>ATOM
      1  N         40.2190   85.6940   36.0950 N.3    65  LYS65      -0.1245
      2  CA        38.9760   85.0700   36.4530 C.3    65  LYS65       0.1561
      3  C         38.3220   84.4310   35.2090 C.2    65  LYS65       0.2260
      4  O         37.1140   84.5770   34.9930 O.2    65  LYS65      -0.2867
      5  CB        38.0950   86.1310   37.0930 C.3    65  LYS65       0.0271
      6  CG        37.0120   85.6110   38.0010 C.3    65  LYS65       0.0035
      7  CD        36.1570   86.8080   38.4020 C.3    65  LYS65       0.0206
      8  CE        34.8200   86.3490   38.9820 C.3    65  LYS65       0.1093
      9  NZ        34.2390   87.3710   39.8750 N.3    65  LYS65      -0.1314
     10  N         34.9210   82.7120   35.1800 N.3    68  GLY68      -0.1210
     11  CA        33.7780   83.5020   35.6800 C.3    68  GLY68       0.1956
     12  C         33.4260   83.4070   37.1750 C.2    68  GLY68       0.2611
     13  O         32.5500   84.1330   37.6430 O.2    68  GLY68      -0.2717
     14  N         34.1130   82.5340   37.9270 N.am   69  LYS69      -0.1979
     15  CA        33.8540   82.3190   39.3490 C.3    69  LYS69       0.1596
     16  C         35.0900   82.4870   40.2910 C.2    69  LYS69       0.2287
     17  O         35.0090   83.1190   41.3310 O.2    69  LYS69      -0.2864
     18  CB        33.2850   80.9210   39.5340 C.3    69  LYS69       0.0298
     19  CG        32.9160   80.6210   40.9690 C.3    69  LYS69       0.0038
     20  CD        32.2170   79.2990   41.0160 C.3    69  LYS69       0.0206
     21  CE        31.7180   79.0160   42.4240 C.3    69  LYS69       0.1093
     22  NZ        31.8230   77.5580   42.6260 N.3    69  LYS69      -0.1314
     23  N         28.3210   97.1390   50.0340 N.3   371  ARG371     -0.1245
     24  CA        27.5730   96.1150   49.3090 C.3   371  ARG371      0.1563
     25  C         26.6860   95.3390   50.2770 C.2   371  ARG371      0.2260
     26  O         25.5430   95.0480   49.9840 O.2   371  ARG371     -0.2867
     27  CB        28.4770   95.1890   48.4850 C.3   371  ARG371      0.0307
     28  CG        27.7420   93.9870   47.9120 C.3   371  ARG371      0.0489
     29  CD        28.5520   93.1950   46.8850 C.3   371  ARG371      0.2205
     30  NE        29.8600   92.7560   47.4200 N.pl3 371  ARG371     -0.0865
     31  CZ        30.0690   91.6860   48.2000 C.cat 371  ARG371      0.5346
     32  NH1       29.0610   90.8940   48.5400 N.pl3 371  ARG371      0.1354
     33  NH2       31.3010   91.3820   48.6050 N.pl3 371  ARG371      0.1354
     34  N         36.2490   91.5720   47.7050 N.3   389  GLU389     -0.1231
     35  CA        36.0570   90.1730   48.0840 C.3   389  GLU389      0.1699
     36  C         36.3220   89.2470   46.9130 C.2   389  GLU389      0.2592
     37  O         35.8130   89.4480   45.8140 O.2   389  GLU389     -0.2718
     38  CB        34.6580   89.9490   48.6200 C.3   389  GLU389      0.0402
     39  CG        34.4380   88.5490   49.1290 C.3   389  GLU389      0.1161
     40  CD        35.3890   88.1620   50.2200 C.2   389  GLU389      0.3649
     41  OE1       36.4670   87.5220   49.9270 O.co2 389  GLU389     -0.2457
     42  OE2       35.0330   88.4910   51.3790 O.co2 389  GLU389     -0.2457
     43  N         37.1440   88.2360   47.1390 N.am  390  LEU390     -0.1966
     44  CA        37.3960   87.2570   46.0850 C.3   390  LEU390      0.1728
     45  C         36.7600   85.9100   46.3660 C.2   390  LEU390      0.2616
     46  O         36.7980   85.0310   45.4870 O.2   390  LEU390     -0.2715
     47  CB        38.8930   87.0960   45.9040 C.3   390  LEU390      0.0311
     48  CG        39.5560   87.8710   44.7890 C.3   390  LEU390      0.0022
     49  CD1       38.9550   89.2390   44.4360 C.3   390  LEU390      0.0001
     50  CD2       41.0570   87.8910   45.0580 C.3   390  LEU390      0.0001
     51  N         36.1540   85.7560   47.5640 N.am  391  CYS391     -0.1954
     52  CA        35.5620   84.4890   47.9840 C.3   391  CYS391      0.1828
     53  C         34.1520   84.3710   47.4270 C.2   391  CYS391      0.2467
     54  O         33.3130   85.1920   47.6870 O.2   391  CYS391     -0.2730
     55  CB        35.5490   84.3710   49.4930 C.3   391  CYS391      0.0996
     56  SG        34.9880   82.8110   50.2080 S.3   391  CYS391     -0.0797
     57  N         33.9040   83.3420   46.6180 N.am  392  PRO392     -0.2715
     58  CA        32.5520   83.1040   46.0840 C.3   392  PRO392      0.1536
     59  C         31.4940   82.8040   47.1640 C.2   392  PRO392      0.2598
     60  O         31.8370   82.2540   48.2190 O.2   392  PRO392     -0.2715
     61  CB        32.7530   81.8490   45.2190 C.3   392  PRO392      0.0310
     62  CG        34.2250   81.8200   44.8640 C.3   392  PRO392      0.0237
     63  CD        34.9500   82.4990   45.9880 C.3   392  PRO392      0.0939
     64  N         30.2130   83.1240   46.9040 N.am  393  ASP393     -0.1972
     65  CA        29.1090   82.6200   47.7640 C.3   393  ASP393      0.1709
     66  C         29.1250   81.1150   47.7870 C.2   393  ASP393      0.2293
     67  O         28.8580   80.5230   48.8260 O.2   393  ASP393     -0.2864
     68  CB        27.7090   83.0980   47.3090 C.3   393  ASP393      0.1436
     69  CG        27.5740   84.6430   47.2650 C.2   393  ASP393      0.3671
     70  OD1       28.5010   85.3880   47.6480 O.co2 393  ASP393     -0.2456
     71  OD2       26.5260   85.1400   46.8270 O.co2 393  ASP393     -0.2456
     72  N         32.3530   84.5260   53.1540 N.3   410  ASN410     -0.1240
     73  CA        32.4810   85.8790   52.6400 C.3   410  ASN410      0.1653
     74  C         31.5710   86.9800   53.2350 C.2   410  ASN410      0.2266
     75  O         31.7640   88.1470   52.8990 O.2   410  ASN410     -0.2867
     76  CB        32.3940   85.9030   51.1010 C.3   410  ASN410      0.1155
     77  CG        31.0040   85.5790   50.5570 C.2   410  ASN410      0.2627
     78  OD1       30.0210   85.3920   51.2990 O.2   410  ASN410     -0.2716
     79  ND2       30.9200   85.5080   49.2090 N.am  410  ASN410     -0.0877
@<TRIPOS>BOND
     1     4     3    2
     2    10    11    1
     3     3     2    1
     4    11    12    1
     5     1     2    1
     6     2     5    1
     7     5     6    1
     8    12    13    2
     9    12    14   am
    10    14    15    1
    11     6     7    1
    12     7     8    1
    13     8     9    1
    14    15    18    1
    15    15    16    1
    16    18    19    1
    17    16    17    2
    18    19    20    1
    19    20    21    1
    20    21    22    1
    21    49    48    1
    22    48    50    1
    23    48    47    1
    24    62    61    1
    25    62    63    1
    26    61    58    1
    27    46    45    2
    28    37    36    2
    29    47    44    1
    30    63    57    1
    31    58    57    1
    32    58    59    1
    33    44    45    1
    34    44    43    1
    35    45    51   am
    36    57    53   am
    37    71    69   ar
    38    29    30    1
    39    29    28    1
    40    64    59   am
    41    64    65    1
    42    36    43   am
    43    36    35    1
    44    59    60    2
    45    69    68    1
    46    69    70   ar
    47    68    65    1
    48    30    31    2
    49    53    54    2
    50    53    52    1
    51    51    52    1
    52    34    35    1
    53    65    66    1
    54    66    67    2
    55    28    27    1
    56    52    55    1
    57    35    38    1
    58    31    32    1
    59    31    33    1
    60    27    24    1
    61    38    39    1
    62    39    40    1
    63    79    77   am
    64    24    23    1
    65    24    25    1
    66    55    56    1
    67    41    40   ar
    68    26    25    2
    69    40    42   ar
    70    77    76    1
    71    77    78    2
    72    76    73    1
    73    73    72    1
    74    73    74    1
    75    75    74    2
