@<TRIPOS>MOLECULE
tmp/4ktrA03.pdb
 82 76 0 0 0
SMALL
GASTEIGER

@<TRIPOS>ATOM
      1  N         28.8340   -6.6590   46.5400 N.3    81  LEU81      -0.1245
      2  CA        28.6700   -5.2430   46.9300 C.3    81  LEU81       0.1561
      3  C         28.8900   -5.0640   48.4240 C.2    81  LEU81       0.2260
      4  O         28.3480   -5.8470   49.2470 O.2    81  LEU81      -0.2867
      5  CB        27.2760   -4.7400   46.5400 C.3    81  LEU81       0.0270
      6  CG        27.0500   -3.2560   46.6920 C.3    81  LEU81       0.0019
      7  CD1       27.9540   -2.4730   45.7180 C.3    81  LEU81       0.0001
      8  CD2       25.6000   -2.9830   46.4140 C.3    81  LEU81       0.0001
      9  N         29.7770   -1.6710   51.0590 N.3    83  LEU83      -0.1245
     10  CA        30.0230   -0.2640   51.3620 C.3    83  LEU83       0.1561
     11  C         30.4770   -0.1590   52.7750 C.2    83  LEU83       0.2260
     12  O         30.0330   -0.9260   53.6450 O.2    83  LEU83      -0.2867
     13  CB        28.7770    0.5830   51.1610 C.3    83  LEU83       0.0270
     14  CG        28.1270    0.1670   49.8250 C.3    83  LEU83       0.0019
     15  CD1       26.6450   -0.1520   49.9650 C.3    83  LEU83       0.0001
     16  CD2       28.3510    1.1840   48.7040 C.3    83  LEU83       0.0001
     17  N         28.5740   -2.8110   55.1790 N.3   158  ASP158     -0.1239
     18  CA        27.3370   -3.2470   54.6350 C.3   158  ASP158      0.1674
     19  C         27.6580   -4.0770   53.3720 C.2   158  ASP158      0.2266
     20  O         28.1550   -3.5510   52.3480 O.2   158  ASP158     -0.2867
     21  CB        26.4540   -1.9960   54.3810 C.3   158  ASP158      0.1410
     22  CG        25.0610   -2.3250   53.8780 C.2   158  ASP158      0.3668
     23  OD1       24.2460   -1.3850   53.8110 O.co2 158  ASP158     -0.2456
     24  OD2       24.7520   -3.4790   53.5000 O.co2 158  ASP158     -0.2456
     25  N         26.3060   -7.5240   50.7050 N.3   160  GLY160     -0.1210
     26  CA        25.1120   -8.2500   50.2880 C.3   160  GLY160      0.1956
     27  C         25.0760   -8.5030   48.7930 C.2   160  GLY160      0.2612
     28  O         26.1350   -8.5830   48.1410 O.2   160  GLY160     -0.2717
     29  N         23.8530   -8.6290   48.2670 N.am  161  ILE161     -0.1965
     30  CA        23.5870   -8.9210   46.8620 C.3   161  ILE161      0.1727
     31  C         22.8100   -7.7580   46.2500 C.2   161  ILE161      0.2616
     32  O         21.6960   -7.4440   46.6960 O.2   161  ILE161     -0.2715
     33  CB        22.7430  -10.1980   46.6710 C.3   161  ILE161      0.0290
     34  CG1       23.2720  -11.3880   47.4730 C.3   161  ILE161      0.0022
     35  CG2       22.6810  -10.5470   45.1840 C.3   161  ILE161      0.0023
     36  CD1       22.4960  -12.6840   47.2410 C.3   161  ILE161      0.0001
     37  N         23.3740   -7.1240   45.2250 N.am  162  ASP162     -0.1971
     38  CA        22.7150   -6.0250   44.5220 C.3   162  ASP162      0.1709
     39  C         21.9030   -6.5770   43.3650 C.2   162  ASP162      0.2293
     40  O         22.4710   -7.2040   42.4450 O.2   162  ASP162     -0.2864
     41  CB        23.7730   -5.0710   44.0120 C.3   162  ASP162      0.1436
     42  CG        23.2120   -3.7720   43.5040 C.2   162  ASP162      0.3671
     43  OD1       21.9840   -3.6300   43.3240 O.co2 162  ASP162     -0.2456
     44  OD2       24.0420   -2.8550   43.2690 O.co2 162  ASP162     -0.2456
     45  N         18.9040   -7.3770   56.0970 N.3   215  TYR215     -0.1241
     46  CA        17.7680   -6.6330   55.5130 C.3   215  TYR215      0.1605
     47  C         17.4530   -7.2750   54.1520 C.2   215  TYR215      0.2264
     48  O         18.3470   -7.8500   53.5190 O.2   215  TYR215     -0.2867
     49  CB        18.0660   -5.1390   55.3330 C.3   215  TYR215      0.0534
     50  CG        19.2880   -4.8500   54.4970 C.ar  215  TYR215     -0.0201
     51  CD1       19.1940   -4.6970   53.0980 C.ar  215  TYR215     -0.0009
     52  CD2       20.5460   -4.7100   55.0980 C.ar  215  TYR215     -0.0009
     53  CE1       20.3240   -4.4550   52.3230 C.ar  215  TYR215      0.0417
     54  CE2       21.6800   -4.4890   54.3350 C.ar  215  TYR215      0.0417
     55  CZ        21.5670   -4.3630   52.9560 C.ar  215  TYR215      0.1957
     56  OH        22.7070   -4.0920   52.2260 O.3   215  TYR215     -0.2866
     57  N         15.3510   -5.9020   50.6850 N.3   217  ASN217     -0.1240
     58  CA        14.3720   -5.1320   49.9150 C.3   217  ASN217      0.1653
     59  C         14.1460   -5.5630   48.4630 C.2   217  ASN217      0.2266
     60  O         14.7030   -6.5560   48.0060 O.2   217  ASN217     -0.2867
     61  CB        14.5520   -3.6360   50.0470 C.3   217  ASN217      0.1155
     62  CG        15.9490   -3.2520   50.3950 C.2   217  ASN217      0.2627
     63  OD1       16.7810   -3.1390   49.5130 O.2   217  ASN217     -0.2716
     64  ND2       16.2130   -3.0240   51.6870 N.am  217  ASN217     -0.0877
     65  N         15.1550   -4.2560   45.7380 N.3   219  ASP219     -0.1225
     66  CA        16.4300   -4.1070   45.0400 C.3   219  ASP219      0.1805
     67  C         17.6500   -4.9620   45.4690 C.2   219  ASP219      0.2598
     68  O         18.7390   -4.7690   44.9150 O.2   219  ASP219     -0.2718
     69  CB        16.8670   -2.6500   45.1160 C.3   219  ASP219      0.1424
     70  CG        16.2030   -1.7850   44.0710 C.2   219  ASP219      0.3668
     71  OD1       16.1410   -0.5560   44.3120 O.co2 219  ASP219     -0.2456
     72  OD2       15.7550   -2.3180   43.0190 O.co2 219  ASP219     -0.2456
     73  N         17.4980   -5.8840   46.4220 N.am  220  GLY220     -0.1942
     74  CA        18.6600   -6.6220   46.9730 C.3   220  GLY220      0.2014
     75  C         18.5810   -6.9380   48.4660 C.2   220  GLY220      0.2639
     76  O         17.7250   -6.4430   49.1570 O.2   220  GLY220     -0.2714
     77  N         19.4590   -7.8050   48.9520 N.am  221  SER221     -0.1949
     78  CA        19.5140   -8.1470   50.3580 C.3   221  SER221      0.1924
     79  C         20.9810   -8.0380   50.8610 C.2   221  SER221      0.2314
     80  O         21.9040   -7.8300   50.0780 O.2   221  SER221     -0.2863
     81  CB        19.0580   -9.5600   50.5120 C.3   221  SER221      0.2116
     82  OG        20.0600  -10.4060   49.9720 O.3   221  SER221     -0.2180
@<TRIPOS>BOND
     1    40    39    2
     2    72    70   ar
     3    44    42   ar
     4    43    42   ar
     5    39    38    1
     6    42    41    1
     7    41    38    1
     8    70    71   ar
     9    70    69    1
    10    38    37    1
    11    68    67    2
    12    66    69    1
    13    66    67    1
    14    66    65    1
    15    35    33    1
    16    37    31   am
    17    67    73   am
    18     7     6    1
    19    31    32    2
    20    31    30    1
    21     8     6    1
    22    73    74    1
    23     5     6    1
    24     5     2    1
    25     1     2    1
    26    33    30    1
    27    33    34    1
    28    30    29    1
    29     2     3    1
    30    74    75    1
    31    36    34    1
    32    60    59    2
    33    28    27    2
    34    29    27   am
    35     3     4    2
    36    59    58    1
    37    75    77   am
    38    75    76    2
    39    16    14    1
    40    27    26    1
    41    77    78    1
    42    63    62    2
    43    14    15    1
    44    14    13    1
    45    58    61    1
    46    58    57    1
    47    82    81    1
    48    61    62    1
    49    80    79    2
    50    26    25    1
    51    78    81    1
    52    78    79    1
    53    62    64   am
    54     9    10    1
    55    13    10    1
    56    10    11    1
    57    56    55    1
    58    53    55   ar
    59    53    51   ar
    60    20    19    2
    61    11    12    2
    62    55    54   ar
    63    51    50   ar
    64    19    18    1
    65    24    22   ar
    66    48    47    2
    67    23    22   ar
    68    22    21    1
    69    47    46    1
    70    54    52   ar
    71    21    18    1
    72    50    52   ar
    73    50    49    1
    74    18    17    1
    75    49    46    1
    76    46    45    1
