@<TRIPOS>MOLECULE
tmp/4kttC00.pdb
 96 91 0 0 0
SMALL
GASTEIGER

@<TRIPOS>ATOM
      1  N         31.2470  -14.8080  -60.3290 N.3    15  HIS15      -0.1227
      2  CA        29.9710  -15.1700  -59.7320 C.3    15  HIS15       0.1737
      3  C         28.9650  -14.1170  -60.1810 C.2    15  HIS15       0.2438
      4  O         29.2530  -12.9280  -60.0930 O.2    15  HIS15      -0.2733
      5  CB        30.0680  -15.2040  -58.2100 C.3    15  HIS15       0.0758
      6  CG        28.8360  -15.7210  -57.5450 C.ar   15  HIS15       0.0818
      7  ND1       27.7190  -14.9430  -57.3520 N.ar   15  HIS15      -0.2268
      8  CD2       28.5410  -16.9360  -57.0290 C.ar   15  HIS15       0.1154
      9  CE1       26.7870  -15.6530  -56.7440 C.ar   15  HIS15       0.1986
     10  NE2       27.2610  -16.8670  -56.5360 N.ar   15  HIS15      -0.2212
     11  N         27.7890  -14.5480  -60.6740 N.am   16  PRO16      -0.2729
     12  CA        26.8460  -13.6270  -61.3210 C.3    16  PRO16       0.1401
     13  C         26.2730  -12.5410  -60.4100 C.2    16  PRO16       0.2269
     14  O         26.0210  -11.4190  -60.8740 O.2    16  PRO16      -0.2865
     15  CB        25.7380  -14.5550  -61.8420 C.3    16  PRO16       0.0296
     16  CG        25.8910  -15.8320  -61.1010 C.3    16  PRO16       0.0237
     17  CD        27.3370  -15.9510  -60.7520 C.3    16  PRO16       0.0939
     18  N         33.9230  -17.8030  -62.8600 N.3   147  ASP147     -0.1239
     19  CA        32.9480  -18.0620  -61.7860 C.3   147  ASP147      0.1674
     20  C         33.5190  -19.0110  -60.7240 C.2   147  ASP147      0.2266
     21  O         33.9780  -20.1050  -61.0370 O.2   147  ASP147     -0.2867
     22  CB        31.6460  -18.6340  -62.3930 C.3   147  ASP147      0.1410
     23  CG        30.5080  -18.7880  -61.3790 C.2   147  ASP147      0.3668
     24  OD1       30.6540  -18.4240  -60.1920 O.co2 147  ASP147     -0.2456
     25  OD2       29.4390  -19.2850  -61.7890 O.co2 147  ASP147     -0.2456
     26  N         33.3990  -19.9880  -56.0980 N.3   149  LYS149     -0.1245
     27  CA        32.9650  -19.7880  -54.7110 C.3   149  LYS149      0.1561
     28  C         33.9270  -20.5040  -53.7720 C.2   149  LYS149      0.2260
     29  O         34.4690  -21.5600  -54.1120 O.2   149  LYS149     -0.2867
     30  CB        31.5520  -20.3360  -54.5010 C.3   149  LYS149      0.0271
     31  CG        30.4750  -19.6180  -55.3000 C.3   149  LYS149      0.0035
     32  CD        29.0840  -20.1240  -54.9660 C.3   149  LYS149      0.0206
     33  CE        28.6450  -19.7380  -53.5610 C.3   149  LYS149      0.1093
     34  NZ        27.2350  -20.1430  -53.2860 N.3   149  LYS149     -0.1314
     35  N         34.7540  -24.3680  -55.2830 N.3   174  SER174     -0.1217
     36  CA        34.0910  -24.7010  -56.5420 C.3   174  SER174      0.1889
     37  C         34.3740  -23.5780  -57.5260 C.2   174  SER174      0.2288
     38  O         34.1940  -22.4000  -57.2040 O.2   174  SER174     -0.2866
     39  CB        32.5940  -24.8540  -56.3600 C.3   174  SER174      0.2089
     40  OG        32.3020  -25.9760  -55.5620 O.3   174  SER174     -0.2183
     41  N         31.0480  -30.8580  -56.6250 N.3   215  SER215     -0.1217
     42  CA        29.9120  -31.2030  -57.4910 C.3   215  SER215      0.1889
     43  C         30.3090  -32.1680  -58.6040 C.2   215  SER215      0.2288
     44  O         29.4440  -32.7630  -59.2460 O.2   215  SER215     -0.2866
     45  CB        29.2880  -29.9470  -58.1120 C.3   215  SER215      0.2089
     46  OG        30.2180  -29.2440  -58.9170 O.3   215  SER215     -0.2183
     47  N         31.4990  -31.5420  -61.5340 N.3   217  ARG217     -0.1231
     48  CA        31.4890  -30.8850  -62.8400 C.3   217  ARG217      0.1694
     49  C         30.8930  -29.4740  -62.7260 C.2   217  ARG217      0.2592
     50  O         29.7360  -29.3160  -62.3430 O.2   217  ARG217     -0.2718
     51  CB        30.6810  -31.7220  -63.8310 C.3   217  ARG217      0.0321
     52  CG        30.6460  -31.1790  -65.2470 C.3   217  ARG217      0.0489
     53  CD        29.9800  -32.1640  -66.1940 C.3   217  ARG217      0.2205
     54  NE        29.5950  -31.5330  -67.4490 N.pl3 217  ARG217     -0.0865
     55  CZ        30.4220  -31.2590  -68.4510 C.cat 217  ARG217      0.5346
     56  NH1       31.7150  -31.5600  -68.3640 N.pl3 217  ARG217      0.1354
     57  NH2       29.9510  -30.6780  -69.5520 N.pl3 217  ARG217      0.1354
     58  N         31.6960  -28.4680  -63.0720 N.am  218  PHE218     -0.1976
     59  CA        31.3090  -27.0620  -63.0390 C.3   218  PHE218      0.1639
     60  C         31.7070  -26.4240  -64.3700 C.2   218  PHE218      0.2290
     61  O         32.5480  -25.5250  -64.4100 O.2   218  PHE218     -0.2864
     62  CB        32.0330  -26.3720  -61.8770 C.3   218  PHE218      0.0560
     63  CG        31.4900  -25.0070  -61.5070 C.ar  218  PHE218     -0.0200
     64  CD1       30.6710  -24.2690  -62.3650 C.ar  218  PHE218     -0.0042
     65  CD2       31.8430  -24.4400  -60.2910 C.ar  218  PHE218     -0.0042
     66  CE1       30.2070  -23.0170  -62.0010 C.ar  218  PHE218     -0.0003
     67  CE2       31.3820  -23.1910  -59.9260 C.ar  218  PHE218     -0.0003
     68  CZ        30.5630  -22.4760  -60.7820 C.ar  218  PHE218     -0.0000
     69  N         29.1580  -25.4820  -66.9660 N.3   220  ILE220     -0.1231
     70  CA        28.1430  -24.4490  -67.0750 C.3   220  ILE220      0.1692
     71  C         28.2280  -23.5890  -65.8390 C.2   220  ILE220      0.2593
     72  O         28.1410  -24.1030  -64.7260 O.2   220  ILE220     -0.2718
     73  CB        26.7260  -25.0310  -67.1340 C.3   220  ILE220      0.0266
     74  CG1       26.5550  -25.9140  -68.3750 C.3   220  ILE220      0.0019
     75  CG2       25.6990  -23.9020  -67.1200 C.3   220  ILE220      0.0020
     76  CD1       25.3920  -26.8840  -68.2640 C.3   220  ILE220      0.0001
     77  N         28.3760  -22.2850  -66.0430 N.am  221  GLY221     -0.1942
     78  CA        28.5940  -21.3480  -64.9460 C.3   221  GLY221      0.2014
     79  C         28.2700  -19.9160  -65.3100 C.2   221  GLY221      0.2639
     80  O         27.7220  -19.6470  -66.3800 O.2   221  GLY221     -0.2714
     81  N         28.6030  -18.9940  -64.4130 N.am  222  GLY222     -0.1954
     82  CA        28.1720  -17.5960  -64.5410 C.3   222  GLY222      0.1869
     83  C         26.6580  -17.4210  -64.7050 C.2   222  GLY222      0.2309
     84  O         25.8860  -18.2840  -64.2860 O.2   222  GLY222     -0.2863
     85  N         24.2550  -20.4100  -65.5020 N.3   225  GLY225     -0.1210
     86  CA        23.9390  -21.4280  -64.4810 C.3   225  GLY225      0.1956
     87  C         23.0890  -20.9350  -63.3190 C.2   225  GLY225      0.2611
     88  O         22.4660  -21.7290  -62.6100 O.2   225  GLY225     -0.2717
     89  N         23.0550  -19.6210  -63.1330 N.am  226  ASP226     -0.1973
     90  CA        22.4220  -19.0050  -61.9720 C.3   226  ASP226      0.1709
     91  C         22.2180  -17.5200  -62.2530 C.2   226  ASP226      0.2293
     92  O         23.1700  -16.8200  -62.6150 O.2   226  ASP226     -0.2864
     93  CB        23.3220  -19.1810  -60.7350 C.3   226  ASP226      0.1436
     94  CG        22.6530  -18.7470  -59.4410 C.2   226  ASP226      0.3671
     95  OD1       21.4690  -19.0760  -59.2310 O.co2 226  ASP226     -0.2456
     96  OD2       23.3170  -18.0840  -58.6210 O.co2 226  ASP226     -0.2456
@<TRIPOS>BOND
     1    57    55    1
     2    55    56    1
     3    55    54    2
     4    74    76    1
     5    74    73    1
     6    54    53    1
     7    73    75    1
     8    73    70    1
     9    70    69    1
    10    70    71    1
    11    80    79    2
    12    53    52    1
    13    77    71   am
    14    77    78    1
    15    71    72    2
    16    85    86    1
    17    79    78    1
    18    79    81   am
    19    52    51    1
    20    83    82    1
    21    83    84    2
    22    82    81    1
    23    86    87    1
    24    61    60    2
    25    60    59    1
    26    51    48    1
    27    87    89   am
    28    87    88    2
    29    89    90    1
    30    58    59    1
    31    58    49   am
    32    59    62    1
    33    18    19    1
    34    48    49    1
    35    48    47    1
    36    49    50    2
    37    92    91    2
    38    22    19    1
    39    22    23    1
    40    64    66   ar
    41    64    63   ar
    42    91    90    1
    43    66    68   ar
    44    90    93    1
    45    62    63    1
    46    15    12    1
    47    15    16    1
    48    25    23   ar
    49    19    20    1
    50    63    65   ar
    51    23    24   ar
    52    12    11    1
    53    12    13    1
    54    16    17    1
    55    21    20    2
    56    14    13    2
    57    68    67   ar
    58    17    11    1
    59    93    94    1
    60    11     3   am
    61     1     2    1
    62    65    67   ar
    63     3     4    2
    64     3     2    1
    65     2     5    1
    66    94    95   ar
    67    94    96   ar
    68    44    43    2
    69    46    45    1
    70    43    42    1
    71     5     6    1
    72    45    42    1
    73     6     7   ar
    74     6     8   ar
    75    37    38    2
    76    37    36    1
    77    42    41    1
    78     7     9   ar
    79     8    10   ar
    80     9    10   ar
    81    36    39    1
    82    36    35    1
    83    39    40    1
    84    26    27    1
    85    31    32    1
    86    31    30    1
    87    32    33    1
    88    27    30    1
    89    27    28    1
    90    29    28    2
    91    33    34    1
