@<TRIPOS>MOLECULE
tmp/4kttB00.pdb
 83 75 0 0 0
SMALL
GASTEIGER

@<TRIPOS>ATOM
      1  N         -0.5730  -15.6060  -82.5180 N.3    42  ALA42      -0.1245
      2  CA        -0.1290  -14.3610  -83.1070 C.3    42  ALA42       0.1562
      3  C          1.1780  -14.0160  -82.4110 C.2    42  ALA42       0.2260
      4  O          1.1910  -13.2110  -81.4810 O.2    42  ALA42      -0.2867
      5  CB        -1.1740  -13.2830  -82.8720 C.3    42  ALA42       0.0290
      6  N          0.2700  -12.8960  -78.6660 N.3    57  GLU57      -0.1245
      7  CA        -0.8500  -13.5100  -77.9590 C.3    57  GLU57       0.1567
      8  C         -1.1380  -14.9090  -78.4890 C.2    57  GLU57       0.2260
      9  O         -1.1870  -15.1410  -79.6970 O.2    57  GLU57      -0.2867
     10  CB        -2.0960  -12.5980  -77.9500 C.3    57  GLU57       0.0388
     11  CG        -2.3170  -11.7330  -79.1870 C.3    57  GLU57       0.1160
     12  CD        -1.2650  -10.6410  -79.3990 C.2    57  GLU57       0.3649
     13  OE1       -0.8840   -9.9410  -78.4290 O.co2  57  GLU57      -0.2457
     14  OE2       -0.8150  -10.4800  -80.5610 O.co2  57  GLU57      -0.2457
     15  N         -4.8190  -14.5520  -76.2330 N.3   100  GLN100     -0.1231
     16  CA        -5.5870  -13.7900  -77.2020 C.3   100  GLN100      0.1698
     17  C         -6.7330  -13.1240  -76.4560 C.2   100  GLN100      0.2592
     18  O         -7.2980  -13.7240  -75.5490 O.2   100  GLN100     -0.2718
     19  CB        -6.1260  -14.6950  -78.3170 C.3   100  GLN100      0.0381
     20  CG        -6.7360  -13.9250  -79.4800 C.3   100  GLN100      0.0905
     21  CD        -7.4370  -14.8120  -80.4890 C.2   100  GLN100      0.2608
     22  OE1       -7.0570  -14.8700  -81.6570 O.2   100  GLN100     -0.2717
     23  NE2       -8.4730  -15.4980  -80.0440 N.am  100  GLN100     -0.0878
     24  N         -7.0430  -11.8810  -76.8230 N.am  101  SER101     -0.1952
     25  CA        -8.1370  -11.1120  -76.2180 C.3   101  SER101      0.1924
     26  C         -9.4830  -11.8390  -76.3460 C.2   101  SER101      0.2314
     27  O         -9.8570  -12.2460  -77.4450 O.2   101  SER101     -0.2863
     28  CB        -8.2410   -9.7320  -76.8960 C.3   101  SER101      0.2116
     29  OG        -9.4800   -9.0810  -76.6240 O.3   101  SER101     -0.2180
     30  N        -12.3960  -10.4220  -76.2860 N.3   103  ASP103     -0.1225
     31  CA       -13.1730   -9.5860  -77.2060 C.3   103  ASP103      0.1805
     32  C        -12.9850   -9.9780  -78.6630 C.2   103  ASP103      0.2597
     33  O        -13.9050   -9.8560  -79.4610 O.2   103  ASP103     -0.2718
     34  CB       -12.7960   -8.1100  -77.0610 C.3   103  ASP103      0.1424
     35  CG       -13.1290   -7.5400  -75.6980 C.2   103  ASP103      0.3668
     36  OD1      -13.4070   -8.3240  -74.7600 O.co2 103  ASP103     -0.2456
     37  OD2      -13.0880   -6.2920  -75.5790 O.co2 103  ASP103     -0.2456
     38  N        -11.7850  -10.4220  -79.0150 N.am  104  ILE104     -0.1980
     39  CA       -11.5370  -10.9840  -80.3500 C.3   104  ILE104      0.1595
     40  C        -12.1070  -12.4040  -80.4480 C.2   104  ILE104      0.2287
     41  O        -12.8100  -12.7300  -81.4080 O.2   104  ILE104     -0.2864
     42  CB       -10.0310  -11.0190  -80.6960 C.3   104  ILE104      0.0276
     43  CG1       -9.4570   -9.5980  -80.7040 C.3   104  ILE104      0.0022
     44  CG2       -9.8090  -11.7010  -82.0430 C.3   104  ILE104      0.0022
     45  CD1       -7.9750   -9.5420  -80.9960 C.3   104  ILE104      0.0001
     46  N        -10.2430  -13.2480  -88.8010 N.3   120  GLY120     -0.1210
     47  CA        -9.6530  -12.8950  -87.5070 C.3   120  GLY120      0.1956
     48  C         -9.2820  -11.4290  -87.4070 C.2   120  GLY120      0.2611
     49  O         -8.8640  -10.9550  -86.3450 O.2   120  GLY120     -0.2717
     50  N         -9.4270  -10.7240  -88.5260 N.am  121  ASP121     -0.1973
     51  CA        -9.1130   -9.3160  -88.6320 C.3   121  ASP121      0.1709
     52  C         -9.8130   -8.7880  -89.8720 C.2   121  ASP121      0.2293
     53  O        -10.2860   -9.5670  -90.7070 O.2   121  ASP121     -0.2864
     54  CB        -7.5980   -9.1520  -88.7890 C.3   121  ASP121      0.1436
     55  CG        -7.0920   -7.7650  -88.3940 C.2   121  ASP121      0.3671
     56  OD1       -7.9010   -6.8540  -88.1010 O.co2 121  ASP121     -0.2456
     57  OD2       -5.8530   -7.5990  -88.3740 O.co2 121  ASP121     -0.2456
     58  N          1.3980  -16.5830  -87.3220 N.3   272  LYS272     -0.1245
     59  CA        -0.0630  -16.5140  -87.3250 C.3   272  LYS272      0.1561
     60  C         -0.7190  -17.8050  -87.8020 C.2   272  LYS272      0.2260
     61  O         -0.3020  -18.4070  -88.7860 O.2   272  LYS272     -0.2867
     62  CB        -0.5360  -15.3820  -88.2410 C.3   272  LYS272      0.0271
     63  CG        -0.3310  -13.9840  -87.7050 C.3   272  LYS272      0.0035
     64  CD        -0.6360  -12.9650  -88.7920 C.3   272  LYS272      0.0206
     65  CE        -0.0300  -11.6030  -88.4880 C.3   272  LYS272      0.1093
     66  NZ        -0.5590  -10.5900  -89.4410 N.3   272  LYS272     -0.1314
     67  N         -6.1540  -15.8560  -88.8440 N.3   276  LYS276     -0.1245
     68  CA        -5.5840  -14.6050  -89.3130 C.3   276  LYS276      0.1561
     69  C         -5.5280  -14.6740  -90.8320 C.2   276  LYS276      0.2260
     70  O         -4.6520  -15.3190  -91.4060 O.2   276  LYS276     -0.2867
     71  CB        -4.1930  -14.3910  -88.7220 C.3   276  LYS276      0.0271
     72  CG        -4.2000  -13.9300  -87.2730 C.3   276  LYS276      0.0035
     73  CD        -4.7090  -14.9870  -86.3080 C.3   276  LYS276      0.0206
     74  CE        -4.1410  -14.7530  -84.9170 C.3   276  LYS276      0.1093
     75  NZ        -4.7060  -15.6690  -83.8900 N.3   276  LYS276     -0.1314
     76  N        -13.5270   -8.1380  -89.7820 N.3   309  ILE309     -0.1245
     77  CA       -13.3830   -9.0230  -88.6420 C.3   309  ILE309      0.1561
     78  C        -14.7540   -9.5260  -88.1840 C.2   309  ILE309      0.2260
     79  O        -15.7450   -8.8020  -88.2370 O.2   309  ILE309     -0.2867
     80  CB       -12.6150   -8.3440  -87.4910 C.3   309  ILE309      0.0252
     81  CG1      -12.2120   -9.3790  -86.4350 C.3   309  ILE309      0.0019
     82  CG2      -13.4300   -7.2080  -86.8800 C.3   309  ILE309      0.0019
     83  CD1      -11.3580   -8.8110  -85.3190 C.3   309  ILE309      0.0001
@<TRIPOS>BOND
     1    70    69    2
     2    69    68    1
     3    53    52    2
     4    52    51    1
     5    76    77    1
     6    66    65    1
     7    68    67    1
     8    68    71    1
     9    46    47    1
    10    64    65    1
    11    64    63    1
    12    54    51    1
    13    54    55    1
    14    61    60    2
    15    71    72    1
    16    77    78    1
    17    77    80    1
    18    51    50    1
    19    50    48   am
    20    55    57   ar
    21    55    56   ar
    22    62    63    1
    23    62    59    1
    24    79    78    2
    25    60    59    1
    26    47    48    1
    27    80    82    1
    28    80    81    1
    29    48    49    2
    30    59    58    1
    31    72    73    1
    32    81    83    1
    33    73    74    1
    34    74    75    1
    35     2     5    1
    36     2     1    1
    37     2     3    1
    38     3     4    2
    39    44    42    1
    40    22    21    2
    41    41    40    2
    42    45    43    1
    43    43    42    1
    44    42    39    1
    45    14    12   ar
    46    21    23   am
    47    21    20    1
    48    40    39    1
    49    39    38    1
    50     9     8    2
    51    20    19    1
    52    33    32    2
    53    12    11    1
    54    12    13   ar
    55    11    10    1
    56    38    32   am
    57     6     7    1
    58    32    31    1
    59     8     7    1
    60    19    16    1
    61     7    10    1
    62    27    26    2
    63    31    34    1
    64    31    30    1
    65    16    17    1
    66    16    15    1
    67    34    35    1
    68    28    29    1
    69    28    25    1
    70    24    17   am
    71    24    25    1
    72    17    18    2
    73    26    25    1
    74    35    37   ar
    75    35    36   ar
