@<TRIPOS>MOLECULE
tmp/4ktvA00.pdb
 96 91 0 0 0
SMALL
GASTEIGER

@<TRIPOS>ATOM
      1  N         -3.5460   -2.0900   83.0690 N.3    15  HIS15      -0.1227
      2  CA        -3.2000   -0.7020   83.4410 C.3    15  HIS15       0.1737
      3  C         -1.7500   -0.3490   83.0770 C.2    15  HIS15       0.2438
      4  O         -0.8490   -1.0980   83.4200 O.2    15  HIS15      -0.2733
      5  CB        -3.3920   -0.5100   84.9490 C.3    15  HIS15       0.0758
      6  CG        -3.3090    0.9160   85.3990 C.ar   15  HIS15       0.0818
      7  ND1       -2.1130    1.5800   85.5470 N.ar   15  HIS15      -0.2268
      8  CD2       -4.2740    1.7960   85.7520 C.ar   15  HIS15       0.1154
      9  CE1       -2.3430    2.8130   85.9580 C.ar   15  HIS15       0.1986
     10  NE2       -3.6480    2.9680   86.0960 N.ar   15  HIS15      -0.2212
     11  N         -1.5150    0.8170   82.4400 N.am   16  PRO16      -0.2729
     12  CA        -0.1760    1.1500   81.8910 C.3    16  PRO16       0.1401
     13  C          0.9710    1.1230   82.9040 C.2    16  PRO16       0.2269
     14  O          2.0750    0.6980   82.5750 O.2    16  PRO16      -0.2865
     15  CB        -0.3410    2.5790   81.3650 C.3    16  PRO16       0.0296
     16  CG        -1.7960    2.8760   81.3910 C.3    16  PRO16       0.0237
     17  CD        -2.4370    1.9660   82.3810 C.3    16  PRO16       0.0939
     18  N         -7.1760   -3.0690   80.4400 N.3   146  ASP146     -0.1239
     19  CA        -7.0760   -1.9990   81.4590 C.3   146  ASP146      0.1674
     20  C         -8.3470   -1.9050   82.3080 C.2   146  ASP146      0.2266
     21  O         -9.4560   -1.8150   81.7680 O.2   146  ASP146     -0.2867
     22  CB        -6.8030   -0.6480   80.7610 C.3   146  ASP146      0.1410
     23  CG        -6.6090    0.5190   81.7340 C.2   146  ASP146      0.3668
     24  OD1       -6.6730    0.3160   82.9660 O.co2 146  ASP146     -0.2456
     25  OD2       -6.3860    1.6520   81.2420 O.co2 146  ASP146     -0.2456
     26  N         -9.7450   -0.8820   86.7650 N.3   148  LYS148     -0.1245
     27  CA        -9.3790   -0.3670   88.0880 C.3   148  LYS148      0.1561
     28  C        -10.4840   -0.6080   89.1150 C.2   148  LYS148      0.2260
     29  O        -11.6720   -0.5970   88.7730 O.2   148  LYS148     -0.2867
     30  CB        -9.0260    1.1220   88.0130 C.3   148  LYS148      0.0271
     31  CG        -7.5380    1.3880   87.8870 C.3   148  LYS148      0.0035
     32  CD        -7.2190    2.8660   87.6950 C.3   148  LYS148      0.0206
     33  CE        -7.2520    3.6380   89.0090 C.3   148  LYS148      0.1093
     34  NZ        -6.5920    4.9690   88.9050 N.3   148  LYS148     -0.1314
     35  N        -13.8890    0.5410   87.2540 N.3   173  SER173     -0.1217
     36  CA       -13.8880    1.0850   85.9110 C.3   173  SER173      0.1889
     37  C        -13.0260    0.1930   85.0340 C.2   173  SER173      0.2288
     38  O        -11.8590   -0.0260   85.3370 O.2   173  SER173     -0.2866
     39  CB       -13.3490    2.5090   85.9050 C.3   173  SER173      0.2089
     40  OG       -13.8920    3.2790   86.9560 O.3   173  SER173     -0.2183
     41  N        -16.9440    6.6430   85.3630 N.3   214  SER214     -0.1217
     42  CA       -16.3330    7.4220   84.2800 C.3   214  SER214      0.1889
     43  C        -17.2750    7.6620   83.1050 C.2   214  SER214      0.2288
     44  O        -17.0880    8.6110   82.3340 O.2   214  SER214     -0.2866
     45  CB       -15.0970    6.6820   83.7650 C.3   214  SER214      0.2089
     46  OG       -15.3780    5.3110   83.4900 O.3   214  SER214     -0.2183
     47  N        -17.7920    6.0530   80.3010 N.3   216  ARG216     -0.1231
     48  CA       -17.4250    5.4260   79.0510 C.3   216  ARG216      0.1694
     49  C        -15.9220    5.2880   79.0760 C.2   216  ARG216      0.2592
     50  O        -15.2160    6.2710   79.2980 O.2   216  ARG216     -0.2718
     51  CB       -17.8550    6.3080   77.8810 C.3   216  ARG216      0.0321
     52  CG       -17.7970    5.6420   76.5180 C.3   216  ARG216      0.0489
     53  CD       -18.2880    6.5950   75.4320 C.3   216  ARG216      0.2205
     54  NE       -18.0410    6.0770   74.0870 N.pl3 216  ARG216     -0.0865
     55  CZ       -16.9020    6.2110   73.4110 C.cat 216  ARG216      0.5346
     56  NH1      -15.8660    6.8570   73.9380 N.pl3 216  ARG216      0.1354
     57  NH2      -16.7930    5.6870   72.1950 N.pl3 216  ARG216      0.1354
     58  N        -15.4400    4.0710   78.8530 N.am  217  PHE217     -0.1976
     59  CA       -14.0320    3.7240   79.0260 C.3   217  PHE217      0.1639
     60  C        -13.6280    2.8250   77.8580 C.2   217  PHE217      0.2290
     61  O        -13.4970    1.6030   78.0110 O.2   217  PHE217     -0.2864
     62  CB       -13.8650    3.0130   80.3820 C.3   217  PHE217      0.0560
     63  CG       -12.4340    2.8200   80.8450 C.ar  217  PHE217     -0.0200
     64  CD1      -11.3460    2.8570   79.9720 C.ar  217  PHE217     -0.0042
     65  CD2      -12.1900    2.5420   82.1790 C.ar  217  PHE217     -0.0042
     66  CE1      -10.0540    2.6440   80.4340 C.ar  217  PHE217     -0.0003
     67  CE2      -10.9040    2.3260   82.6390 C.ar  217  PHE217     -0.0003
     68  CZ        -9.8340    2.3750   81.7690 C.ar  217  PHE217     -0.0000
     69  N        -11.1000    4.2970   75.2780 N.3   219  ILE219     -0.1231
     70  CA        -9.6910    4.6500   75.2360 C.3   219  ILE219      0.1692
     71  C         -9.0500    4.3890   76.5950 C.2   219  ILE219      0.2593
     72  O         -9.4650    4.9420   77.6300 O.2   219  ILE219     -0.2718
     73  CB        -9.4510    6.1110   74.8300 C.3   219  ILE219      0.0266
     74  CG1       -9.8960    6.3280   73.3800 C.3   219  ILE219      0.0019
     75  CG2       -7.9720    6.4590   74.9820 C.3   219  ILE219      0.0020
     76  CD1      -10.0460    7.7820   72.9850 C.3   219  ILE219      0.0001
     77  N         -8.0310    3.5370   76.5580 N.am  220  GLY220     -0.1942
     78  CA        -7.2320    3.2130   77.7220 C.3   220  GLY220      0.2014
     79  C         -6.0070    2.4020   77.3460 C.2   220  GLY220      0.2639
     80  O         -5.6810    2.2130   76.1590 O.2   220  GLY220     -0.2714
     81  N         -5.3350    1.9020   78.3740 N.am  221  GLY221     -0.1954
     82  CA        -4.0670    1.2290   78.1850 C.3   221  GLY221      0.1869
     83  C         -3.0260    2.3050   78.0420 C.2   221  GLY221      0.2309
     84  O         -3.2820    3.4560   78.4000 O.2   221  GLY221     -0.2863
     85  N         -4.3820    5.8310   76.9260 N.3   224  GLY224     -0.1210
     86  CA        -5.0890    6.7650   77.8120 C.3   224  GLY224      0.1956
     87  C         -4.2230    7.4990   78.8270 C.2   224  GLY224      0.2611
     88  O         -4.5610    8.6140   79.2450 O.2   224  GLY224     -0.2717
     89  N         -3.1200    6.8730   79.2350 N.am  225  ASP225     -0.1973
     90  CA        -2.1640    7.5010   80.1420 C.3   225  ASP225      0.1709
     91  C         -0.7920    6.8890   79.9060 C.2   225  ASP225      0.2293
     92  O         -0.6850    5.7890   79.3630 O.2   225  ASP225     -0.2864
     93  CB        -2.6030    7.3130   81.6020 C.3   225  ASP225      0.1436
     94  CG        -1.8880    8.2670   82.5880 C.2   225  ASP225      0.3671
     95  OD1       -0.9730    9.0320   82.1960 O.co2 225  ASP225     -0.2456
     96  OD2       -2.2510    8.2420   83.7880 O.co2 225  ASP225     -0.2456
@<TRIPOS>BOND
     1    57    55    1
     2    76    74    1
     3    74    73    1
     4    55    56    1
     5    55    54    2
     6    54    53    1
     7    73    75    1
     8    73    70    1
     9    70    69    1
    10    70    71    1
    11    53    52    1
    12    80    79    2
    13    52    51    1
    14    77    71   am
    15    77    78    1
    16    71    72    2
    17    85    86    1
    18    79    78    1
    19    79    81   am
    20    86    87    1
    21    60    61    2
    22    60    59    1
    23    51    48    1
    24    83    82    1
    25    83    84    2
    26    82    81    1
    27    87    89   am
    28    87    88    2
    29    58    59    1
    30    58    49   am
    31    59    62    1
    32    48    49    1
    33    48    47    1
    34    49    50    2
    35    89    90    1
    36    92    91    2
    37    91    90    1
    38    64    66   ar
    39    64    63   ar
    40    90    93    1
    41    62    63    1
    42    66    68   ar
    43    18    19    1
    44    22    19    1
    45    22    23    1
    46    63    65   ar
    47    25    23   ar
    48    15    16    1
    49    15    12    1
    50    16    17    1
    51    19    20    1
    52    93    94    1
    53    23    24   ar
    54    21    20    2
    55    68    67   ar
    56    12    11    1
    57    12    13    1
    58    65    67   ar
    59    95    94   ar
    60    44    43    2
    61    17    11    1
    62    11     3   am
    63    14    13    2
    64    94    96   ar
    65     1     2    1
    66     3     4    2
    67     3     2    1
    68    43    42    1
    69     2     5    1
    70    46    45    1
    71    45    42    1
    72    42    41    1
    73     5     6    1
    74    37    38    2
    75    37    36    1
    76     6     7   ar
    77     6     8   ar
    78     7     9   ar
    79     8    10   ar
    80    39    36    1
    81    39    40    1
    82    36    35    1
    83     9    10   ar
    84    26    27    1
    85    32    31    1
    86    32    33    1
    87    31    30    1
    88    30    27    1
    89    27    28    1
    90    29    28    2
    91    34    33    1
