@<TRIPOS>MOLECULE
tmp/4ktvC00.pdb
 103 99 0 0 0
SMALL
GASTEIGER

@<TRIPOS>ATOM
      1  N         31.1410   14.9700   60.6690 N.3    15  HIS15      -0.1227
      2  CA        29.8880   15.4000   60.0730 C.3    15  HIS15       0.1737
      3  C         28.7870   14.3840   60.4150 C.2    15  HIS15       0.2438
      4  O         28.9040   13.2070   60.0980 O.2    15  HIS15      -0.2733
      5  CB        30.0850   15.5390   58.5690 C.3    15  HIS15       0.0758
      6  CG        28.8750   15.9990   57.8310 C.ar   15  HIS15       0.0818
      7  ND1       27.7490   15.2200   57.6880 N.ar   15  HIS15      -0.2268
      8  CD2       28.6300   17.1430   57.1560 C.ar   15  HIS15       0.1154
      9  CE1       26.8510   15.8740   56.9790 C.ar   15  HIS15       0.1986
     10  NE2       27.3630   17.0410   56.6370 N.ar   15  HIS15      -0.2212
     11  N         27.7080   14.8350   61.0690 N.am   16  PRO16      -0.2729
     12  CA        26.7380   13.9040   61.6750 C.3    16  PRO16       0.1401
     13  C         26.0970   12.8880   60.7280 C.2    16  PRO16       0.2269
     14  O         25.7570   11.7980   61.1640 O.2    16  PRO16      -0.2865
     15  CB        25.6640   14.8320   62.2640 C.3    16  PRO16       0.0296
     16  CG        25.8430   16.1360   61.5690 C.3    16  PRO16       0.0237
     17  CD        27.2950   16.2410   61.2120 C.3    16  PRO16       0.0939
     18  N         33.8070   18.0680   63.1530 N.3   145  ASP145     -0.1239
     19  CA        32.8440   18.3530   62.0590 C.3   145  ASP145      0.1674
     20  C         33.4510   19.2330   60.9410 C.2   145  ASP145      0.2266
     21  O         33.8750   20.3690   61.1910 O.2   145  ASP145     -0.2867
     22  CB        31.5840   19.0270   62.6440 C.3   145  ASP145      0.1410
     23  CG        30.4090   19.0630   61.6720 C.2   145  ASP145      0.3668
     24  OD1       30.5840   18.6610   60.5030 O.co2 145  ASP145     -0.2456
     25  OD2       29.3050   19.4980   62.0870 O.co2 145  ASP145     -0.2456
     26  N         33.6070   20.0830   56.2770 N.3   147  LYS147     -0.1245
     27  CA        33.0410   19.9730   54.9290 C.3   147  LYS147      0.1561
     28  C         33.9460   20.7210   53.9450 C.2   147  LYS147      0.2260
     29  O         34.2440   21.9020   54.1450 O.2   147  LYS147     -0.2867
     30  CB        31.6360   20.5980   54.8510 C.3   147  LYS147      0.0271
     31  CG        30.5300   19.9190   55.6470 C.3   147  LYS147      0.0035
     32  CD        29.1530   20.4620   55.2680 C.3   147  LYS147      0.0206
     33  CE        28.6030   19.7900   54.0100 C.3   147  LYS147      0.1093
     34  NZ        27.4390   20.4840   53.3820 N.3   147  LYS147     -0.1314
     35  N         34.7300   24.5870   55.4420 N.3   172  SER172     -0.1217
     36  CA        34.0660   24.9980   56.6780 C.3   172  SER172      0.1889
     37  C         34.3760   23.8860   57.6730 C.2   172  SER172      0.2288
     38  O         34.1320   22.7220   57.3790 O.2   172  SER172     -0.2866
     39  CB        32.5450   25.1470   56.4980 C.3   172  SER172      0.2089
     40  OG        32.1630   25.4470   55.1540 O.3   172  SER172     -0.2183
     41  N         31.0910   31.1240   56.9590 N.3   213  SER213     -0.1217
     42  CA        29.9390   31.2420   57.8570 C.3   213  SER213      0.1889
     43  C         30.1930   32.2090   59.0170 C.2   213  SER213      0.2288
     44  O         29.2800   32.4890   59.8120 O.2   213  SER213     -0.2866
     45  CB        29.6100   29.8530   58.4190 C.3   213  SER213      0.2089
     46  OG        30.7980   29.1380   58.7570 O.3   213  SER213     -0.2183
     47  N         31.3560   32.3390   62.3450 N.3   215  ARG215     -0.1231
     48  CA        31.4680   31.3630   63.4290 C.3   215  ARG215      0.1694
     49  C         30.9640   29.9780   63.0210 C.2   215  ARG215      0.2592
     50  O         29.9950   29.8460   62.2700 O.2   215  ARG215     -0.2718
     51  CB        30.6710   31.8240   64.6520 C.3   215  ARG215      0.0321
     52  CG        31.2260   33.0660   65.3330 C.3   215  ARG215      0.0489
     53  CD        30.2760   33.5740   66.4090 C.3   215  ARG215      0.2205
     54  NE        29.7190   32.4830   67.2090 N.pl3 215  ARG215     -0.0865
     55  CZ        30.3860   31.7960   68.1340 C.cat 215  ARG215      0.5346
     56  NH1       31.6600   32.0650   68.4030 N.pl3 215  ARG215      0.1354
     57  NH2       29.7690   30.8240   68.7920 N.pl3 215  ARG215      0.1354
     58  N         31.6260   28.9600   63.5620 N.am  216  PHE216     -0.1962
     59  CA        31.2650   27.5610   63.3940 C.3   216  PHE216      0.1771
     60  C         31.7480   26.8870   64.6720 C.2   216  PHE216      0.2619
     61  O         32.7220   26.1460   64.6410 O.2   216  PHE216     -0.2715
     62  CB        31.9740   26.9750   62.1630 C.3   216  PHE216      0.0574
     63  CG        31.5230   25.5810   61.7600 C.ar  216  PHE216     -0.0200
     64  CD1       30.8240   24.7390   62.6210 C.ar  216  PHE216     -0.0042
     65  CD2       31.8410   25.0950   60.4930 C.ar  216  PHE216     -0.0042
     66  CE1       30.4430   23.4640   62.2170 C.ar  216  PHE216     -0.0003
     67  CE2       31.4620   23.8200   60.0880 C.ar  216  PHE216     -0.0003
     68  CZ        30.7640   23.0020   60.9510 C.ar  216  PHE216     -0.0000
     69  N         31.0960   27.1950   65.7990 N.am  217  VAL217     -0.1963
     70  CA        31.4280   26.5950   67.1100 C.3   217  VAL217      0.1727
     71  C         30.4580   25.4750   67.4330 C.2   217  VAL217      0.2616
     72  O         30.8470   24.4490   67.9810 O.2   217  VAL217     -0.2715
     73  CB        31.3850   27.5990   68.2910 C.3   217  VAL217      0.0290
     74  CG1       31.9380   26.9480   69.5470 C.3   217  VAL217      0.0023
     75  CG2       32.1860   28.8560   67.9940 C.3   217  VAL217      0.0023
     76  N         29.1880   25.6910   67.1140 N.am  218  ILE218     -0.1963
     77  CA        28.1800   24.6620   67.2680 C.3   218  ILE218      0.1727
     78  C         28.1800   23.7870   66.0310 C.2   218  ILE218      0.2617
     79  O         27.9940   24.2820   64.9100 O.2   218  ILE218     -0.2715
     80  CB        26.7820   25.2620   67.4370 C.3   218  ILE218      0.0290
     81  CG1       26.7520   26.1810   68.6640 C.3   218  ILE218      0.0022
     82  CG2       25.7520   24.1410   67.5430 C.3   218  ILE218      0.0023
     83  CD1       25.5770   27.1410   68.7140 C.3   218  ILE218      0.0001
     84  N         28.3730   22.4900   66.2490 N.am  219  GLY219     -0.1940
     85  CA        28.4090   21.5090   65.1680 C.3   219  GLY219      0.2014
     86  C         28.2160   20.0710   65.6270 C.2   219  GLY219      0.2639
     87  O         27.9770   19.7870   66.8140 O.2   219  GLY219     -0.2714
     88  N         28.3250   19.1510   64.6760 N.am  220  GLY220     -0.1954
     89  CA        27.9970   17.7620   64.9460 C.3   220  GLY220      0.1869
     90  C         26.4960   17.6380   65.1320 C.2   220  GLY220      0.2309
     91  O         25.7520   18.5720   64.8000 O.2   220  GLY220     -0.2863
     92  N         24.2360   20.7550   65.6920 N.3   223  GLY223     -0.1210
     93  CA        23.9520   21.7660   64.6710 C.3   223  GLY223      0.1956
     94  C         22.9690   21.2830   63.6270 C.2   223  GLY223      0.2611
     95  O         22.0960   22.0400   63.1700 O.2   223  GLY223     -0.2717
     96  N         23.1250   20.0140   63.2560 N.am  224  ASP224     -0.1973
     97  CA        22.3150   19.3760   62.2150 C.3   224  ASP224      0.1709
     98  C         22.1310   17.8910   62.5550 C.2   224  ASP224      0.2293
     99  O         23.0860   17.2300   62.9530 O.2   224  ASP224     -0.2864
    100  CB        23.0010   19.5490   60.8410 C.3   224  ASP224      0.1436
    101  CG        22.2560   18.8540   59.6940 C.2   224  ASP224      0.3671
    102  OD1       21.0160   18.6680   59.7690 O.co2 224  ASP224     -0.2456
    103  OD2       22.9290   18.5000   58.7030 O.co2 224  ASP224     -0.2456
@<TRIPOS>BOND
     1    34    33    1
     2    28    29    2
     3    28    27    1
     4    33    32    1
     5    30    27    1
     6    30    31    1
     7    27    26    1
     8    40    39    1
     9    32    31    1
    10    35    36    1
    11    39    36    1
    12    10     9   ar
    13    10     8   ar
    14    36    37    1
    15    41    42    1
    16     9     7   ar
    17     8     6   ar
    18    38    37    2
    19     7     6   ar
    20     6     5    1
    21    42    45    1
    22    42    43    1
    23    45    46    1
    24     5     2    1
    25   103   101   ar
    26    43    44    2
    27   101   102   ar
    28   101   100    1
    29     2     3    1
    30     2     1    1
    31    67    65   ar
    32    67    68   ar
    33     4     3    2
    34     3    11   am
    35    65    63   ar
    36    24    23   ar
    37    13    14    2
    38    13    12    1
    39   100    97    1
    40    20    21    2
    41    20    19    1
    42    68    66   ar
    43    11    17    1
    44    11    12    1
    45    17    16    1
    46    16    15    1
    47    23    25   ar
    48    23    22    1
    49    12    15    1
    50    63    62    1
    51    63    64   ar
    52    19    22    1
    53    19    18    1
    54    62    59    1
    55    97    98    1
    56    97    96    1
    57    66    64   ar
    58    50    49    2
    59    47    48    1
    60    98    99    2
    61    49    48    1
    62    49    58   am
    63    95    94    2
    64    96    94   am
    65    59    58    1
    66    59    60    1
    67    48    51    1
    68    94    93    1
    69    61    60    2
    70    51    52    1
    71    93    92    1
    72    60    69   am
    73    88    89    1
    74    88    86   am
    75    91    90    2
    76    79    78    2
    77    89    90    1
    78    85    86    1
    79    85    84    1
    80    52    53    1
    81    86    87    2
    82    69    70    1
    83    78    84   am
    84    78    77    1
    85    53    54    1
    86    70    71    1
    87    70    73    1
    88    76    77    1
    89    76    71   am
    90    54    55    2
    91    77    80    1
    92    71    72    2
    93    80    82    1
    94    80    81    1
    95    75    73    1
    96    55    56    1
    97    55    57    1
    98    73    74    1
    99    81    83    1
