@<TRIPOS>MOLECULE
tmp/4ktxA00.pdb
 250 243 0 0 0
SMALL
GASTEIGER

@<TRIPOS>ATOM
      1  N         -9.1390    4.5890   33.8010 N.3    73  VAL73      -0.1245
      2  CA        -7.7810    4.4220   33.3140 C.3    73  VAL73       0.1561
      3  C         -7.3100    2.9770   33.5430 C.2    73  VAL73       0.2260
      4  O         -6.1220    2.6760   33.4890 O.2    73  VAL73      -0.2867
      5  CB        -6.8270    5.4170   33.9620 C.3    73  VAL73       0.0252
      6  CG1       -5.7370    5.8160   32.9560 C.3    73  VAL73       0.0019
      7  CG2       -7.5920    6.6370   34.4460 C.3    73  VAL73       0.0019
      8  N         -2.3050   -0.6650   33.5500 N.3   165  GLN165     -0.1231
      9  CA        -2.0610   -0.1140   34.8830 C.3   165  GLN165      0.1698
     10  C         -0.8970    0.8690   34.8870 C.2   165  GLN165      0.2592
     11  O          0.2340    0.5520   34.5160 O.2   165  GLN165     -0.2718
     12  CB        -1.7850   -1.2230   35.9050 C.3   165  GLN165      0.0381
     13  CG        -0.6890   -2.1880   35.4970 C.3   165  GLN165      0.0905
     14  CD        -0.1160   -2.9420   36.6780 C.2   165  GLN165      0.2608
     15  OE1        0.8260   -3.7300   36.5350 O.2   165  GLN165     -0.2717
     16  NE2       -0.6740   -2.6940   37.8600 N.am  165  GLN165     -0.0878
     17  N         -1.2200    2.0700   35.3530 N.am  166  PHE166     -0.1962
     18  CA        -0.3910    3.2510   35.1970 C.3   166  PHE166      0.1771
     19  C          0.4620    3.5190   36.4220 C.2   166  PHE166      0.2619
     20  O          1.2220    4.4840   36.4720 O.2   166  PHE166     -0.2715
     21  CB        -1.2820    4.4510   34.9170 C.3   166  PHE166      0.0574
     22  CG        -2.3650    4.6380   35.9390 C.ar  166  PHE166     -0.0200
     23  CD1       -2.1290    5.3840   37.0870 C.ar  166  PHE166     -0.0042
     24  CD2       -3.6140    4.0760   35.7500 C.ar  166  PHE166     -0.0042
     25  CE1       -3.1090    5.5560   38.0300 C.ar  166  PHE166     -0.0003
     26  CE2       -4.6090    4.2500   36.6930 C.ar  166  PHE166     -0.0003
     27  CZ        -4.3540    4.9890   37.8370 C.ar  166  PHE166     -0.0000
     28  N          0.2910    2.6730   37.4250 N.am  167  GLU167     -0.1963
     29  CA         1.0330    2.7840   38.6610 C.3   167  GLU167      0.1733
     30  C          1.0930    1.3860   39.2300 C.2   167  GLU167      0.2616
     31  O          0.3180    0.5140   38.8430 O.2   167  GLU167     -0.2715
     32  CB         0.3810    3.7800   39.6390 C.3   167  GLU167      0.0429
     33  CG        -0.9100    3.3140   40.3200 C.3   167  GLU167      0.1163
     34  CD        -1.6460    4.4450   41.0610 C.2   167  GLU167      0.3649
     35  OE1       -1.3060    5.6300   40.8400 O.co2 167  GLU167     -0.2457
     36  OE2       -2.5620    4.1490   41.8690 O.co2 167  GLU167     -0.2457
     37  N          2.0470    1.1550   40.1120 N.am  168  CYS168     -0.1968
     38  CA         2.1090   -0.1110   40.8100 C.3   168  CYS168      0.1712
     39  C          1.3200    0.0690   42.0910 C.2   168  CYS168      0.2296
     40  O          1.3370    1.1520   42.6660 O.2   168  CYS168     -0.2864
     41  CB         3.5660   -0.5170   41.0930 C.3   168  CYS168      0.0983
     42  SG         4.3330   -1.6510   39.8710 S.3   168  CYS168     -0.0798
     43  N          1.8450   -2.8720   43.8120 N.3   170  SER170     -0.1202
     44  CA         2.4710   -4.1440   44.1670 C.3   170  SER170      0.2020
     45  C          3.4120   -4.2330   45.3720 C.2   170  SER170      0.2618
     46  O          3.3520   -5.1990   46.1300 O.2   170  SER170     -0.2717
     47  CB         3.1910   -4.7170   42.9400 C.3   170  SER170      0.2103
     48  OG         2.5040   -4.4030   41.7420 O.3   170  SER170     -0.2182
     49  N          4.2850   -3.2480   45.5460 N.am  171  PHE171     -0.1975
     50  CA         5.4650   -3.4280   46.3840 C.3   171  PHE171      0.1639
     51  C          5.4290   -2.7090   47.7360 C.2   171  PHE171      0.2290
     52  O          5.2920   -1.4860   47.7870 O.2   171  PHE171     -0.2864
     53  CB         6.7020   -2.9980   45.5810 C.3   171  PHE171      0.0560
     54  CG         6.6400   -3.3720   44.1170 C.ar  171  PHE171     -0.0200
     55  CD1        6.4330   -4.6900   43.7480 C.ar  171  PHE171     -0.0042
     56  CD2        6.7850   -2.4120   43.1110 C.ar  171  PHE171     -0.0042
     57  CE1        6.3760   -5.0520   42.4160 C.ar  171  PHE171     -0.0003
     58  CE2        6.7290   -2.7730   41.7810 C.ar  171  PHE171     -0.0003
     59  CZ         6.5230   -4.0940   41.4320 C.ar  171  PHE171     -0.0000
     60  N         11.8000   -6.7260   37.1600 N.3   188  TYR188     -0.1241
     61  CA        10.7590   -7.4010   36.3800 C.3   188  TYR188      0.1605
     62  C          9.8670   -6.3810   35.6780 C.2   188  TYR188      0.2264
     63  O          9.1200   -5.6530   36.3200 O.2   188  TYR188     -0.2867
     64  CB         9.9150   -8.3040   37.2820 C.3   188  TYR188      0.0534
     65  CG        10.5400   -9.6510   37.5720 C.ar  188  TYR188     -0.0201
     66  CD1       11.6870   -9.7630   38.3620 C.ar  188  TYR188     -0.0009
     67  CD2        9.9790  -10.8130   37.0670 C.ar  188  TYR188     -0.0009
     68  CE1       12.2550  -10.9990   38.6320 C.ar  188  TYR188      0.0417
     69  CE2       10.5380  -12.0490   37.3320 C.ar  188  TYR188      0.0417
     70  CZ        11.6700  -12.1360   38.1120 C.ar  188  TYR188      0.1957
     71  OH        12.2090  -13.3720   38.3600 O.3   188  TYR188     -0.2866
     72  N          6.7300   -5.4640   33.3680 N.3   190  ARG190     -0.1245
     73  CA         5.5130   -5.9600   32.7320 C.3   190  ARG190      0.1563
     74  C          5.2780   -5.1080   31.5040 C.2   190  ARG190      0.2260
     75  O          5.2690   -3.8860   31.6090 O.2   190  ARG190     -0.2867
     76  CB         4.3050   -5.8840   33.6580 C.3   190  ARG190      0.0307
     77  CG         4.4180   -6.6220   34.9740 C.3   190  ARG190      0.0489
     78  CD         3.1570   -6.3680   35.7810 C.3   190  ARG190      0.2205
     79  NE         3.0880   -7.1710   36.9910 N.pl3 190  ARG190     -0.0865
     80  CZ         2.2100   -6.9760   37.9650 C.cat 190  ARG190      0.5346
     81  NH1        1.3280   -5.9940   37.8800 N.pl3 190  ARG190      0.1354
     82  NH2        2.2240   -7.7590   39.0310 N.pl3 190  ARG190      0.1354
     83  N         -0.8370    4.0120   23.7300 N.3   197  PHE197     -0.1227
     84  CA        -1.7120    5.0650   24.2540 C.3   197  PHE197      0.1736
     85  C         -1.9200    6.2710   23.3250 C.2   197  PHE197      0.2596
     86  O         -1.0080    6.7090   22.6280 O.2   197  PHE197     -0.2718
     87  CB        -1.1640    5.5730   25.5880 C.3   197  PHE197      0.0547
     88  CG        -1.2510    4.5770   26.7110 C.ar  197  PHE197     -0.0202
     89  CD1       -2.4270    4.4240   27.4350 C.ar  197  PHE197     -0.0042
     90  CD2       -0.1460    3.8250   27.0740 C.ar  197  PHE197     -0.0042
     91  CE1       -2.5160    3.5240   28.4900 C.ar  197  PHE197     -0.0003
     92  CE2       -0.2260    2.9190   28.1380 C.ar  197  PHE197     -0.0003
     93  CZ        -1.4200    2.7730   28.8450 C.ar  197  PHE197     -0.0000
     94  N         -3.1330    6.8070   23.3380 N.am  198  GLY198     -0.1942
     95  CA        -3.4470    7.9960   22.5860 C.3   198  GLY198      0.2014
     96  C         -3.0760    9.2350   23.3730 C.2   198  GLY198      0.2638
     97  O         -3.1270    9.2540   24.6160 O.2   198  GLY198     -0.2714
     98  N         -2.6880   10.2700   22.6400 N.am  199  PHE199     -0.1973
     99  CA        -2.3200   11.5310   23.2380 C.3   199  PHE199      0.1639
    100  C         -2.5070   12.6530   22.2250 C.2   199  PHE199      0.2290
    101  O         -2.6160   12.3900   21.0240 O.2   199  PHE199     -0.2864
    102  CB        -0.8840   11.4880   23.7440 C.3   199  PHE199      0.0560
    103  CG         0.1440   11.4890   22.6580 C.ar  199  PHE199     -0.0200
    104  CD1        0.4360   10.3340   21.9610 C.ar  199  PHE199     -0.0042
    105  CD2        0.8350   12.6490   22.3400 C.ar  199  PHE199     -0.0042
    106  CE1        1.4040   10.3370   20.9780 C.ar  199  PHE199     -0.0003
    107  CE2        1.7920   12.6570   21.3490 C.ar  199  PHE199     -0.0003
    108  CZ         2.0740   11.5060   20.6700 C.ar  199  PHE199     -0.0000
    109  N          1.4850    6.8820   20.9420 N.3   218  THR218     -0.1218
    110  CA         2.7850    6.7350   21.5720 C.3   218  THR218      0.1862
    111  C          3.4990    5.5450   20.9320 C.2   218  THR218      0.2287
    112  O          2.8850    4.5100   20.7000 O.2   218  THR218     -0.2866
    113  CB         2.6770    6.5100   23.1120 C.3   218  THR218      0.1770
    114  OG1        1.7990    7.4890   23.6930 O.3   218  THR218     -0.2211
    115  CG2        4.0870    6.5220   23.7860 C.3   218  THR218      0.0375
    116  N          7.8590    3.5370   25.1210 N.3   223  THR223     -0.1218
    117  CA         7.2710    2.9890   26.3240 C.3   223  THR223      0.1862
    118  C          8.1920    1.9750   26.9840 C.2   223  THR223      0.2287
    119  O          8.4000    2.0250   28.1960 O.2   223  THR223     -0.2866
    120  CB         5.9460    2.3210   26.0400 C.3   223  THR223      0.1770
    121  OG1        5.0140    3.3150   25.6130 O.3   223  THR223     -0.2211
    122  CG2        5.4310    1.6250   27.2980 C.3   223  THR223      0.0375
    123  N         11.3940    3.5270   28.5430 N.3   226  HIS226     -0.1226
    124  CA        11.0350    4.1850   29.7940 C.3   226  HIS226      0.1752
    125  C         11.1700    3.2190   30.9810 C.2   226  HIS226      0.2595
    126  O         11.8310    3.5280   31.9750 O.2   226  HIS226     -0.2718
    127  CB         9.6130    4.7380   29.6720 C.3   226  HIS226      0.0759
    128  CG         9.0610    5.3440   30.9330 C.ar  226  HIS226      0.0818
    129  ND1        8.9490    6.7060   31.1170 N.ar  226  HIS226     -0.2268
    130  CD2        8.5210    4.7740   32.0360 C.ar  226  HIS226      0.1154
    131  CE1        8.3890    6.9520   32.2880 C.ar  226  HIS226      0.1986
    132  NE2        8.1240    5.7980   32.8640 N.ar  226  HIS226     -0.2212
    133  N         10.5800    2.0360   30.8600 N.am  227  GLU227     -0.1979
    134  CA        10.6600    1.0530   31.9320 C.3   227  GLU227      0.1602
    135  C         12.0890    0.5650   32.1320 C.2   227  GLU227      0.2287
    136  O         12.4490    0.0940   33.2280 O.2   227  GLU227     -0.2864
    137  CB         9.7280   -0.1230   31.6490 C.3   227  GLU227      0.0415
    138  CG         8.2500    0.2110   31.8440 C.3   227  GLU227      0.1163
    139  CD         7.8530    0.3990   33.3160 C.2   227  GLU227      0.3649
    140  OE1        8.5260   -0.1570   34.2270 O.co2 227  GLU227     -0.2457
    141  OE2        6.8450    1.0940   33.5600 O.co2 227  GLU227     -0.2457
    142  N         13.8670    3.1920   34.2440 N.3   230  HIS230     -0.1241
    143  CA        13.4440    2.7720   35.5710 C.3   230  HIS230      0.1621
    144  C         14.2980    1.5990   36.0090 C.2   230  HIS230      0.2264
    145  O         14.8600    1.5720   37.1230 O.2   230  HIS230     -0.2867
    146  CB        11.9730    2.3450   35.5830 C.3   230  HIS230      0.0745
    147  CG        10.9930    3.4740   35.7240 C.ar  230  HIS230      0.0817
    148  ND1       11.0210    4.3610   36.7790 N.ar  230  HIS230     -0.2268
    149  CD2        9.9290    3.8220   34.9620 C.ar  230  HIS230      0.1154
    150  CE1       10.0300    5.2260   36.6440 C.ar  230  HIS230      0.1986
    151  NE2        9.3530    4.9240   35.5510 N.ar  230  HIS230     -0.2212
    152  N         -4.5150   18.5440   38.0680 N.3   254  TYR254     -0.1241
    153  CA        -3.7530   17.7620   39.0470 C.3   254  TYR254      0.1605
    154  C         -3.8900   18.3360   40.4730 C.2   254  TYR254      0.2264
    155  O         -4.1950   17.6080   41.4290 O.2   254  TYR254     -0.2867
    156  CB        -2.2690   17.7260   38.6570 C.3   254  TYR254      0.0534
    157  CG        -1.8450   16.5740   37.7660 C.ar  254  TYR254     -0.0201
    158  CD1       -2.3490   16.4250   36.4750 C.ar  254  TYR254     -0.0009
    159  CD2       -0.9200   15.6420   38.2110 C.ar  254  TYR254     -0.0009
    160  CE1       -1.9420   15.3670   35.6570 C.ar  254  TYR254      0.0417
    161  CE2       -0.5240   14.5890   37.4110 C.ar  254  TYR254      0.0417
    162  CZ        -1.0360   14.4550   36.1390 C.ar  254  TYR254      0.1957
    163  OH        -0.6160   13.4030   35.3640 O.3   254  TYR254     -0.2866
    164  N         -3.3150   15.3540   43.4590 N.3   259  LEU259     -0.1245
    165  CA        -2.4420   14.3500   42.8600 C.3   259  LEU259      0.1561
    166  C         -0.9730   14.6980   43.0970 C.2   259  LEU259      0.2260
    167  O         -0.5770   15.8570   42.9810 O.2   259  LEU259     -0.2867
    168  CB        -2.7200   14.2140   41.3570 C.3   259  LEU259      0.0270
    169  CG        -4.1550   13.8710   40.9290 C.3   259  LEU259      0.0019
    170  CD1       -4.2180   13.5660   39.4410 C.3   259  LEU259      0.0001
    171  CD2       -4.7340   12.7100   41.7320 C.3   259  LEU259      0.0001
    172  N          9.5360    9.3090   38.8640 N.3   265  GLU265     -0.1245
    173  CA         8.8300    9.4560   37.5770 C.3   265  GLU265      0.1567
    174  C          9.2530   10.7080   36.8090 C.2   265  GLU265      0.2260
    175  O          9.3470   10.6740   35.5950 O.2   265  GLU265     -0.2867
    176  CB         7.3100    9.4780   37.7580 C.3   265  GLU265      0.0388
    177  CG         6.6850    8.1610   38.2410 C.3   265  GLU265      0.1160
    178  CD         6.8510    7.0090   37.2550 C.2   265  GLU265      0.3649
    179  OE1        7.3230    7.2360   36.1140 O.co2 265  GLU265     -0.2457
    180  OE2        6.5200    5.8660   37.6340 O.co2 265  GLU265     -0.2457
    181  N         13.1520    9.5790   28.9020 N.3   354  GLU354     -0.1245
    182  CA        12.1100    9.4970   27.8870 C.3   354  GLU354      0.1567
    183  C         12.2170   10.6340   26.8780 C.2   354  GLU354      0.2260
    184  O         12.0760   10.4360   25.6780 O.2   354  GLU354     -0.2867
    185  CB        10.7280    9.5210   28.5280 C.3   354  GLU354      0.0388
    186  CG         9.6080    9.5240   27.5130 C.3   354  GLU354      0.1160
    187  CD         8.2480    9.3240   28.1150 C.2   354  GLU354      0.3649
    188  OE1        8.1660    8.9190   29.2880 O.co2 354  GLU354     -0.2457
    189  OE2        7.2520    9.5630   27.4060 O.co2 354  GLU354     -0.2457
    190  N          4.3390   12.7470   24.1840 N.3   366  ARG366     -0.1245
    191  CA         3.8500   13.6620   25.2080 C.3   366  ARG366      0.1563
    192  C          4.9920   14.5500   25.6450 C.2   366  ARG366      0.2260
    193  O          6.1070   14.0870   25.8230 O.2   366  ARG366     -0.2867
    194  CB         3.2840   12.9100   26.4060 C.3   366  ARG366      0.0307
    195  CG         4.3120   12.0670   27.1550 C.3   366  ARG366      0.0489
    196  CD         3.7040   11.4410   28.3640 C.3   366  ARG366      0.2205
    197  NE         4.5420   10.3980   28.9200 N.pl3 366  ARG366     -0.0865
    198  CZ         4.2140    9.6980   30.0010 C.cat 366  ARG366      0.5346
    199  NH1        3.0680    9.9550   30.6130 N.pl3 366  ARG366      0.1354
    200  NH2        5.0260    8.7510   30.4660 N.pl3 366  ARG366      0.1354
    201  N          5.4010   14.6070   31.5540 N.3   369  TYR369     -0.1241
    202  CA         4.8520   13.4900   32.3150 C.3   369  TYR369      0.1605
    203  C          3.5290   13.9110   32.9370 C.2   369  TYR369      0.2264
    204  O          2.6420   13.0750   33.1210 O.2   369  TYR369     -0.2867
    205  CB         5.8150   13.0080   33.4080 C.3   369  TYR369      0.0534
    206  CG         5.3470   11.7540   34.1310 C.ar  369  TYR369     -0.0201
    207  CD1        5.6640   10.4910   33.6410 C.ar  369  TYR369     -0.0009
    208  CD2        4.5990   11.8330   35.3050 C.ar  369  TYR369     -0.0009
    209  CE1        5.2490    9.3410   34.2860 C.ar  369  TYR369      0.0417
    210  CE2        4.1740   10.6800   35.9660 C.ar  369  TYR369      0.0417
    211  CZ         4.5070    9.4350   35.4460 C.ar  369  TYR369      0.1957
    212  OH         4.0930    8.2840   36.0760 O.3   369  TYR369     -0.2866
    213  N          0.2230   15.0120   32.3750 N.3   371  ASN371     -0.1225
    214  CA        -0.7130   15.1760   31.2920 C.3   371  ASN371      0.1785
    215  C         -1.8110   14.1780   31.5220 C.2   371  ASN371      0.2597
    216  O         -1.7380   13.3910   32.4720 O.2   371  ASN371     -0.2718
    217  CB        -0.0310   14.9940   29.9320 C.3   371  ASN371      0.1169
    218  CG         0.0570   13.5520   29.4880 C.2   371  ASN371      0.2627
    219  OD1        0.3160   12.6600   30.2800 O.2   371  ASN371     -0.2716
    220  ND2       -0.1500   13.3190   28.1990 N.am  371  ASN371     -0.0877
    221  N         -2.8220   14.2010   30.6620 N.am  372  PHE372     -0.1962
    222  CA        -3.9630   13.3180   30.8130 C.3   372  PHE372      0.1771
    223  C         -4.1230   12.4600   29.5740 C.2   372  PHE372      0.2619
    224  O         -4.2900   12.9810   28.4770 O.2   372  PHE372     -0.2715
    225  CB        -5.2300   14.1320   31.0870 C.3   372  PHE372      0.0574
    226  CG        -5.3810   14.5420   32.5250 C.ar  372  PHE372     -0.0200
    227  CD1       -5.6220   13.5850   33.5060 C.ar  372  PHE372     -0.0042
    228  CD2       -5.2690   15.8710   32.9000 C.ar  372  PHE372     -0.0042
    229  CE1       -5.7560   13.9380   34.8320 C.ar  372  PHE372     -0.0003
    230  CE2       -5.4000   16.2400   34.2310 C.ar  372  PHE372     -0.0003
    231  CZ        -5.6480   15.2690   35.2000 C.ar  372  PHE372     -0.0000
    232  N         -4.0360   11.1460   29.7470 N.am  373  ASP373     -0.1971
    233  CA        -4.2650   10.2130   28.6480 C.3   373  ASP373      0.1709
    234  C         -5.6660   10.3280   28.0470 C.2   373  ASP373      0.2293
    235  O         -6.6490   10.6270   28.7320 O.2   373  ASP373     -0.2864
    236  CB        -4.0550    8.7760   29.1030 C.3   373  ASP373      0.1436
    237  CG        -2.6790    8.5400   29.6390 C.2   373  ASP373      0.3671
    238  OD1       -1.7420    9.2170   29.1670 O.co2 373  ASP373     -0.2456
    239  OD2       -2.5350    7.6770   30.5340 O.co2 373  ASP373     -0.2456
    240  N        -12.2710   11.1870   33.9380 N.3   426  PHE426     -0.1241
    241  CA       -11.3180   11.3940   35.0260 C.3   426  PHE426      0.1605
    242  C        -12.0480   11.9010   36.2580 C.2   426  PHE426      0.2264
    243  O        -13.1370   12.4680   36.1600 O.2   426  PHE426     -0.2867
    244  CB       -10.2110   12.3740   34.6180 C.3   426  PHE426      0.0534
    245  CG        -9.1410   11.7660   33.7390 C.ar  426  PHE426     -0.0203
    246  CD1       -8.0850   11.0520   34.3000 C.ar  426  PHE426     -0.0042
    247  CD2       -9.1870   11.9160   32.3530 C.ar  426  PHE426     -0.0042
    248  CE1       -7.0860   10.4960   33.4930 C.ar  426  PHE426     -0.0003
    249  CE2       -8.2050   11.3640   31.5470 C.ar  426  PHE426     -0.0003
    250  CZ        -7.1480   10.6510   32.1190 C.ar  426  PHE426     -0.0000
@<TRIPOS>BOND
     1   108   106   ar
     2   108   107   ar
     3   112   111    2
     4   111   110    1
     5   109   110    1
     6   106   104   ar
     7   101   100    2
     8   107   105   ar
     9   110   113    1
    10   104   103   ar
    11   100    99    1
    12   105   103   ar
    13    95    94    1
    14    95    96    1
    15    86    85    2
    16    98    99    1
    17    98    96   am
    18   103   102    1
    19   113   114    1
    20   113   115    1
    21    99   102    1
    22    85    94   am
    23    85    84    1
    24    96    97    2
    25    83    84    1
    26   190   191    1
    27    84    87    1
    28   116   117    1
    29   191   192    1
    30   191   194    1
    31    87    88    1
    32   121   120    1
    33   192   193    2
    34   184   183    2
    35   120   117    1
    36   120   122    1
    37   117   118    1
    38   194   195    1
    39    88    90   ar
    40    88    89   ar
    41   183   182    1
    42   118   119    2
    43    90    92   ar
    44   195   196    1
    45   189   187   ar
    46    89    91   ar
    47   186   187    1
    48   186   185    1
    49   182   185    1
    50   182   181    1
    51   234   233    1
    52   234   235    2
    53   187   188   ar
    54    92    93   ar
    55   220   218   am
    56   196   197    1
    57   224   223    2
    58    91    93   ar
    59   123   124    1
    60   233   236    1
    61   233   232    1
    62   197   198    2
    63   236   237    1
    64   238   237   ar
    65   218   217    1
    66   218   219    2
    67   223   232   am
    68   223   222    1
    69   237   239   ar
    70   127   124    1
    71   127   128    1
    72   124   125    1
    73   217   214    1
    74   198   200    1
    75   198   199    1
    76   221   222    1
    77   221   215   am
    78   222   225    1
    79   133   125   am
    80   133   134    1
    81   128   129   ar
    82   128   130   ar
    83   125   126    2
    84   225   226    1
    85   129   131   ar
    86   214   215    1
    87   214   213    1
    88    74    75    2
    89    74    73    1
    90   215   216    2
    91   249   250   ar
    92   249   247   ar
    93   201   202    1
    94   137   138    1
    95   137   134    1
    96   138   139    1
    97   134   135    1
    98   130   132   ar
    99   250   248   ar
   100   135   136    2
   101   131   132   ar
   102   202   203    1
   103   202   205    1
   104   247   245   ar
   105   226   228   ar
   106   226   227   ar
   107    73    72    1
   108    73    76    1
   109   228   230   ar
   110   203   204    2
   111     6     5    1
   112     2     3    1
   113     2     1    1
   114     2     5    1
   115   139   141   ar
   116   139   140   ar
   117   205   206    1
   118     4     3    2
   119   248   246   ar
   120   227   229   ar
   121     8     9    1
   122   207   206   ar
   123   207   209   ar
   124    76    77    1
   125   245   246   ar
   126   245   244    1
   127   240   241    1
   128     5     7    1
   129   206   208   ar
   130   230   231   ar
   131   142   143    1
   132   209   211   ar
   133    11    10    2
   134   244   241    1
   135   229   231   ar
   136     9    10    1
   137     9    12    1
   138    10    17   am
   139    21    18    1
   140    21    22    1
   141   149   151   ar
   142   149   147   ar
   143    77    78    1
   144   241   242    1
   145    18    17    1
   146    18    19    1
   147   208   210   ar
   148   163   162    1
   149   211   210   ar
   150   211   212    1
   151    13    12    1
   152    13    14    1
   153   151   150   ar
   154   143   146    1
   155   143   144    1
   156   146   147    1
   157   175   174    2
   158   160   162   ar
   159   160   158   ar
   160    62    63    2
   161    62    61    1
   162   147   148   ar
   163    24    22   ar
   164    24    26   ar
   165    78    79    1
   166    22    23   ar
   167   144   145    2
   168   179   178   ar
   169   162   161   ar
   170   243   242    2
   171    61    60    1
   172    61    64    1
   173    19    20    2
   174    19    28   am
   175   158   157   ar
   176    15    14    2
   177   150   148   ar
   178    14    16   am
   179    26    27   ar
   180   174   173    1
   181    79    80    2
   182    67    69   ar
   183    67    65   ar
   184    23    25   ar
   185   178   180   ar
   186   178   177    1
   187    64    65    1
   188    69    70   ar
   189   161   159   ar
   190    28    29    1
   191    65    66   ar
   192   173   176    1
   193   173   172    1
   194   176   177    1
   195   157   159   ar
   196   157   156    1
   197    27    25   ar
   198    81    80    1
   199    80    82    1
   200   152   153    1
   201    70    71    1
   202    70    68   ar
   203    66    68   ar
   204   156   153    1
   205    29    30    1
   206    29    32    1
   207    31    30    2
   208   153   154    1
   209    30    37   am
   210   170   169    1
   211    32    33    1
   212    42    41    1
   213    37    38    1
   214    33    34    1
   215   154   155    2
   216    38    41    1
   217    38    39    1
   218    35    34   ar
   219   169   168    1
   220   169   171    1
   221    34    36   ar
   222   168   165    1
   223    59    58   ar
   224    59    57   ar
   225    48    47    1
   226    58    56   ar
   227    39    40    2
   228    57    55   ar
   229   165   166    1
   230   165   164    1
   231    47    44    1
   232   167   166    2
   233    56    54   ar
   234    55    54   ar
   235    43    44    1
   236    54    53    1
   237    44    45    1
   238    45    49   am
   239    45    46    2
   240    49    50    1
   241    53    50    1
   242    50    51    1
   243    51    52    2
