@<TRIPOS>MOLECULE
tmp/4ku3B00.pdb
 167 155 0 0 0
SMALL
GASTEIGER

@<TRIPOS>ATOM
      1  N        -13.3290   15.5660  -23.6400 N.3   121  ALA121     -0.1231
      2  CA       -12.8630   15.9590  -24.9680 C.3   121  ALA121      0.1694
      3  C        -13.1540   17.4340  -25.1730 C.2   121  ALA121      0.2592
      4  O        -12.9710   18.2350  -24.2410 O.2   121  ALA121     -0.2718
      5  CB       -13.5040   15.0740  -26.0780 C.3   121  ALA121      0.0304
      6  N        -13.6450   17.8040  -26.3510 N.am  122  SER122     -0.1952
      7  CA       -13.8020   19.2320  -26.6660 C.3   122  SER122      0.1924
      8  C        -15.0440   19.8850  -26.0550 C.2   122  SER122      0.2314
      9  O        -15.2860   21.0810  -26.2580 O.2   122  SER122     -0.2863
     10  CB       -13.7930   19.4570  -28.1880 C.3   122  SER122      0.2116
     11  OG       -12.4900   19.2710  -28.7120 O.3   122  SER122     -0.2180
     12  N        -12.7720    8.4900  -31.9420 N.3   218  CYS218     -0.1235
     13  CA       -11.5540    9.2890  -31.8300 C.3   218  CYS218      0.1677
     14  C        -10.9010    9.0680  -30.4640 C.2   218  CYS218      0.2270
     15  O        -11.4930    9.3840  -29.4390 O.2   218  CYS218     -0.2867
     16  CB       -11.8560   10.7670  -32.0920 C.3   218  CYS218      0.0956
     17  SG       -10.4140   11.9030  -32.0690 S.3   218  CYS218     -0.0801
     18  N        -17.0190    9.8820  -38.0270 N.3   232  LEU232     -0.1231
     19  CA       -17.0780   10.9080  -36.9770 C.3   232  LEU232      0.1693
     20  C        -17.7790   12.1790  -37.4640 C.2   232  LEU232      0.2591
     21  O        -18.5630   12.7760  -36.7260 O.2   232  LEU232     -0.2718
     22  CB       -15.6690   11.2630  -36.4920 C.3   232  LEU232      0.0284
     23  CG       -15.3960   11.5470  -35.0090 C.3   232  LEU232      0.0019
     24  CD1      -14.2630   12.5470  -34.9170 C.3   232  LEU232      0.0001
     25  CD2      -16.6260   12.0160  -34.2460 C.3   232  LEU232      0.0001
     26  N        -17.4970   12.5940  -38.6960 N.am  233  LEU233     -0.1980
     27  CA       -18.1890   13.7420  -39.2730 C.3   233  LEU233      0.1596
     28  C        -19.6810   13.4470  -39.4020 C.2   233  LEU233      0.2287
     29  O        -20.5210   14.2710  -39.0390 O.2   233  LEU233     -0.2864
     30  CB       -17.5950   14.1220  -40.6430 C.3   233  LEU233      0.0297
     31  CG       -18.0680   15.4310  -41.3080 C.3   233  LEU233      0.0022
     32  CD1      -17.0070   15.9860  -42.2690 C.3   233  LEU233      0.0001
     33  CD2      -19.3880   15.2480  -42.0500 C.3   233  LEU233      0.0001
     34  N        -21.2370   12.9460  -35.8400 N.3   236  GLY236     -0.1210
     35  CA       -21.1270   14.1900  -35.0920 C.3   236  GLY236      0.1956
     36  C        -22.1720   15.1930  -35.5500 C.2   236  GLY236      0.2611
     37  O        -22.7720   15.8950  -34.7330 O.2   236  GLY236     -0.2717
     38  N        -22.4010   15.2400  -36.8630 N.am  237  ILE237     -0.1979
     39  CA       -23.4050   16.1350  -37.4360 C.3   237  ILE237      0.1595
     40  C        -24.8220   15.7090  -37.0420 C.2   237  ILE237      0.2287
     41  O        -25.6570   16.5620  -36.7250 O.2   237  ILE237     -0.2864
     42  CB       -23.2710   16.2680  -38.9800 C.3   237  ILE237      0.0276
     43  CG1      -22.0420   17.1050  -39.3400 C.3   237  ILE237      0.0022
     44  CG2      -24.5010   16.9210  -39.5730 C.3   237  ILE237      0.0022
     45  CD1      -22.1100   18.5430  -38.8460 C.3   237  ILE237      0.0001
     46  N        -25.2220   16.8560  -33.4590 N.3   240  ALA240     -0.1245
     47  CA       -25.3000   18.3270  -33.4500 C.3   240  ALA240      0.1562
     48  C        -26.6920   18.7670  -33.9110 C.2   240  ALA240      0.2260
     49  O        -27.3070   19.6220  -33.2960 O.2   240  ALA240     -0.2867
     50  CB       -24.2140   18.9310  -34.3370 C.3   240  ALA240      0.0290
     51  N        -18.9930   28.1780  -32.6400 N.3   263  ILE263     -0.1231
     52  CA       -19.0060   26.7400  -32.9150 C.3   263  ILE263      0.1692
     53  C        -17.6740   26.1210  -32.5770 C.2   263  ILE263      0.2592
     54  O        -16.6320   26.7680  -32.7150 O.2   263  ILE263     -0.2718
     55  CB       -19.2020   26.4960  -34.4280 C.3   263  ILE263      0.0266
     56  CG1      -20.2910   27.3990  -34.9670 C.3   263  ILE263      0.0019
     57  CG2      -19.5660   25.0450  -34.7190 C.3   263  ILE263      0.0020
     58  CD1      -21.5950   27.1760  -34.3050 C.3   263  ILE263      0.0001
     59  N        -17.6900   24.8590  -32.1620 N.am  264  HIS264     -0.1976
     60  CA       -16.4440   24.1430  -32.0350 C.3   264  HIS264      0.1656
     61  C        -15.7710   24.0490  -33.4050 C.2   264  HIS264      0.2291
     62  O        -16.4370   23.8280  -34.4070 O.2   264  HIS264     -0.2864
     63  CB       -16.6640   22.7480  -31.4540 C.3   264  HIS264      0.0771
     64  CG       -15.4010   21.9620  -31.3410 C.ar  264  HIS264      0.0820
     65  ND1      -14.2320   22.5070  -30.8530 N.ar  264  HIS264     -0.2267
     66  CD2      -15.1140   20.6790  -31.6630 C.ar  264  HIS264      0.1154
     67  CE1      -13.2800   21.5920  -30.8790 C.ar  264  HIS264      0.1986
     68  NE2      -13.7880   20.4780  -31.3750 N.ar  264  HIS264     -0.2212
     69  N        -13.6110   22.4570  -36.1630 N.3   266  VAL266     -0.1245
     70  CA       -13.1430   21.1200  -36.5410 C.3   266  VAL266      0.1561
     71  C        -12.5150   21.0510  -37.9380 C.2   266  VAL266      0.2260
     72  O        -11.4090   20.5230  -38.1040 O.2   266  VAL266     -0.2867
     73  CB       -14.2480   20.0630  -36.4000 C.3   266  VAL266      0.0252
     74  CG1      -13.7270   18.6790  -36.8080 C.3   266  VAL266      0.0019
     75  CG2      -14.7580   20.0320  -34.9570 C.3   266  VAL266      0.0019
     76  N        -16.8090   19.8910  -41.9860 N.3   270  HIS270     -0.1226
     77  CA       -17.6200   19.8200  -40.7650 C.3   270  HIS270      0.1752
     78  C        -18.4750   21.0860  -40.5890 C.2   270  HIS270      0.2596
     79  O        -19.6980   21.0150  -40.4350 O.2   270  HIS270     -0.2718
     80  CB       -16.7380   19.6260  -39.5220 C.3   270  HIS270      0.0759
     81  CG       -16.1320   18.2580  -39.4060 C.ar  270  HIS270      0.0818
     82  ND1      -14.9900   17.8870  -40.0840 N.ar  270  HIS270     -0.2268
     83  CD2      -16.5050   17.1750  -38.6820 C.ar  270  HIS270      0.1154
     84  CE1      -14.6890   16.6330  -39.7890 C.ar  270  HIS270      0.1986
     85  NE2      -15.5910   16.1800  -38.9370 N.ar  270  HIS270     -0.2212
     86  N        -17.8310   22.2440  -40.6330 N.am  271  THR271     -0.1953
     87  CA       -18.5540   23.4980  -40.4560 C.3   271  THR271      0.1897
     88  C        -19.6350   23.6960  -41.5130 C.2   271  THR271      0.2313
     89  O        -20.7850   23.9840  -41.1810 O.2   271  THR271     -0.2863
     90  CB       -17.6090   24.7170  -40.4740 C.3   271  THR271      0.1794
     91  OG1      -16.5480   24.5210  -39.5310 O.3   271  THR271     -0.2208
     92  CG2      -18.3740   25.9780  -40.1180 C.3   271  THR271      0.0378
     93  N        -22.7690   21.6190  -41.0940 N.3   274  PHE274     -0.1241
     94  CA       -23.6800   22.0620  -40.0490 C.3   274  PHE274      0.1605
     95  C        -24.5040   23.2920  -40.4470 C.2   274  PHE274      0.2264
     96  O        -25.7260   23.2950  -40.3030 O.2   274  PHE274     -0.2867
     97  CB       -22.9610   22.3400  -38.7340 C.3   274  PHE274      0.0534
     98  CG       -23.8990   22.7040  -37.6210 C.ar  274  PHE274     -0.0203
     99  CD1      -24.6460   21.7200  -36.9830 C.ar  274  PHE274     -0.0042
    100  CD2      -24.0620   24.0290  -37.2340 C.ar  274  PHE274     -0.0042
    101  CE1      -25.5310   22.0470  -35.9700 C.ar  274  PHE274     -0.0003
    102  CE2      -24.9460   24.3660  -36.2300 C.ar  274  PHE274     -0.0003
    103  CZ       -25.6830   23.3680  -35.5910 C.ar  274  PHE274     -0.0000
    104  N         -7.6900   22.8880  -34.6890 N.3   294  ASN294     -0.1240
    105  CA        -8.6240   22.4650  -33.6520 C.3   294  ASN294      0.1653
    106  C         -7.9090   22.5240  -32.2950 C.2   294  ASN294      0.2266
    107  O         -6.9910   21.7510  -32.0490 O.2   294  ASN294     -0.2867
    108  CB        -9.1130   21.0290  -33.9850 C.3   294  ASN294      0.1155
    109  CG       -10.1530   20.4870  -32.9950 C.2   294  ASN294      0.2627
    110  OD1      -10.2960   20.9990  -31.8940 O.2   294  ASN294     -0.2716
    111  ND2      -10.8720   19.4200  -33.3970 N.am  294  ASN294     -0.0877
    112  N         -9.3390   21.9920  -29.4270 N.3   296  GLY296     -0.1225
    113  CA       -10.0760   21.1680  -28.4720 C.3   296  GLY296      0.1811
    114  C        -11.1050   21.9630  -27.6900 C.2   296  GLY296      0.2280
    115  O        -11.7480   22.8550  -28.2470 O.2   296  GLY296     -0.2866
    116  N        -22.1570   26.5170  -29.4340 N.3   322  LEU322     -0.1231
    117  CA       -22.4440   25.1640  -29.9050 C.3   322  LEU322      0.1693
    118  C        -21.2090   24.3170  -29.6860 C.2   322  LEU322      0.2593
    119  O        -20.2590   24.3710  -30.4780 O.2   322  LEU322     -0.2718
    120  CB       -22.8580   25.1770  -31.3810 C.3   322  LEU322      0.0284
    121  CG       -23.9420   26.1990  -31.7720 C.3   322  LEU322      0.0019
    122  CD1      -24.4750   25.8840  -33.1480 C.3   322  LEU322      0.0001
    123  CD2      -25.1020   26.2670  -30.7880 C.3   322  LEU322      0.0001
    124  N        -21.2150   23.5710  -28.5800 N.am  323  GLY323     -0.1942
    125  CA       -20.1090   22.7090  -28.2120 C.3   323  GLY323      0.2014
    126  C        -20.3500   21.2400  -28.5420 C.2   323  GLY323      0.2639
    127  O        -21.4940   20.7570  -28.5130 O.2   323  GLY323     -0.2714
    128  N        -19.2720   20.5280  -28.8680 N.am  324  ILE324     -0.1963
    129  CA       -19.3490   19.0860  -29.1490 C.3   324  ILE324      0.1727
    130  C        -17.9870   18.4630  -28.8610 C.2   324  ILE324      0.2617
    131  O        -16.9650   19.1670  -28.8070 O.2   324  ILE324     -0.2715
    132  CB       -19.7980   18.7870  -30.6020 C.3   324  ILE324      0.0290
    133  CG1      -20.2080   17.3180  -30.7650 C.3   324  ILE324      0.0022
    134  CG2      -18.7190   19.2170  -31.6310 C.3   324  ILE324      0.0023
    135  CD1      -20.8870   17.0130  -32.0970 C.3   324  ILE324      0.0001
    136  N        -17.9590   17.1510  -28.6520 N.am  325  GLY325     -0.1940
    137  CA       -16.7090   16.5230  -28.3150 C.3   325  GLY325      0.2014
    138  C        -16.7950   15.0550  -28.5810 C.2   325  GLY325      0.2639
    139  O        -17.8820   14.4580  -28.5050 O.2   325  GLY325     -0.2714
    140  N        -15.6430   14.4910  -28.9390 N.am  326  SER326     -0.1949
    141  CA       -15.4620   13.0520  -29.0320 C.3   326  SER326      0.1924
    142  C        -16.1600   12.4180  -27.8260 C.2   326  SER326      0.2314
    143  O        -16.0210   12.9070  -26.7120 O.2   326  SER326     -0.2863
    144  CB       -13.9600   12.7710  -29.0170 C.3   326  SER326      0.2116
    145  OG       -13.6970   11.3920  -29.0360 O.3   326  SER326     -0.2180
    146  N        -19.8490   10.4180  -28.2140 N.3   328  LEU328     -0.1245
    147  CA       -19.9520   11.8230  -28.5590 C.3   328  LEU328      0.1561
    148  C        -20.8920   12.4740  -27.5620 C.2   328  LEU328      0.2260
    149  O        -21.8820   11.8530  -27.1370 O.2   328  LEU328     -0.2867
    150  CB       -20.5430   11.9750  -29.9710 C.3   328  LEU328      0.0270
    151  CG       -19.6890   11.7660  -31.2270 C.3   328  LEU328      0.0019
    152  CD1      -20.5820   11.3720  -32.4060 C.3   328  LEU328      0.0001
    153  CD2      -18.8940   13.0190  -31.5650 C.3   328  LEU328      0.0001
    154  N        -22.7730   16.5170  -26.9190 N.3   330  CYS330     -0.1235
    155  CA       -23.0660   17.8190  -27.5100 C.3   330  CYS330      0.1677
    156  C        -23.8280   18.7110  -26.5380 C.2   330  CYS330      0.2270
    157  O        -24.7770   18.2680  -25.8870 O.2   330  CYS330     -0.2867
    158  CB       -23.8970   17.6330  -28.7780 C.3   330  CYS330      0.0956
    159  SG       -24.1800   19.1690  -29.6720 S.3   330  CYS330     -0.0801
    160  N        -25.4490   22.8450  -26.1710 N.3   332  MET332     -0.1245
    161  CA       -25.7050   24.1430  -26.7770 C.3   332  MET332      0.1570
    162  C        -26.3420   25.0810  -25.7740 C.2   332  MET332      0.2261
    163  O        -27.2920   24.7160  -25.0830 O.2   332  MET332     -0.2867
    164  CB       -26.5760   23.9950  -28.0200 C.3   332  MET332      0.0387
    165  CG       -25.8730   23.2050  -29.1040 C.3   332  MET332      0.0595
    166  SD       -26.9530   22.8030  -30.4580 S.3   332  MET332     -0.1393
    167  CE       -25.7760   22.0830  -31.6080 C.3   332  MET332      0.0692
@<TRIPOS>BOND
     1    32    31    1
     2    33    31    1
     3    76    77    1
     4    88    89    2
     5    88    87    1
     6    31    30    1
     7    93    94    1
     8    77    78    1
     9    77    80    1
    10    30    27    1
    11    86    78   am
    12    86    87    1
    13    78    79    2
    14    90    87    1
    15    90    92    1
    16    90    91    1
    17    95    96    2
    18    95    94    1
    19    82    84   ar
    20    82    81   ar
    21    94    97    1
    22    84    85   ar
    23    44    42    1
    24    80    81    1
    25    81    83   ar
    26    28    27    1
    27    28    29    2
    28    43    42    1
    29    43    45    1
    30    27    26    1
    31    42    39    1
    32    85    83   ar
    33    97    98    1
    34    26    20   am
    35    72    71    2
    36    18    19    1
    37    71    70    1
    38    98   100   ar
    39    98    99   ar
    40    20    19    1
    41    20    21    2
    42    39    40    1
    43    39    38    1
    44   100   102   ar
    45    40    41    2
    46    99   101   ar
    47    19    22    1
    48    38    36   am
    49    74    73    1
    50    70    73    1
    51    70    69    1
    52    22    23    1
    53    73    75    1
    54   102   103   ar
    55   101   103   ar
    56    34    35    1
    57    36    35    1
    58    36    37    2
    59    23    24    1
    60    23    25    1
    61    56    55    1
    62    56    58    1
    63    57    55    1
    64   104   105    1
    65    55    52    1
    66    62    61    2
    67    50    47    1
    68   108   105    1
    69   108   109    1
    70    48    47    1
    71    48    49    2
    72   105   106    1
    73    46    47    1
    74    61    60    1
    75   111   109   am
    76   122   121    1
    77   109   110    2
    78    52    51    1
    79    52    53    1
    80    54    53    2
    81    53    59   am
    82   152   151    1
    83   106   107    2
    84    59    60    1
    85   135   133    1
    86    16    17    1
    87    16    13    1
    88    60    63    1
    89    12    13    1
    90    13    14    1
    91   121   120    1
    92   121   123    1
    93    66    68   ar
    94    66    64   ar
    95   134   132    1
    96   167   166    1
    97   153   151    1
    98    63    64    1
    99   120   117    1
   100    68    67   ar
   101    64    65   ar
   102   151   150    1
   103    67    65   ar
   104   133   132    1
   105   132   129    1
   106   119   118    2
   107    14    15    2
   108   166   165    1
   109   150   147    1
   110   117   118    1
   111   117   116    1
   112   118   124   am
   113   159   158    1
   114   112   113    1
   115   129   128    1
   116   129   130    1
   117   165   164    1
   118   145   144    1
   119   141   144    1
   120   141   140    1
   121   141   142    1
   122   140   138   am
   123   128   126   am
   124   130   131    2
   125   130   136   am
   126   158   155    1
   127    11    10    1
   128   136   137    1
   129   138   139    2
   130   138   137    1
   131   124   125    1
   132   147   146    1
   133   147   148    1
   134   126   127    2
   135   126   125    1
   136   113   114    1
   137   115   114    2
   138    10     7    1
   139   164   161    1
   140   142   143    2
   141   148   149    2
   142   155   154    1
   143   155   156    1
   144   161   160    1
   145   161   162    1
   146     7     6    1
   147     7     8    1
   148   156   157    2
   149     6     3   am
   150     9     8    2
   151     5     2    1
   152   162   163    2
   153     3     2    1
   154     3     4    2
   155     2     1    1
