@<TRIPOS>MOLECULE
tmp/4ku4A00.pdb
 118 111 0 0 0
SMALL
GASTEIGER

@<TRIPOS>ATOM
      1  N         15.2480   31.4330    3.5030 N.3    14  GLY14      -0.1210
      2  CA        14.3060   30.6820    4.3110 C.3    14  GLY14       0.1956
      3  C         14.8340   30.3770    5.6960 C.2    14  GLY14       0.2612
      4  O         16.0110   30.0660    5.8660 O.2    14  GLY14      -0.2717
      5  N         13.9540   30.4760    6.6870 N.am   15  GLY15      -0.1942
      6  CA        14.2670   30.0820    8.0410 C.3    15  GLY15       0.2014
      7  C         14.9270   31.1450    8.9000 C.2    15  GLY15       0.2639
      8  O         15.2980   30.8480   10.0190 O.2    15  GLY15      -0.2714
      9  N         15.0520   32.3800    8.4040 N.am   16  VAL16      -0.1963
     10  CA        15.7920   33.4030    9.1590 C.3    16  VAL16       0.1727
     11  C         14.9010   34.0770   10.1920 C.2    16  VAL16       0.2617
     12  O         15.3880   34.6380   11.1860 O.2    16  VAL16      -0.2715
     13  CB        16.4920   34.4420    8.2570 C.3    16  VAL16       0.0290
     14  CG1       17.6570   33.7780    7.4550 C.3    16  VAL16       0.0023
     15  CG2       15.4880   35.1590    7.3560 C.3    16  VAL16       0.0023
     16  N         13.5950   34.0040    9.9590 N.am   17  GLY17      -0.1940
     17  CA        12.6420   34.5700   10.8940 C.3    17  GLY17       0.2014
     18  C         11.7510   35.6470   10.3000 C.2    17  GLY17       0.2639
     19  O         11.1720   36.4330   11.0520 O.2    17  GLY17      -0.2714
     20  N         11.6440   35.7100    8.9750 N.am   18  LYS18      -0.1963
     21  CA        10.8040   36.7350    8.3360 C.3    18  LYS18       0.1728
     22  C          9.3540   36.7210    8.8360 C.2    18  LYS18       0.2617
     23  O          8.8390   37.7290    9.3550 O.2    18  LYS18      -0.2715
     24  CB        10.8350   36.6120    6.8100 C.3    18  LYS18       0.0311
     25  CG        12.2170   36.8060    6.1850 C.3    18  LYS18       0.0038
     26  CD        12.1570   36.7450    4.6690 C.3    18  LYS18       0.0206
     27  CE        11.7100   35.3590    4.1620 C.3    18  LYS18       0.1093
     28  NZ        12.6490   34.2970    4.6230 N.3    18  LYS18      -0.1314
     29  N          8.6870   35.5820    8.6670 N.am   19  THR19      -0.1937
     30  CA         7.3010   35.4400    9.0990 C.3    19  THR19       0.2028
     31  C          7.1160   35.7070   10.5920 C.2    19  THR19       0.2642
     32  O          6.1860   36.4210   10.9890 O.2    19  THR19      -0.2714
     33  CB         6.7610   34.0390    8.7760 C.3    19  THR19       0.1808
     34  OG1        6.8080   33.8280    7.3620 O.3    19  THR19      -0.2208
     35  CG2        5.3050   33.9240    9.2560 C.3    19  THR19       0.0379
     36  N          8.0060   35.1400   11.4040 N.am   20  SER20      -0.1949
     37  CA         7.9620   35.2950   12.8580 C.3    20  SER20       0.1924
     38  C          8.0620   36.7710   13.2720 C.2    20  SER20       0.2314
     39  O          7.3000   37.2370   14.1230 O.2    20  SER20      -0.2863
     40  CB         9.0640   34.4550   13.5270 C.3    20  SER20       0.2116
     41  OG         8.8350   33.0690   13.3100 O.3    20  SER20      -0.2180
     42  N          2.7060   33.1660   18.0080 N.3    32  GLU32      -0.1245
     43  CA         3.8240   32.2620   18.1780 C.3    32  GLU32       0.1567
     44  C          3.9170   31.2180   17.0710 C.2    32  GLU32       0.2260
     45  O          5.0030   30.7060   16.8010 O.2    32  GLU32      -0.2867
     46  CB         3.7570   31.5860   19.5460 C.3    32  GLU32       0.0388
     47  CG         3.9790   32.5470   20.7070 C.3    32  GLU32       0.1160
     48  CD         3.9470   31.8600   22.0500 C.2    32  GLU32       0.3649
     49  OE1        4.3050   30.6650   22.1230 O.co2  32  GLU32      -0.2457
     50  OE2        3.5580   32.5190   23.0400 O.co2  32  GLU32      -0.2457
     51  N          1.8440   30.6020   10.4420 N.3    35  ASP35      -0.1239
     52  CA         2.8260   30.4100    9.3690 C.3    35  ASP35       0.1674
     53  C          2.2190   29.7280    8.1520 C.2    35  ASP35       0.2266
     54  O          2.5270   28.5650    7.8830 O.2    35  ASP35      -0.2867
     55  CB         4.0050   29.5550    9.8520 C.3    35  ASP35       0.1410
     56  CG         5.1120   29.4490    8.8150 C.2    35  ASP35       0.3668
     57  OD1        5.1670   30.3210    7.9250 O.co2  35  ASP35      -0.2456
     58  OD2        5.9280   28.5030    8.8890 O.co2  35  ASP35      -0.2456
     59  N          7.5670   37.2490    2.4280 N.3    60  THR60      -0.1218
     60  CA         7.9840   36.6370    1.1680 C.3    60  THR60       0.1862
     61  C          8.6200   35.2800    1.3890 C.2    60  THR60       0.2287
     62  O          9.0790   34.9520    2.4770 O.2    60  THR60      -0.2866
     63  CB         9.0150   37.4990    0.4130 C.3    60  THR60       0.1770
     64  OG1       10.2160   37.6070    1.1940 O.3    60  THR60      -0.2211
     65  CG2        8.4630   38.9050    0.1140 C.3    60  THR60       0.0375
     66  N         18.4780   38.4590   13.2500 N.3   120  ASN120     -0.1225
     67  CA        17.4260   37.8500   14.0620 C.3   120  ASN120      0.1785
     68  C         17.9320   36.6240   14.8080 C.2   120  ASN120      0.2597
     69  O         19.0060   36.1050   14.5010 O.2   120  ASN120     -0.2718
     70  CB        16.2230   37.4790   13.1950 C.3   120  ASN120      0.1169
     71  CG        15.0090   37.0610   14.0250 C.2   120  ASN120      0.2627
     72  OD1       14.6800   37.6990   15.0270 O.2   120  ASN120     -0.2716
     73  ND2       14.3250   36.0020   13.5920 N.am  120  ASN120     -0.0877
     74  N         17.1470   36.1920   15.7940 N.am  121  LYS121     -0.1980
     75  CA        17.4660   35.0720   16.6770 C.3   121  LYS121      0.1596
     76  C         18.5910   35.4320   17.6460 C.2   121  LYS121      0.2287
     77  O         19.4310   34.5980   17.9820 O.2   121  LYS121     -0.2864
     78  CB        17.7920   33.7900   15.8900 C.3   121  LYS121      0.0298
     79  CG        16.8910   33.5090   14.6910 C.3   121  LYS121      0.0038
     80  CD        16.8190   32.0230   14.3860 C.3   121  LYS121      0.0206
     81  CE        15.9930   31.7550   13.1210 C.3   121  LYS121      0.1093
     82  NZ        16.2130   30.3700   12.6090 N.3   121  LYS121     -0.1314
     83  N         18.4060   35.8620   20.7020 N.3   123  ASP123     -0.1225
     84  CA        18.2310   35.1210   21.9580 C.3   123  ASP123      0.1805
     85  C         19.1030   33.8610   21.9400 C.2   123  ASP123      0.2597
     86  O         19.3150   33.2220   22.9710 O.2   123  ASP123     -0.2718
     87  CB        16.7650   34.7360   22.1620 C.3   123  ASP123      0.1424
     88  CG        16.2070   33.9470   20.9970 C.2   123  ASP123      0.3668
     89  OD1       15.9920   34.5500   19.9270 O.co2 123  ASP123     -0.2456
     90  OD2       16.0100   32.7260   21.1300 O.co2 123  ASP123     -0.2456
     91  N         19.5980   33.5120   20.7560 N.am  124  LEU124     -0.1979
     92  CA        20.4380   32.3280   20.5730 C.3   124  LEU124      0.1596
     93  C         21.9100   32.7130   20.6300 C.2   124  LEU124      0.2287
     94  O         22.7170   32.2810   19.8000 O.2   124  LEU124     -0.2864
     95  CB        20.1070   31.6300   19.2430 C.3   124  LEU124      0.0297
     96  CG        18.6820   31.0640   19.2040 C.3   124  LEU124      0.0022
     97  CD1       18.4340   30.2760   17.9360 C.3   124  LEU124      0.0001
     98  CD2       18.4500   30.2020   20.4270 C.3   124  LEU124      0.0001
     99  N         14.8960   39.5370   18.3620 N.3   150  SER150     -0.1202
    100  CA        14.4600   38.1830   18.6720 C.3   150  SER150      0.2020
    101  C         12.9610   38.1580   18.4360 C.2   150  SER150      0.2619
    102  O         12.2000   38.6790   19.2430 O.2   150  SER150     -0.2717
    103  CB        14.7770   37.7230   20.0920 C.3   150  SER150      0.2103
    104  OG        14.2050   36.4450   20.3340 O.3   150  SER150     -0.2182
    105  N         12.5480   37.6290   17.2840 N.am  151  ALA151     -0.1965
    106  CA        11.1370   37.4620   16.9790 C.3   151  ALA151      0.1728
    107  C         10.4510   36.6460   18.0540 C.2   151  ALA151      0.2616
    108  O          9.2580   36.8190   18.3100 O.2   151  ALA151     -0.2715
    109  CB        10.9740   36.7790   15.6200 C.3   151  ALA151      0.0334
    110  N         11.2010   35.7420   18.6730 N.am  152  LYS152     -0.1977
    111  CA        10.6280   34.8210   19.6530 C.3   152  LYS152      0.1596
    112  C         10.2920   35.5730   20.9280 C.2   152  LYS152      0.2287
    113  O          9.2180   35.3900   21.4970 O.2   152  LYS152     -0.2864
    114  CB        11.6010   33.6700   19.9420 C.3   152  LYS152      0.0298
    115  CG        11.1050   32.6800   20.9900 C.3   152  LYS152      0.0038
    116  CD        12.2010   31.7060   21.4020 C.3   152  LYS152      0.0206
    117  CE        11.8380   31.0010   22.7030 C.3   152  LYS152      0.1093
    118  NZ        12.9300   30.1470   23.2350 N.3   152  LYS152     -0.1314
@<TRIPOS>BOND
     1    65    63    1
     2    63    60    1
     3    63    64    1
     4    60    61    1
     5    60    59    1
     6    61    62    2
     7     1     2    1
     8    27    28    1
     9    27    26    1
    10     2     3    1
    11    26    25    1
    12     3     4    2
    13     3     5   am
    14    25    24    1
    15     5     6    1
    16    24    21    1
    17    15    13    1
    18    34    33    1
    19    14    13    1
    20    54    53    2
    21    57    56   ar
    22     6     7    1
    23    53    52    1
    24    13    10    1
    25    21    22    1
    26    21    20    1
    27     9     7   am
    28     9    10    1
    29    29    22   am
    30    29    30    1
    31    33    30    1
    32    33    35    1
    33    56    58   ar
    34    56    55    1
    35    22    23    2
    36     7     8    2
    37    20    18   am
    38    30    31    1
    39    10    11    1
    40    52    55    1
    41    52    51    1
    42    16    11   am
    43    16    17    1
    44    11    12    2
    45    18    17    1
    46    18    19    2
    47    31    32    2
    48    31    36   am
    49    36    37    1
    50    82    81    1
    51    37    38    1
    52    37    40    1
    53    81    80    1
    54    70    71    1
    55    70    67    1
    56    66    67    1
    57    38    39    2
    58    41    40    1
    59    73    71   am
    60    71    72    2
    61    67    68    1
    62    80    79    1
    63    69    68    2
    64    79    78    1
    65    68    74   am
    66   109   106    1
    67    74    75    1
    68    78    75    1
    69    75    76    1
    70    45    44    2
    71   106   105    1
    72   106   107    1
    73    44    43    1
    74   105   101   am
    75    76    77    2
    76    97    96    1
    77    42    43    1
    78   107   108    2
    79   107   110   am
    80    43    46    1
    81    99   100    1
    82   101   100    1
    83   101   102    2
    84   100   103    1
    85   110   111    1
    86    96    95    1
    87    96    98    1
    88    95    92    1
    89    46    47    1
    90   111   114    1
    91   111   112    1
    92    94    93    2
    93    89    88   ar
    94   114   115    1
    95   103   104    1
    96    92    93    1
    97    92    91    1
    98    83    84    1
    99    47    48    1
   100    91    85   am
   101   112   113    2
   102   115   116    1
   103    88    90   ar
   104    88    87    1
   105   116   117    1
   106    85    84    1
   107    85    86    2
   108    84    87    1
   109    48    49   ar
   110    48    50   ar
   111   117   118    1
