@<TRIPOS>MOLECULE
tmp/4ku5B00.pdb
 159 147 0 0 0
SMALL
GASTEIGER

@<TRIPOS>ATOM
      1  N        -13.3760   15.4120  -23.4910 N.3   121  ALA121     -0.1231
      2  CA       -12.9260   15.8550  -24.8140 C.3   121  ALA121      0.1694
      3  C        -13.1790   17.3550  -24.9910 C.2   121  ALA121      0.2592
      4  O        -12.8890   18.1460  -24.0860 O.2   121  ALA121     -0.2718
      5  CB       -13.5910   15.0440  -25.9310 C.3   121  ALA121      0.0304
      6  N        -13.7420   17.7390  -26.1350 N.am  122  SER122     -0.1952
      7  CA       -13.9150   19.1550  -26.4720 C.3   122  SER122      0.1924
      8  C        -15.1300   19.8400  -25.8390 C.2   122  SER122      0.2314
      9  O        -15.3820   21.0200  -26.0990 O.2   122  SER122     -0.2863
     10  CB       -13.9570   19.3440  -27.9920 C.3   122  SER122      0.2116
     11  OG       -12.7230   18.9950  -28.5870 O.3   122  SER122     -0.2180
     12  N        -12.8570    8.3310  -31.7200 N.3   218  CYS218     -0.1235
     13  CA       -11.6500    9.1470  -31.6070 C.3   218  CYS218      0.1677
     14  C        -10.9660    8.9540  -30.2470 C.2   218  CYS218      0.2270
     15  O        -11.4880    9.3790  -29.2100 O.2   218  CYS218     -0.2867
     16  CB       -11.9730   10.6250  -31.8510 C.3   218  CYS218      0.0956
     17  SG       -10.5030   11.7040  -31.9050 S.3   218  CYS218     -0.0801
     18  N        -17.1250    9.8140  -37.6890 N.3   232  LEU232     -0.1245
     19  CA       -17.1600   10.8140  -36.6300 C.3   232  LEU232      0.1561
     20  C        -17.8720   12.0680  -37.1280 C.2   232  LEU232      0.2260
     21  O        -18.6710   12.6610  -36.3980 O.2   232  LEU232     -0.2867
     22  CB       -15.7440   11.1580  -36.1650 C.3   232  LEU232      0.0270
     23  CG       -15.4870   11.4050  -34.6740 C.3   232  LEU232      0.0019
     24  CD1      -14.5180   12.5600  -34.4810 C.3   232  LEU232      0.0001
     25  CD2      -16.7750   11.6270  -33.8890 C.3   232  LEU232      0.0001
     26  N        -21.3200   12.8280  -35.4870 N.3   236  GLY236     -0.1210
     27  CA       -21.1620   14.0720  -34.7500 C.3   236  GLY236      0.1956
     28  C        -22.1990   15.1070  -35.1540 C.2   236  GLY236      0.2611
     29  O        -22.7520   15.8200  -34.3100 O.2   236  GLY236     -0.2717
     30  N        -22.4650   15.1880  -36.4540 N.am  237  ILE237     -0.1979
     31  CA       -23.4480   16.1280  -36.9740 C.3   237  ILE237      0.1595
     32  C        -24.8660   15.6930  -36.5890 C.2   237  ILE237      0.2287
     33  O        -25.7150   16.5350  -36.2690 O.2   237  ILE237     -0.2864
     34  CB       -23.2750   16.3220  -38.5010 C.3   237  ILE237      0.0276
     35  CG1      -22.1460   17.3230  -38.7710 C.3   237  ILE237      0.0022
     36  CG2      -24.5600   16.8180  -39.1430 C.3   237  ILE237      0.0022
     37  CD1      -21.2850   16.9860  -39.9690 C.3   237  ILE237      0.0001
     38  N        -25.3920   16.8200  -33.0190 N.3   240  ALA240     -0.1245
     39  CA       -25.5210   18.2770  -33.0220 C.3   240  ALA240      0.1562
     40  C        -26.9110   18.7030  -33.5020 C.2   240  ALA240      0.2260
     41  O        -27.5340   19.5890  -32.9140 O.2   240  ALA240     -0.2867
     42  CB       -24.4270   18.9130  -33.8790 C.3   240  ALA240      0.0290
     43  N        -19.0880   28.1030  -32.2430 N.3   263  ILE263     -0.1231
     44  CA       -19.1210   26.6710  -32.5170 C.3   263  ILE263      0.1692
     45  C        -17.7620   26.0200  -32.2740 C.2   263  ILE263      0.2592
     46  O        -16.7230   26.6710  -32.3750 O.2   263  ILE263     -0.2718
     47  CB       -19.5940   26.4070  -33.9760 C.3   263  ILE263      0.0266
     48  CG1      -20.1370   24.9870  -34.1380 C.3   263  ILE263      0.0019
     49  CG2      -18.4860   26.6920  -34.9890 C.3   263  ILE263      0.0020
     50  CD1      -20.5980   24.6770  -35.5510 C.3   263  ILE263      0.0001
     51  N        -17.7730   24.7370  -31.9290 N.am  264  HIS264     -0.1976
     52  CA       -16.5370   23.9820  -31.8030 C.3   264  HIS264      0.1656
     53  C        -15.8690   23.8760  -33.1720 C.2   264  HIS264      0.2291
     54  O        -16.5420   23.6390  -34.1780 O.2   264  HIS264     -0.2864
     55  CB       -16.7790   22.5870  -31.2500 C.3   264  HIS264      0.0771
     56  CG       -15.5270   21.7720  -31.1470 C.ar  264  HIS264      0.0820
     57  ND1      -14.3430   22.2940  -30.6740 N.ar  264  HIS264     -0.2267
     58  CD2      -15.2740   20.4830  -31.4720 C.ar  264  HIS264      0.1154
     59  CE1      -13.4090   21.3550  -30.7080 C.ar  264  HIS264      0.1986
     60  NE2      -13.9490   20.2500  -31.1860 N.ar  264  HIS264     -0.2212
     61  N        -13.6080   22.1010  -35.7420 N.3   266  VAL266     -0.1245
     62  CA       -12.9380   20.8630  -36.1420 C.3   266  VAL266      0.1561
     63  C        -12.5660   20.7940  -37.6290 C.2   266  VAL266      0.2260
     64  O        -11.4920   20.2830  -37.9690 O.2   266  VAL266     -0.2867
     65  CB       -13.6950   19.5840  -35.6640 C.3   266  VAL266      0.0252
     66  CG1      -14.9920   19.9540  -34.9620 C.3   266  VAL266      0.0019
     67  CG2      -13.9320   18.6020  -36.8090 C.3   266  VAL266      0.0019
     68  N        -17.1280   19.7890  -41.7420 N.3   270  HIS270     -0.1226
     69  CA       -17.8970   19.6320  -40.5060 C.3   270  HIS270      0.1752
     70  C        -18.7900   20.8550  -40.2600 C.2   270  HIS270      0.2596
     71  O        -19.9950   20.7280  -40.0230 O.2   270  HIS270     -0.2718
     72  CB       -16.9610   19.4440  -39.3010 C.3   270  HIS270      0.0759
     73  CG       -16.4030   18.0580  -39.1560 C.ar  270  HIS270      0.0818
     74  ND1      -15.2280   17.6570  -39.7580 N.ar  270  HIS270     -0.2268
     75  CD2      -16.8420   16.9880  -38.4480 C.ar  270  HIS270      0.1154
     76  CE1      -14.9770   16.4000  -39.4420 C.ar  270  HIS270      0.1986
     77  NE2      -15.9400   15.9700  -38.6450 N.ar  270  HIS270     -0.2212
     78  N        -18.1820   22.0360  -40.3170 N.am  271  THR271     -0.1953
     79  CA       -18.8850   23.2890  -40.0630 C.3   271  THR271      0.1897
     80  C        -19.9990   23.5520  -41.0780 C.2   271  THR271      0.2313
     81  O        -21.1430   23.8280  -40.7060 O.2   271  THR271     -0.2863
     82  CB       -17.9040   24.4790  -40.0800 C.3   271  THR271      0.1794
     83  OG1      -16.8690   24.2640  -39.1100 O.3   271  THR271     -0.2208
     84  CG2      -18.6300   25.7770  -39.7640 C.3   271  THR271      0.0378
     85  N        -23.1390   21.5270  -40.7950 N.3   274  PHE274     -0.1241
     86  CA       -24.0240   21.9180  -39.7030 C.3   274  PHE274      0.1605
     87  C        -24.8180   23.1850  -40.0030 C.2   274  PHE274      0.2264
     88  O        -26.0250   23.2280  -39.7640 O.2   274  PHE274     -0.2867
     89  CB       -23.2720   22.0880  -38.3830 C.3   274  PHE274      0.0534
     90  CG       -24.1530   22.5580  -37.2590 C.ar  274  PHE274     -0.0203
     91  CD1      -25.0110   21.6700  -36.6190 C.ar  274  PHE274     -0.0042
     92  CD2      -24.1530   23.8920  -36.8670 C.ar  274  PHE274     -0.0042
     93  CE1      -25.8400   22.0970  -35.5950 C.ar  274  PHE274     -0.0003
     94  CE2      -24.9820   24.3290  -35.8460 C.ar  274  PHE274     -0.0003
     95  CZ       -25.8260   23.4300  -35.2070 C.ar  274  PHE274     -0.0000
     96  N         -7.7480   22.7080  -34.5630 N.3   294  ASN294     -0.1240
     97  CA        -8.6580   22.2840  -33.5020 C.3   294  ASN294      0.1653
     98  C         -7.9600   22.3730  -32.1440 C.2   294  ASN294      0.2266
     99  O         -7.0050   21.6390  -31.8770 O.2   294  ASN294     -0.2867
    100  CB        -9.1250   20.8460  -33.7810 C.3   294  ASN294      0.1155
    101  CG       -10.2050   20.3540  -32.8080 C.2   294  ASN294      0.2627
    102  OD1      -10.3960   20.9070  -31.7180 O.2   294  ASN294     -0.2716
    103  ND2      -10.9040   19.2880  -33.2030 N.am  294  ASN294     -0.0877
    104  N         -9.4360   21.8300  -29.3130 N.3   296  GLY296     -0.1225
    105  CA       -10.2320   21.0450  -28.3840 C.3   296  GLY296      0.1811
    106  C        -11.2230   21.8720  -27.5920 C.2   296  GLY296      0.2280
    107  O        -11.8660   22.7650  -28.1440 O.2   296  GLY296     -0.2866
    108  N        -22.2500   26.4770  -29.0560 N.3   322  LEU322     -0.1231
    109  CA       -22.5480   25.1280  -29.5380 C.3   322  LEU322      0.1693
    110  C        -21.3310   24.2380  -29.3630 C.2   322  LEU322      0.2593
    111  O        -20.4330   24.2280  -30.2090 O.2   322  LEU322     -0.2718
    112  CB       -22.9790   25.1460  -31.0080 C.3   322  LEU322      0.0284
    113  CG       -24.0330   26.1830  -31.4200 C.3   322  LEU322      0.0019
    114  CD1      -24.4900   25.9600  -32.8480 C.3   322  LEU322      0.0001
    115  CD2      -25.2280   26.1860  -30.4790 C.3   322  LEU322      0.0001
    116  N        -21.3050   23.4870  -28.2660 N.am  323  GLY323     -0.1942
    117  CA       -20.1830   22.6140  -27.9720 C.3   323  GLY323      0.2014
    118  C        -20.4570   21.1510  -28.2670 C.2   323  GLY323      0.2639
    119  O        -21.6100   20.6940  -28.2470 O.2   323  GLY323     -0.2714
    120  N        -19.3860   20.4130  -28.5430 N.am  324  ILE324     -0.1963
    121  CA       -19.4700   18.9770  -28.7890 C.3   324  ILE324      0.1727
    122  C        -18.0910   18.3750  -28.5270 C.2   324  ILE324      0.2617
    123  O        -17.0930   19.1020  -28.5030 O.2   324  ILE324     -0.2715
    124  CB       -19.9660   18.6680  -30.2360 C.3   324  ILE324      0.0290
    125  CG1      -20.2710   17.1760  -30.4060 C.3   324  ILE324      0.0022
    126  CG2      -18.9620   19.1510  -31.2860 C.3   324  ILE324      0.0023
    127  CD1      -21.2090   16.8590  -31.5650 C.3   324  ILE324      0.0001
    128  N        -18.0340   17.0620  -28.3110 N.am  325  GLY325     -0.1940
    129  CA       -16.7690   16.3920  -28.0820 C.3   325  GLY325      0.2014
    130  C        -16.8660   14.9100  -28.3680 C.2   325  GLY325      0.2639
    131  O        -17.9730   14.3560  -28.4290 O.2   325  GLY325     -0.2714
    132  N        -15.7120   14.2710  -28.5650 N.am  326  SER326     -0.1949
    133  CA       -15.6600   12.8190  -28.7000 C.3   326  SER326      0.1924
    134  C        -16.3330   12.2190  -27.4820 C.2   326  SER326      0.2314
    135  O        -16.1440   12.7030  -26.3630 O.2   326  SER326     -0.2863
    136  CB       -14.2140   12.3290  -28.7970 C.3   326  SER326      0.2116
    137  OG       -13.5450   12.9450  -29.8810 O.3   326  SER326     -0.2180
    138  N        -20.0420   10.2340  -27.9140 N.3   328  LEU328     -0.1245
    139  CA       -20.1720   11.6540  -28.2270 C.3   328  LEU328      0.1561
    140  C        -21.0180   12.3700  -27.1800 C.2   328  LEU328      0.2260
    141  O        -21.9680   11.7960  -26.6380 O.2   328  LEU328     -0.2867
    142  CB       -20.8260   11.8320  -29.6030 C.3   328  LEU328      0.0270
    143  CG       -20.0240   11.5360  -30.8700 C.3   328  LEU328      0.0019
    144  CD1      -20.9550   11.3080  -32.0510 C.3   328  LEU328      0.0001
    145  CD2      -19.0600   12.6700  -31.1720 C.3   328  LEU328      0.0001
    146  N        -22.8310   16.4190  -26.5620 N.3   330  CYS330     -0.1235
    147  CA       -23.1250   17.7270  -27.1520 C.3   330  CYS330      0.1677
    148  C        -23.8940   18.6200  -26.1810 C.2   330  CYS330      0.2270
    149  O        -24.8880   18.1930  -25.5850 O.2   330  CYS330     -0.2867
    150  CB       -23.9260   17.5640  -28.4520 C.3   330  CYS330      0.0956
    151  SG       -24.2880   19.1190  -29.3400 S.3   330  CYS330     -0.0801
    152  N        -25.4830   22.7100  -25.8320 N.3   332  MET332     -0.1245
    153  CA       -25.7520   24.0090  -26.4310 C.3   332  MET332      0.1570
    154  C        -26.3930   24.9450  -25.4110 C.2   332  MET332      0.2261
    155  O        -27.4290   24.6260  -24.8180 O.2   332  MET332     -0.2867
    156  CB       -26.6440   23.8520  -27.6650 C.3   332  MET332      0.0387
    157  CG       -25.9830   23.0410  -28.7630 C.3   332  MET332      0.0595
    158  SD       -27.0650   22.7480  -30.1630 S.3   332  MET332     -0.1393
    159  CE       -25.9760   21.7910  -31.2220 C.3   332  MET332      0.0692
@<TRIPOS>BOND
     1    68    69    1
     2    80    81    2
     3    80    79    1
     4    85    86    1
     5    69    70    1
     6    69    72    1
     7    78    70   am
     8    78    79    1
     9    70    71    2
    10    82    79    1
    11    82    84    1
    12    82    83    1
    13    87    88    2
    14    87    86    1
    15    37    35    1
    16    74    76   ar
    17    74    73   ar
    18    86    89    1
    19    76    77   ar
    20    72    73    1
    21    73    75   ar
    22    36    34    1
    23    35    34    1
    24    77    75   ar
    25    34    31    1
    26    89    90    1
    27    64    63    2
    28    18    19    1
    29    63    62    1
    30    90    92   ar
    31    90    91   ar
    32    20    19    1
    33    20    21    2
    34    31    32    1
    35    31    30    1
    36    92    94   ar
    37    67    65    1
    38    19    22    1
    39    91    93   ar
    40    32    33    2
    41    30    28   am
    42    22    23    1
    43    62    61    1
    44    62    65    1
    45    94    95   ar
    46    65    66    1
    47    93    95   ar
    48    50    48    1
    49    26    27    1
    50    28    27    1
    51    28    29    2
    52    49    47    1
    53    23    24    1
    54    23    25    1
    55    96    97    1
    56    54    53    2
    57    48    47    1
    58    47    44    1
    59    42    39    1
    60   100    97    1
    61   100   101    1
    62    97    98    1
    63    40    39    1
    64    40    41    2
    65   103   101   am
    66    53    52    1
    67    39    38    1
    68   114   113    1
    69   101   102    2
    70    44    45    1
    71    44    43    1
    72    46    45    2
    73    45    51   am
    74    98    99    2
    75   144   143    1
    76    51    52    1
    77    17    16    1
    78    16    13    1
    79    52    55    1
    80    12    13    1
    81    13    14    1
    82   127   125    1
    83    58    60   ar
    84    58    56   ar
    85   113   112    1
    86   113   115    1
    87   126   124    1
    88    55    56    1
    89   159   158    1
    90    60    59   ar
    91   145   143    1
    92    56    57   ar
    93   112   109    1
    94   143   142    1
    95    59    57   ar
    96   125   124    1
    97    14    15    2
    98   124   121    1
    99   111   110    2
   100   158   157    1
   101   137   136    1
   102   142   139    1
   103   109   110    1
   104   109   108    1
   105   110   116   am
   106   151   150    1
   107   104   105    1
   108   136   133    1
   109   121   120    1
   110   121   122    1
   111   157   156    1
   112   133   132    1
   113   133   134    1
   114    11    10    1
   115   132   130   am
   116   120   118   am
   117   122   123    2
   118   122   128   am
   119   150   147    1
   120   131   130    2
   121   105   106    1
   122   130   129    1
   123   128   129    1
   124   118   119    2
   125   118   117    1
   126   116   117    1
   127   139   138    1
   128   139   140    1
   129   107   106    2
   130    10     7    1
   131   156   153    1
   132   134   135    2
   133   140   141    2
   134   147   146    1
   135   147   148    1
   136     7     6    1
   137     7     8    1
   138   153   152    1
   139   153   154    1
   140   148   149    2
   141     6     3   am
   142     9     8    2
   143     5     2    1
   144   154   155    2
   145     3     2    1
   146     3     4    2
   147     2     1    1
