@<TRIPOS>MOLECULE
tmp/4ku5A02.pdb
 94 91 0 0 0
SMALL
GASTEIGER

@<TRIPOS>ATOM
      1  N        -26.7280   26.4370    6.1580 N.3     1  HIS1       -0.1226
      2  CA       -25.2950   26.3970    5.8680 C.3     1  HIS1        0.1752
      3  C        -24.9820   25.7070    4.5350 C.2     1  HIS1        0.2596
      4  O        -23.8620   25.2310    4.3230 O.2     1  HIS1       -0.2718
      5  CB       -24.5230   25.7360    7.0200 C.3     1  HIS1        0.0759
      6  CG       -24.4260   26.5870    8.2500 C.ar    1  HIS1        0.0818
      7  ND1      -23.5030   27.6030    8.3800 N.ar    1  HIS1       -0.2268
      8  CD2      -25.1360   26.5740    9.4040 C.ar    1  HIS1        0.1154
      9  CE1      -23.6490   28.1800    9.5600 C.ar    1  HIS1        0.1986
     10  NE2      -24.6330   27.5760   10.2000 N.ar    1  HIS1       -0.2212
     11  N        -25.9810   25.6550    3.6530 N.am    2  MET2       -0.1965
     12  CA       -25.8360   25.0970    2.3000 C.3     2  MET2        0.1736
     13  C        -25.5670   23.5880    2.2420 C.2     2  MET2        0.2616
     14  O        -25.0320   23.0800    1.2490 O.2     2  MET2       -0.2715
     15  CB       -24.7820   25.8650    1.4910 C.3     2  MET2        0.0427
     16  CG       -25.2410   27.2390    1.0350 C.3     2  MET2        0.0599
     17  SD       -23.8610   28.2970    0.5760 S.3     2  MET2       -0.1393
     18  CE       -23.0980   28.5580    2.1750 C.3     2  MET2        0.0692
     19  N        -25.9410   22.8770    3.3030 N.am    3  LEU3       -0.1963
     20  CA       -25.9310   21.4160    3.2750 C.3     3  LEU3        0.1728
     21  C        -26.9790   20.9470    2.2670 C.2     3  LEU3        0.2616
     22  O        -27.9700   21.6430    2.0330 O.2     3  LEU3       -0.2715
     23  CB       -26.2240   20.8450    4.6680 C.3     3  LEU3        0.0311
     24  CG       -25.1720   21.1630    5.7360 C.3     3  LEU3        0.0022
     25  CD1      -25.5200   20.5500    7.0850 C.3     3  LEU3        0.0001
     26  CD2      -23.8020   20.6970    5.2740 C.3     3  LEU3        0.0001
     27  N        -26.7600   19.7850    1.6550 N.am    4  PHE4       -0.1974
     28  CA       -27.7000   19.2980    0.6490 C.3     4  PHE4        0.1639
     29  C        -29.0070   18.8140    1.2630 C.2     4  PHE4        0.2290
     30  O        -29.0190   18.1580    2.3080 O.2     4  PHE4       -0.2864
     31  CB       -27.0720   18.1960   -0.2080 C.3     4  PHE4        0.0560
     32  CG       -25.8670   18.6480   -0.9810 C.ar    4  PHE4       -0.0200
     33  CD1      -25.9570   19.7070   -1.8830 C.ar    4  PHE4       -0.0042
     34  CD2      -24.6450   18.0080   -0.8180 C.ar    4  PHE4       -0.0042
     35  CE1      -24.8410   20.1320   -2.6010 C.ar    4  PHE4       -0.0003
     36  CE2      -23.5250   18.4210   -1.5310 C.ar    4  PHE4       -0.0003
     37  CZ       -23.6230   19.4870   -2.4260 C.ar    4  PHE4       -0.0000
     38  N        -20.8660   15.5200   -4.7740 N.3   132  ASP132     -0.1239
     39  CA       -21.3120   16.9070   -4.5730 C.3   132  ASP132      0.1674
     40  C        -21.9380   17.4960   -5.8400 C.2   132  ASP132      0.2266
     41  O        -22.9640   18.1770   -5.7750 O.2   132  ASP132     -0.2867
     42  CB       -20.1480   17.8020   -4.1300 C.3   132  ASP132      0.1410
     43  CG       -19.6820   17.5150   -2.7150 C.2   132  ASP132      0.3668
     44  OD1      -20.4760   16.9830   -1.9040 O.co2 132  ASP132     -0.2456
     45  OD2      -18.5120   17.8440   -2.4150 O.co2 132  ASP132     -0.2456
     46  N        -26.0180   18.5630   -6.3450 N.3   136  ARG136     -0.1245
     47  CA       -26.5370   19.8850   -6.7210 C.3   136  ARG136      0.1563
     48  C        -27.5990   19.8040   -7.8150 C.2   136  ARG136      0.2260
     49  O        -28.5490   20.5960   -7.8240 O.2   136  ARG136     -0.2867
     50  CB       -25.4080   20.8170   -7.1730 C.3   136  ARG136      0.0307
     51  CG       -24.4430   21.1740   -6.0780 C.3   136  ARG136      0.0489
     52  CD       -23.5100   22.3060   -6.4720 C.3   136  ARG136      0.2205
     53  NE       -22.4970   22.4690   -5.4360 N.pl3 136  ARG136     -0.0865
     54  CZ       -21.3070   21.8760   -5.4650 C.cat 136  ARG136      0.5346
     55  NH1      -20.9720   21.1090   -6.4980 N.pl3 136  ARG136      0.1354
     56  NH2      -20.4460   22.0620   -4.4740 N.pl3 136  ARG136      0.1354
     57  N        -25.4230   14.8370    3.0940 N.3   206  LYS206     -0.1231
     58  CA       -25.5620   16.2580    3.4150 C.3   206  LYS206      0.1693
     59  C        -24.5120   17.1450    2.7530 C.2   206  LYS206      0.2593
     60  O        -24.6650   18.3730    2.7080 O.2   206  LYS206     -0.2718
     61  CB       -25.5130   16.4760    4.9320 C.3   206  LYS206      0.0285
     62  CG       -26.6870   15.8720    5.6890 C.3   206  LYS206      0.0035
     63  CD       -26.6320   16.2430    7.1600 C.3   206  LYS206      0.0206
     64  CE       -27.9890   16.0510    7.8130 C.3   206  LYS206      0.1093
     65  NZ       -27.9420   16.2980    9.2810 N.3   206  LYS206     -0.1314
     66  N        -23.4530   16.5330    2.2370 N.am  207  GLY207     -0.1942
     67  CA       -22.2980   17.2970    1.7970 C.3   207  GLY207      0.2014
     68  C        -21.4480   17.6650    3.0000 C.2   207  GLY207      0.2639
     69  O        -21.5670   17.0420    4.0700 O.2   207  GLY207     -0.2714
     70  N        -20.6060   18.6830    2.8380 N.am  208  GLY208     -0.1939
     71  CA       -19.7120   19.1050    3.9000 C.3   208  GLY208      0.2014
     72  C        -18.7880   20.2330    3.4870 C.2   208  GLY208      0.2639
     73  O        -19.2120   21.1670    2.8010 O.2   208  GLY208     -0.2714
     74  N        -17.5230   20.1450    3.9000 N.am  209  VAL209     -0.1963
     75  CA       -16.5700   21.2420    3.7110 C.3   209  VAL209      0.1727
     76  C        -15.2910   20.8200    2.9840 C.2   209  VAL209      0.2616
     77  O        -14.9410   19.6330    2.9490 O.2   209  VAL209     -0.2715
     78  CB       -16.1820   21.8890    5.0630 C.3   209  VAL209      0.0290
     79  CG1      -17.3750   22.5600    5.6870 C.3   209  VAL209      0.0023
     80  CG2      -15.6200   20.8490    6.0160 C.3   209  VAL209      0.0023
     81  N        -14.5970   21.8060    2.4170 N.am  210  THR210     -0.1951
     82  CA       -13.3240   21.5820    1.7400 C.3   210  THR210      0.1897
     83  C        -12.3500   22.7160    2.0760 C.2   210  THR210      0.2313
     84  O        -12.7320   23.8910    2.0990 O.2   210  THR210     -0.2863
     85  CB       -13.5090   21.4850    0.2050 C.3   210  THR210      0.1794
     86  OG1      -14.4610   20.4570   -0.1040 O.3   210  THR210     -0.2208
     87  CG2      -12.1940   21.1520   -0.4800 C.3   210  THR210      0.0378
     88  N        -19.8780   24.3080   10.1120 N.3   252  VAL252     -0.1245
     89  CA       -20.9990   24.0870    9.1920 C.3   252  VAL252      0.1561
     90  C        -21.7490   22.7530    9.3680 C.2   252  VAL252      0.2260
     91  O        -22.9330   22.6610    9.0360 O.2   252  VAL252     -0.2867
     92  CB       -20.6010   24.3250    7.6930 C.3   252  VAL252      0.0252
     93  CG1      -19.2360   24.9690    7.5880 C.3   252  VAL252      0.0019
     94  CG2      -20.6540   23.0380    6.8870 C.3   252  VAL252      0.0019
@<TRIPOS>BOND
     1    49    48    2
     2    48    47    1
     3    50    47    1
     4    50    51    1
     5    47    46    1
     6    55    54    1
     7    52    51    1
     8    52    53    1
     9    40    41    2
    10    40    39    1
    11    54    53    2
    12    54    56    1
    13    38    39    1
    14    39    42    1
    15    42    43    1
    16    43    45   ar
    17    43    44   ar
    18    35    37   ar
    19    35    33   ar
    20    37    36   ar
    21    33    32   ar
    22    36    34   ar
    23    32    34   ar
    24    32    31    1
    25    87    85    1
    26    31    28    1
    27    86    85    1
    28    85    82    1
    29    17    16    1
    30    17    18    1
    31    28    29    1
    32    28    27    1
    33    16    15    1
    34    14    13    2
    35    29    30    2
    36    15    12    1
    37    27    21   am
    38    82    83    1
    39    82    81    1
    40    67    66    1
    41    67    68    1
    42    22    21    2
    43    83    84    2
    44    66    59   am
    45    13    12    1
    46    13    19   am
    47    21    20    1
    48    12    11    1
    49    81    76   am
    50    60    59    2
    51    59    58    1
    52    73    72    2
    53    70    68   am
    54    70    71    1
    55    77    76    2
    56    76    75    1
    57    68    69    2
    58    57    58    1
    59    20    19    1
    60    20    23    1
    61    58    61    1
    62    72    71    1
    63    72    74   am
    64    11     3   am
    65    75    74    1
    66    75    78    1
    67     4     3    2
    68     3     2    1
    69    23    24    1
    70    61    62    1
    71    78    79    1
    72    78    80    1
    73    26    24    1
    74    62    63    1
    75    24    25    1
    76     2     1    1
    77     2     5    1
    78    94    92    1
    79     5     6    1
    80    63    64    1
    81    93    92    1
    82    92    89    1
    83    64    65    1
    84     6     7   ar
    85     6     8   ar
    86     7     9   ar
    87    91    90    2
    88    89    90    1
    89    89    88    1
    90     8    10   ar
    91     9    10   ar
