@<TRIPOS>MOLECULE
tmp/4ku5A01.pdb
 97 88 0 0 0
SMALL
GASTEIGER

@<TRIPOS>ATOM
      1  N         10.1670   -2.1470    5.0530 N.3    43  VAL43      -0.1231
      2  CA         9.5230   -0.8410    4.9590 C.3    43  VAL43       0.1692
      3  C          8.0600   -0.9120    4.4960 C.2    43  VAL43       0.2591
      4  O          7.2870    0.0100    4.7430 O.2    43  VAL43      -0.2718
      5  CB        10.3310    0.1170    4.0540 C.3    43  VAL43       0.0266
      6  CG1       11.6010    0.5620    4.7610 C.3    43  VAL43       0.0020
      7  CG2       10.6710   -0.5530    2.7270 C.3    43  VAL43       0.0020
      8  N          7.6810   -2.0050    3.8390 N.am   44  LEU44      -0.1980
      9  CA         6.2960   -2.1830    3.3930 C.3    44  LEU44       0.1596
     10  C          5.4170   -2.7660    4.5030 C.2    44  LEU44       0.2287
     11  O          4.3850   -2.1930    4.8650 O.2    44  LEU44      -0.2864
     12  CB         6.2400   -3.1070    2.1710 C.3    44  LEU44       0.0297
     13  CG         6.9800   -2.6650    0.9110 C.3    44  LEU44       0.0022
     14  CD1        6.9090   -3.7410   -0.1540 C.3    44  LEU44       0.0001
     15  CD2        6.4050   -1.3590    0.3920 C.3    44  LEU44       0.0001
     16  N          6.7420   -0.8550    8.4810 N.3    47  VAL47      -0.1231
     17  CA         6.6180    0.6070    8.5240 C.3    47  VAL47       0.1692
     18  C          5.2610    1.0780    8.0030 C.2    47  VAL47       0.2591
     19  O          4.4560    1.6130    8.7610 O.2    47  VAL47      -0.2718
     20  CB         7.7460    1.3190    7.7420 C.3    47  VAL47       0.0266
     21  CG1        7.5890    2.8190    7.8420 C.3    47  VAL47       0.0020
     22  CG2        9.1080    0.9080    8.2800 C.3    47  VAL47       0.0020
     23  N          5.0080    0.8690    6.7130 N.am   48  ALA48      -0.1980
     24  CA         3.7670    1.3260    6.0860 C.3    48  ALA48       0.1597
     25  C          2.5570    0.5110    6.5300 C.2    48  ALA48       0.2287
     26  O          1.4200    0.9910    6.4770 O.2    48  ALA48      -0.2864
     27  CB         3.8950    1.2950    4.5720 C.3    48  ALA48       0.0319
     28  N          8.8450    4.3490   -3.7770 N.3   179  LEU179     -0.1231
     29  CA         8.3970    3.2910   -2.8570 C.3   179  LEU179      0.1693
     30  C          6.8900    3.3350   -2.5550 C.2   179  LEU179      0.2591
     31  O          6.2470    2.2920   -2.4060 O.2   179  LEU179     -0.2718
     32  CB         9.2080    3.3390   -1.5570 C.3   179  LEU179      0.0284
     33  CG         8.9090    2.2970   -0.4760 C.3   179  LEU179      0.0019
     34  CD1        9.1950    0.8850   -0.9720 C.3   179  LEU179      0.0001
     35  CD2        9.7030    2.5930    0.7910 C.3   179  LEU179      0.0001
     36  N          6.3260    4.5380   -2.4730 N.am  180  ALA180     -0.1980
     37  CA         4.9060    4.6870   -2.1450 C.3   180  ALA180      0.1597
     38  C          4.0020    4.0620   -3.2080 C.2   180  ALA180      0.2287
     39  O          2.8570    3.7000   -2.9240 O.2   180  ALA180     -0.2864
     40  CB         4.5510    6.1610   -1.9390 C.3   180  ALA180      0.0319
     41  N          2.3730    0.8230   -2.3490 N.3   183  THR183     -0.1218
     42  CA         1.2930    0.7840   -1.3590 C.3   183  THR183      0.1862
     43  C         -0.0790    0.9300   -2.0330 C.2   183  THR183      0.2287
     44  O         -1.1230    0.8950   -1.3670 O.2   183  THR183     -0.2866
     45  CB         1.4740    1.8730   -0.2730 C.3   183  THR183      0.1770
     46  OG1        1.3270    3.1790   -0.8560 O.3   183  THR183     -0.2211
     47  CG2        2.8480    1.7600    0.3550 C.3   183  THR183      0.0375
     48  N          6.7500   10.3590   -4.7020 N.3   229  THR229     -0.1218
     49  CA         6.0980   10.8430   -3.4790 C.3   229  THR229      0.1862
     50  C          7.0580   11.2860   -2.3610 C.2   229  THR229      0.2287
     51  O          7.9900   10.5550   -2.0000 O.2   229  THR229     -0.2866
     52  CB         5.1770    9.7490   -2.8890 C.3   229  THR229      0.1770
     53  OG1        4.3680    9.1770   -3.9270 O.3   229  THR229     -0.2211
     54  CG2        4.2760   10.3280   -1.8150 C.3   229  THR229      0.0375
     55  N          6.8310   11.2550    1.0960 N.3   231  THR231     -0.1218
     56  CA         6.0340   10.6750    2.1740 C.3   231  THR231      0.1862
     57  C          6.0730   11.4900    3.4710 C.2   231  THR231      0.2287
     58  O          5.0260   11.7690    4.0760 O.2   231  THR231     -0.2866
     59  CB         6.4910    9.2320    2.4570 C.3   231  THR231      0.1770
     60  OG1        6.1540    8.4010    1.3350 O.3   231  THR231     -0.2211
     61  CG2        5.8160    8.6950    3.7060 C.3   231  THR231      0.0375
     62  N          4.2050   14.8510    3.0610 N.3   234  LEU234     -0.1245
     63  CA         2.7690   14.6060    2.9080 C.3   234  LEU234      0.1561
     64  C          2.0770   14.4060    4.2570 C.2   234  LEU234      0.2260
     65  O          0.9750   14.9230    4.4860 O.2   234  LEU234     -0.2867
     66  CB         2.5150   13.3990    2.0030 C.3   234  LEU234      0.0270
     67  CG         2.4250   13.6850    0.5030 C.3   234  LEU234      0.0019
     68  CD1        1.9930   12.4440   -0.2500 C.3   234  LEU234      0.0001
     69  CD2        1.4580   14.8280    0.2210 C.3   234  LEU234      0.0001
     70  N         -3.5040    6.2900    3.4100 N.3   268  VAL268     -0.1231
     71  CA        -2.2590    6.2270    2.6330 C.3   268  VAL268      0.1692
     72  C         -1.1990    5.3300    3.2830 C.2   268  VAL268      0.2592
     73  O         -0.3320    4.7860    2.5850 O.2   268  VAL268     -0.2718
     74  CB        -1.6700    7.6310    2.3490 C.3   268  VAL268      0.0266
     75  CG1       -2.5480    8.3870    1.3640 C.3   268  VAL268      0.0020
     76  CG2       -1.5140    8.4190    3.6310 C.3   268  VAL268      0.0020
     77  N         -1.2790    5.1810    4.6090 N.am  269  SER269     -0.1952
     78  CA        -0.4400    4.2340    5.3550 C.3   269  SER269      0.1924
     79  C         -0.9080    4.1170    6.8080 C.2   269  SER269      0.2314
     80  O         -1.5830    5.0120    7.3250 O.2   269  SER269     -0.2863
     81  CB         1.0360    4.6510    5.3350 C.3   269  SER269      0.2116
     82  OG         1.2860    5.7080    6.2530 O.3   269  SER269     -0.2180
     83  N          0.8760    4.3050    9.7480 N.3   271  PRO271     -0.2116
     84  CA         1.3070    5.3940   10.6380 C.3   271  PRO271      0.1372
     85  C          0.6380    6.7290   10.3340 C.2   271  PRO271      0.2244
     86  O          0.4070    7.5070   11.2620 O.2   271  PRO271     -0.2868
     87  CB         2.8220    5.4840   10.3940 C.3   271  PRO271      0.0268
     88  CG         3.0660    4.7760    9.1010 C.3   271  PRO271      0.0207
     89  CD         2.0190    3.7050    9.0330 C.3   271  PRO271      0.0892
     90  N         -3.8520    1.2740   -0.9150 N.3   296  ASN296     -0.1240
     91  CA        -4.4750    2.5580   -1.2190 C.3   296  ASN296      0.1653
     92  C         -5.1440    2.5200   -2.5950 C.2   296  ASN296      0.2266
     93  O         -4.4600    2.4650   -3.6180 O.2   296  ASN296     -0.2867
     94  CB        -3.3970    3.6540   -1.1450 C.3   296  ASN296      0.1155
     95  CG        -3.9280    5.0490   -1.4720 C.2   296  ASN296      0.2627
     96  OD1       -5.1080    5.2370   -1.7820 O.2   296  ASN296     -0.2716
     97  ND2       -3.0470    6.0420   -1.3860 N.am  296  ASN296     -0.0877
@<TRIPOS>BOND
     1    48    49    1
     2    53    52    1
     3    28    29    1
     4    93    92    2
     5    49    52    1
     6    49    50    1
     7    38    39    2
     8    38    37    1
     9    52    54    1
    10    29    30    1
    11    29    32    1
    12    92    91    1
    13    30    36   am
    14    30    31    2
    15    36    37    1
    16    50    51    2
    17    41    42    1
    18    37    40    1
    19    43    44    2
    20    43    42    1
    21    96    95    2
    22    32    33    1
    23    95    97   am
    24    95    94    1
    25    42    45    1
    26    91    94    1
    27    91    90    1
    28    34    33    1
    29    46    45    1
    30    33    35    1
    31    45    47    1
    32    68    67    1
    33    14    13    1
    34    69    67    1
    35    15    13    1
    36    67    66    1
    37    13    12    1
    38    55    56    1
    39    60    59    1
    40    75    74    1
    41    66    63    1
    42    12     9    1
    43    56    59    1
    44    56    57    1
    45    74    71    1
    46    74    76    1
    47    59    61    1
    48    73    72    2
    49    71    72    1
    50    71    70    1
    51     7     5    1
    52    63    62    1
    53    63    64    1
    54    72    77   am
    55     9     8    1
    56     9    10    1
    57    57    58    2
    58     8     3   am
    59     5     6    1
    60     5     2    1
    61    64    65    2
    62     3     4    2
    63     3     2    1
    64    10    11    2
    65    27    24    1
    66    77    78    1
    67     2     1    1
    68    81    78    1
    69    81    82    1
    70    78    79    1
    71    24    25    1
    72    24    23    1
    73    26    25    2
    74    23    18   am
    75    79    80    2
    76    20    21    1
    77    20    22    1
    78    20    17    1
    79    18    17    1
    80    18    19    2
    81    16    17    1
    82    89    88    1
    83    89    83    1
    84    88    87    1
    85    83    84    1
    86    85    84    1
    87    85    86    2
    88    87    84    1
