@<TRIPOS>MOLECULE
tmp/4kubA00.pdb
 180 174 0 0 0
SMALL
GASTEIGER

@<TRIPOS>ATOM
      1  N         16.4600  -12.9460    2.7470 N.3    21  PRO21      -0.2116
      2  CA        17.1700  -11.6420    2.9350 C.3    21  PRO21       0.1372
      3  C         17.4920  -11.4700    4.4230 C.2    21  PRO21       0.2244
      4  O         16.6030  -11.5360    5.3010 O.2    21  PRO21      -0.2868
      5  CB        16.1350  -10.6070    2.4940 C.3    21  PRO21       0.0268
      6  CG        15.2090  -11.3730    1.5640 C.3    21  PRO21       0.0207
      7  CD        15.1170  -12.7410    2.1700 C.3    21  PRO21       0.0892
      8  N         20.1090   -6.4050    2.0890 N.3    26  GLU26      -0.1245
      9  CA        19.8340   -7.5050    1.1830 C.3    26  GLU26       0.1567
     10  C         18.4710   -7.4050    0.6270 C.2    26  GLU26       0.2260
     11  O         18.2720   -7.7290   -0.5760 O.2    26  GLU26      -0.2867
     12  CB        20.0140   -8.8730    1.8050 C.3    26  GLU26       0.0388
     13  CG        21.4290   -9.1530    2.2590 C.3    26  GLU26       0.1160
     14  CD        21.6650  -10.5940    2.5920 C.2    26  GLU26       0.3649
     15  OE1       20.7170  -11.4010    2.6770 O.co2  26  GLU26      -0.2457
     16  OE2       22.8650  -10.8650    2.8950 O.co2  26  GLU26      -0.2457
     17  N         18.3880   -4.7500   -2.0560 N.3    29  TYR29      -0.1227
     18  CA        19.1090   -5.1350   -3.2660 C.3    29  TYR29       0.1736
     19  C         18.2680   -5.9310   -4.2090 C.2    29  TYR29       0.2595
     20  O         18.4130   -5.8270   -5.4550 O.2    29  TYR29      -0.2718
     21  CB        20.3720   -5.9580   -2.9490 C.3    29  TYR29       0.0548
     22  CG        21.4310   -5.2450   -2.1500 C.ar   29  TYR29      -0.0200
     23  CD1       21.5520   -3.8800   -2.1530 C.ar   29  TYR29      -0.0009
     24  CD2       22.3840   -6.0120   -1.4820 C.ar   29  TYR29      -0.0009
     25  CE1       22.5330   -3.2340   -1.4420 C.ar   29  TYR29       0.0417
     26  CE2       23.3830   -5.4080   -0.7980 C.ar   29  TYR29       0.0417
     27  CZ        23.4420   -4.0220   -0.7600 C.ar   29  TYR29       0.1957
     28  OH        24.4580   -3.4470   -0.0420 O.3    29  TYR29      -0.2866
     29  N         17.4500   -6.8270   -3.6690 N.am   30  CYS30      -0.1970
     30  CA        16.7130   -7.7800   -4.5170 C.3    30  CYS30       0.1712
     31  C         15.2480   -7.4290   -4.6890 C.2    30  CYS30       0.2296
     32  O         14.5370   -8.0490   -5.5220 O.2    30  CYS30      -0.2864
     33  CB        16.9190   -9.2480   -3.9760 C.3    30  CYS30       0.0983
     34  SG        16.0430   -9.5550   -2.4450 S.3    30  CYS30      -0.0798
     35  N         16.2750  -11.9790   -7.1070 N.3    82  MET82      -0.1230
     36  CA        17.2880  -13.0080   -7.0490 C.3    82  MET82       0.1702
     37  C         17.8350  -13.1470   -5.6480 C.2    82  MET82       0.2592
     38  O         18.4660  -12.2490   -5.1370 O.2    82  MET82      -0.2718
     39  CB        18.4370  -12.6760   -8.0230 C.3    82  MET82       0.0401
     40  CG        19.6060  -13.7020   -8.0410 C.3    82  MET82       0.0596
     41  SD        19.2700  -15.2760   -8.7510 S.3    82  MET82      -0.1393
     42  CE        19.1660  -16.3580   -7.3570 C.3    82  MET82       0.0692
     43  N         17.5780  -14.2810   -5.0040 N.am   83  MET83      -0.1965
     44  CA        17.9570  -14.4580   -3.6100 C.3    83  MET83       0.1736
     45  C         18.3070  -15.9100   -3.3400 C.2    83  MET83       0.2616
     46  O         17.6590  -16.8280   -3.8590 O.2    83  MET83      -0.2715
     47  CB        16.8990  -13.9200   -2.6690 C.3    83  MET83       0.0427
     48  CG        15.5350  -14.3800   -2.8850 C.3    83  MET83       0.0599
     49  SD        14.2410  -13.5550   -1.7570 S.3    83  MET83      -0.1393
     50  CE        13.4820  -12.4840   -2.9230 C.3    83  MET83       0.0692
     51  N         19.2880  -16.0800   -2.4380 N.am   84  VAL84      -0.1977
     52  CA        19.8300  -17.3700   -2.1030 C.3    84  VAL84       0.1596
     53  C         19.9030  -17.4740   -0.6060 C.2    84  VAL84       0.2287
     54  O         20.2610  -16.5400    0.1330 O.2    84  VAL84      -0.2864
     55  CB        21.2400  -17.5770   -2.7160 C.3    84  VAL84       0.0276
     56  CG1       21.9470  -18.8440   -2.2760 C.3    84  VAL84       0.0022
     57  CG2       21.1250  -17.6050   -4.2820 C.3    84  VAL84       0.0022
     58  N         25.1700  -19.8210    0.2560 N.3    89  ARG89      -0.1231
     59  CA        25.8050  -18.8490   -0.6310 C.3    89  ARG89       0.1694
     60  C         27.2260  -19.2070   -1.0880 C.2    89  ARG89       0.2593
     61  O         27.9480  -19.8570   -0.3640 O.2    89  ARG89      -0.2718
     62  CB        25.7340  -17.4660   -0.0180 C.3    89  ARG89       0.0321
     63  CG        24.3440  -16.8860   -0.1950 C.3    89  ARG89       0.0489
     64  CD        24.1790  -15.5870    0.5160 C.3    89  ARG89       0.2205
     65  NE        22.7820  -15.2560    0.6820 N.pl3  89  ARG89      -0.0865
     66  CZ        22.3740  -14.1910    1.3410 C.cat  89  ARG89       0.5346
     67  NH1       23.2630  -13.3780    1.8720 N.pl3  89  ARG89       0.1354
     68  NH2       21.0910  -13.9450    1.4690 N.pl3  89  ARG89       0.1354
     69  N         27.6130  -18.7820   -2.2880 N.am   90  GLY90      -0.1942
     70  CA        28.9160  -19.1170   -2.7900 C.3    90  GLY90       0.2014
     71  C         29.1160  -20.5160   -3.3110 C.2    90  GLY90       0.2639
     72  O         30.2810  -20.9190   -3.5220 O.2    90  GLY90      -0.2714
     73  N         28.0250  -21.2480   -3.5110 N.am   91  LEU91      -0.1963
     74  CA        28.0550  -22.6460   -3.9710 C.3    91  LEU91       0.1728
     75  C         27.5570  -22.7980   -5.3980 C.2    91  LEU91       0.2617
     76  O         27.4230  -23.9110   -5.8890 O.2    91  LEU91      -0.2715
     77  CB        27.1970  -23.5040   -3.0550 C.3    91  LEU91       0.0311
     78  CG        27.6360  -23.4210   -1.6060 C.3    91  LEU91       0.0022
     79  CD1       26.6710  -24.2930   -0.8260 C.3    91  LEU91       0.0001
     80  CD2       29.0800  -23.8040   -1.4160 C.3    91  LEU91       0.0001
     81  N         27.2760  -21.6970   -6.0790 N.am   92  GLY92      -0.1940
     82  CA        26.7730  -21.7680   -7.4390 C.3    92  GLY92       0.2014
     83  C         25.2920  -21.7600   -7.6340 C.2    92  GLY92       0.2639
     84  O         24.8340  -22.0120   -8.7720 O.2    92  GLY92      -0.2714
     85  N         24.5370  -21.5120   -6.5570 N.am   93  VAL93      -0.1963
     86  CA        23.0700  -21.5380   -6.6750 C.3    93  VAL93       0.1727
     87  C         22.5940  -20.4280   -7.5950 C.2    93  VAL93       0.2616
     88  O         21.7630  -20.6930   -8.5000 O.2    93  VAL93      -0.2715
     89  CB        22.3970  -21.4720   -5.2790 C.3    93  VAL93       0.0290
     90  CG1       20.8790  -21.4070   -5.4520 C.3    93  VAL93       0.0023
     91  CG2       22.8040  -22.6520   -4.4750 C.3    93  VAL93       0.0023
     92  N         23.0740  -19.2140   -7.4260 N.am   94  ALA94      -0.1963
     93  CA        22.6050  -18.0920   -8.2880 C.3    94  ALA94       0.1728
     94  C         23.0780  -18.3340   -9.6920 C.2    94  ALA94       0.2616
     95  O         22.2980  -18.1230  -10.6280 O.2    94  ALA94      -0.2715
     96  CB        23.0780  -16.7380   -7.7860 C.3    94  ALA94       0.0334
     97  N         24.3180  -18.7820   -9.8660 N.am   95  ARG95      -0.1977
     98  CA        24.7650  -19.0490  -11.2200 C.3    95  ARG95       0.1597
     99  C         23.8310  -20.0650  -11.9960 C.2    95  ARG95       0.2287
    100  O         23.4830  -19.8890  -13.2010 O.2    95  ARG95      -0.2864
    101  CB        26.2380  -19.5250  -11.1980 C.3    95  ARG95       0.0334
    102  CG        26.7200  -20.0450  -12.5540 C.3    95  ARG95       0.0492
    103  CD        28.0830  -20.7420  -12.4570 C.3    95  ARG95       0.2205
    104  NE        29.1220  -19.8480  -11.9810 N.pl3  95  ARG95      -0.0865
    105  CZ        29.9700  -19.1600  -12.7670 C.cat  95  ARG95       0.5346
    106  NH1       29.9240  -19.2150  -14.1160 N.pl3  95  ARG95       0.1354
    107  NH2       30.8860  -18.4110  -12.1860 N.pl3  95  ARG95       0.1354
    108  N         21.4980   -3.7000  -10.6580 N.3   118  CYS118     -0.1235
    109  CA        22.1760   -4.0920   -9.4310 C.3   118  CYS118      0.1677
    110  C         22.5480   -2.7990   -8.7260 C.2   118  CYS118      0.2270
    111  O         23.1810   -1.9120   -9.3330 O.2   118  CYS118     -0.2867
    112  CB        23.3450   -5.0030   -9.7000 C.3   118  CYS118      0.0956
    113  SG        24.1140   -5.5880   -8.2200 S.3   118  CYS118     -0.0801
    114  N         26.1100   -3.4880   -3.7170 N.3   122  ASN122     -0.1225
    115  CA        26.0220   -4.9320   -3.7920 C.3   122  ASN122      0.1785
    116  C         27.1320   -5.5230   -4.6670 C.2   122  ASN122      0.2597
    117  O         26.9230   -5.9160   -5.8350 O.2   122  ASN122     -0.2718
    118  CB        24.6730   -5.3120   -4.4080 C.3   122  ASN122      0.1169
    119  CG        24.3450   -6.7660   -4.2570 C.2   122  ASN122      0.2627
    120  OD1       25.1390   -7.5730   -3.7670 O.2   122  ASN122     -0.2716
    121  ND2       23.2040   -7.1390   -4.8130 N.am  122  ASN122     -0.0877
    122  N         28.3440   -5.5130   -4.1170 N.am  123  ALA123     -0.1966
    123  CA        29.4960   -6.0290   -4.8780 C.3   123  ALA123      0.1728
    124  C         29.3020   -7.4560   -5.3230 C.2   123  ALA123      0.2616
    125  O         29.6580   -7.8110   -6.4140 O.2   123  ALA123     -0.2715
    126  CB        30.7720   -5.8910   -4.1010 C.3   123  ALA123      0.0334
    127  N         28.7370   -8.2920   -4.4590 N.am  124  ALA124     -0.1963
    128  CA        28.5150   -9.7010   -4.8430 C.3   124  ALA124      0.1728
    129  C         27.6160   -9.8440   -6.0850 C.2   124  ALA124      0.2616
    130  O         27.9480  -10.6330   -6.9320 O.2   124  ALA124     -0.2715
    131  CB        27.9310  -10.4700   -3.6770 C.3   124  ALA124      0.0334
    132  N         26.5730   -9.0320   -6.1350 N.am  125  GLY125     -0.1955
    133  CA        25.6650   -8.9580   -7.2910 C.3   125  GLY125      0.1869
    134  C         26.4260   -8.5210   -8.5400 C.2   125  GLY125      0.2309
    135  O         26.3470   -9.1060   -9.6060 O.2   125  GLY125     -0.2863
    136  N         29.6340   -8.5280   -9.2220 N.3   127  LEU127     -0.1231
    137  CA        30.6050   -9.5360   -9.6560 C.3   127  LEU127      0.1693
    138  C         29.9400  -10.7900  -10.2270 C.2   127  LEU127      0.2592
    139  O         30.4800  -11.3560  -11.1620 O.2   127  LEU127     -0.2718
    140  CB        31.5790   -9.8580   -8.4590 C.3   127  LEU127      0.0284
    141  CG        32.4140   -8.6770   -7.9820 C.3   127  LEU127      0.0019
    142  CD1       33.1920   -9.0890   -6.7400 C.3   127  LEU127      0.0001
    143  CD2       33.3590   -8.2460   -9.0820 C.3   127  LEU127      0.0001
    144  N         28.7960  -11.1840   -9.6730 N.am  128  LEU128     -0.1966
    145  CA        27.9690  -12.3170  -10.1550 C.3   128  LEU128      0.1728
    146  C         27.6420  -12.0870  -11.6220 C.2   128  LEU128      0.2616
    147  O         28.0040  -12.9170  -12.4970 O.2   128  LEU128     -0.2715
    148  CB        26.6930  -12.3810   -9.2970 C.3   128  LEU128      0.0311
    149  CG        25.5400  -13.2990   -9.7730 C.3   128  LEU128      0.0022
    150  CD1       25.8850  -14.7370   -9.7630 C.3   128  LEU128      0.0001
    151  CD2       24.2770  -13.1050   -8.9450 C.3   128  LEU128      0.0001
    152  N         27.0230  -10.9730  -11.8980 N.am  129  TYR129     -0.1974
    153  CA        26.5360  -10.7790  -13.2560 C.3   129  TYR129      0.1639
    154  C         27.7120  -10.5500  -14.2100 C.2   129  TYR129      0.2290
    155  O         27.6810  -10.9990  -15.3530 O.2   129  TYR129     -0.2864
    156  CB        25.4940   -9.6500  -13.3060 C.3   129  TYR129      0.0560
    157  CG        24.1460  -10.1260  -12.7900 C.ar  129  TYR129     -0.0198
    158  CD1       23.4220  -11.0780  -13.4700 C.ar  129  TYR129     -0.0009
    159  CD2       23.6590   -9.6890  -11.5780 C.ar  129  TYR129     -0.0009
    160  CE1       22.2260  -11.5740  -12.9840 C.ar  129  TYR129      0.0417
    161  CE2       22.4610  -10.1720  -11.0820 C.ar  129  TYR129      0.0417
    162  CZ        21.7390  -11.0900  -11.7750 C.ar  129  TYR129      0.1957
    163  OH        20.5170  -11.6190  -11.3720 O.3   129  TYR129     -0.2866
    164  N         30.6200  -12.1090  -13.9660 N.3   131  GLN131     -0.1231
    165  CA        31.0990  -13.4420  -14.2050 C.3   131  GLN131      0.1698
    166  C         30.2310  -14.2030  -15.2170 C.2   131  GLN131      0.2592
    167  O         30.7500  -15.0050  -16.0140 O.2   131  GLN131     -0.2718
    168  CB        31.1080  -14.1750  -12.8430 C.3   131  GLN131      0.0381
    169  CG        31.5830  -15.5730  -12.9660 C.3   131  GLN131      0.0905
    170  CD        32.9920  -15.6440  -13.4870 C.2   131  GLN131      0.2608
    171  OE1       33.8740  -14.8940  -13.0150 O.2   131  GLN131     -0.2717
    172  NE2       33.2320  -16.5490  -14.4440 N.am  131  GLN131     -0.0878
    173  N         28.9520  -13.9170  -15.2330 N.am  132  LEU132     -0.1980
    174  CA        28.0160  -14.5760  -16.1270 C.3   132  LEU132      0.1596
    175  C         27.9200  -13.8520  -17.4540 C.2   132  LEU132      0.2287
    176  O         27.0800  -14.2790  -18.2630 O.2   132  LEU132     -0.2864
    177  CB        26.6590  -14.7080  -15.4560 C.3   132  LEU132      0.0297
    178  CG        26.5870  -15.5520  -14.1730 C.3   132  LEU132      0.0022
    179  CD1       25.1740  -15.5720  -13.7220 C.3   132  LEU132      0.0001
    180  CD2       27.1520  -16.9220  -14.3480 C.3   132  LEU132      0.0001
@<TRIPOS>BOND
     1   176   175    2
     2   175   174    1
     3   174   177    1
     4   174   173    1
     5   167   166    2
     6   177   178    1
     7   155   154    2
     8   173   166   am
     9   166   165    1
    10   172   170   am
    11   180   178    1
    12   154   153    1
    13   165   164    1
    14   165   168    1
    15   178   179    1
    16   106   105    1
    17   170   171    2
    18   170   169    1
    19   158   160   ar
    20   158   157   ar
    21   156   153    1
    22   156   157    1
    23   153   152    1
    24   100    99    2
    25   160   162   ar
    26   169   168    1
    27   157   159   ar
    28   105   107    1
    29   105   104    2
    30   102   103    1
    31   102   101    1
    32   147   146    2
    33   103   104    1
    34    99    98    1
    35   152   146   am
    36   162   163    1
    37   162   161   ar
    38   146   145    1
    39   159   161   ar
    40    98   101    1
    41    98    97    1
    42   139   138    2
    43   108   109    1
    44    95    94    2
    45   138   144   am
    46   138   137    1
    47   145   144    1
    48   145   148    1
    49    97    94   am
    50   149   150    1
    51   149   148    1
    52   149   151    1
    53   112   109    1
    54   112   113    1
    55    94    93    1
    56   137   136    1
    57   137   140    1
    58   135   134    2
    59   109   110    1
    60   111   110    2
    61   143   141    1
    62    84    83    2
    63    41    40    1
    64    41    42    1
    65   134   133    1
    66    88    87    2
    67   140   141    1
    68    93    96    1
    69    93    92    1
    70    40    39    1
    71    39    36    1
    72   141   142    1
    73    83    82    1
    74    83    85   am
    75    87    92   am
    76    87    86    1
    77    82    81    1
    78   133   132    1
    79    35    36    1
    80    36    37    1
    81   130   129    2
    82    86    85    1
    83    86    89    1
    84   125   124    2
    85   132   129   am
    86   129   128    1
    87    81    75   am
    88    76    75    2
    89   117   116    2
    90    37    38    2
    91    37    43   am
    92    32    31    2
    93    20    19    2
    94    90    89    1
    95    75    74    1
    96   124   123    1
    97   124   127   am
    98    89    91    1
    99    43    44    1
   100   123   122    1
   101   123   126    1
   102   128   127    1
   103   128   131    1
   104   121   119   am
   105    31    30    1
   106   116   122   am
   107   116   115    1
   108    30    33    1
   109    30    29    1
   110   118   119    1
   111   118   115    1
   112    57    55    1
   113   119   120    2
   114    19    29   am
   115    19    18    1
   116    33    34    1
   117    74    73    1
   118    74    77    1
   119    46    45    2
   120   115   114    1
   121    44    45    1
   122    44    47    1
   123    72    71    2
   124    73    71   am
   125    45    51   am
   126    71    70    1
   127    18    21    1
   128    18    17    1
   129    77    78    1
   130    21    22    1
   131    50    49    1
   132    48    47    1
   133    48    49    1
   134    70    69    1
   135    55    56    1
   136    55    52    1
   137    51    52    1
   138    69    60   am
   139    23    22   ar
   140    23    25   ar
   141    22    24   ar
   142    52    53    1
   143    78    80    1
   144    78    79    1
   145    24    26   ar
   146    25    27   ar
   147    60    59    1
   148    60    61    2
   149    26    27   ar
   150    27    28    1
   151    59    62    1
   152    59    58    1
   153    53    54    2
   154    11    10    2
   155    63    62    1
   156    63    64    1
   157    64    65    1
   158    10     9    1
   159    65    66    2
   160     9    12    1
   161     9     8    1
   162    66    68    1
   163    66    67    1
   164     6     7    1
   165     6     5    1
   166    12    13    1
   167     7     1    1
   168    13    14    1
   169     5     2    1
   170    14    15   ar
   171    14    16   ar
   172     1     2    1
   173     2     3    1
   174     3     4    2
