@<TRIPOS>MOLECULE
tmp/4kufA00.pdb
 94 92 0 0 0
SMALL
GASTEIGER

@<TRIPOS>ATOM
      1  N         15.1430   -1.8090   17.8850 N.3    98  ARG98      -0.1245
      2  CA        14.9160   -0.3710   17.6380 C.3    98  ARG98       0.1563
      3  C         15.6590    0.4950   18.6570 C.2    98  ARG98       0.2260
      4  O         16.3350    1.4720   18.2930 O.2    98  ARG98      -0.2867
      5  CB        13.4140   -0.0780   17.6750 C.3    98  ARG98       0.0307
      6  CG        13.0120    1.3880   17.4440 C.3    98  ARG98       0.0489
      7  CD        11.7180    1.4100   16.6680 C.3    98  ARG98       0.2205
      8  NE        11.0540    2.7090   16.7030 N.pl3  98  ARG98      -0.0865
      9  CZ        11.4160    3.7470   15.9620 C.cat  98  ARG98       0.5346
     10  NH1       12.4600    3.6520   15.1390 N.pl3  98  ARG98       0.1354
     11  NH2       10.7430    4.8880   16.0560 N.pl3  98  ARG98       0.1354
     12  N         19.4500    0.2990   18.1990 N.3   101  SER101     -0.1202
     13  CA        19.9090    0.8850   16.9380 C.3   101  SER101      0.2020
     14  C         20.2920    2.3530   17.0910 C.2   101  SER101      0.2619
     15  O         20.8490    2.9500   16.1710 O.2   101  SER101     -0.2717
     16  CB        18.8520    0.7380   15.8410 C.3   101  SER101      0.2103
     17  OG        18.7550   -0.6050   15.4030 O.3   101  SER101     -0.2182
     18  N         19.9750    2.9330   18.2490 N.am  102  THR102     -0.1952
     19  CA        20.3430    4.3220   18.5480 C.3   102  THR102      0.1897
     20  C         21.5420    4.3440   19.4720 C.2   102  THR102      0.2313
     21  O         21.7500    3.4060   20.2410 O.2   102  THR102     -0.2863
     22  CB        19.1890    5.1120   19.2160 C.3   102  THR102      0.1794
     23  OG1       18.9140    4.5770   20.5220 O.3   102  THR102     -0.2208
     24  CG2       17.9260    5.0810   18.3650 C.3   102  THR102      0.0378
     25  N         16.1070   10.8210   19.6700 N.3   357  PHE357     -0.1227
     26  CA        16.8280    9.8460   18.8630 C.3   357  PHE357      0.1736
     27  C         15.9190    9.0750   17.9250 C.2   357  PHE357      0.2595
     28  O         16.3440    8.6770   16.8310 O.2   357  PHE357     -0.2718
     29  CB        17.6000    8.8690   19.7490 C.3   357  PHE357      0.0547
     30  CG        18.9120    9.4080   20.2490 C.ar  357  PHE357     -0.0202
     31  CD1       18.9530   10.3140   21.3080 C.ar  357  PHE357     -0.0042
     32  CD2       20.1000    9.0070   19.6640 C.ar  357  PHE357     -0.0042
     33  CE1       20.1660   10.8110   21.7730 C.ar  357  PHE357     -0.0003
     34  CE2       21.3150    9.4960   20.1140 C.ar  357  PHE357     -0.0003
     35  CZ        21.3520   10.3980   21.1770 C.ar  357  PHE357     -0.0000
     36  N         14.6760    8.8530   18.3440 N.am  358  PHE358     -0.1962
     37  CA        13.7270    8.1250   17.5150 C.3   358  PHE358      0.1771
     38  C         13.0560    9.0280   16.4780 C.2   358  PHE358      0.2619
     39  O         12.4560    8.5270   15.5210 O.2   358  PHE358     -0.2715
     40  CB        12.6360    7.4630   18.3750 C.3   358  PHE358      0.0574
     41  CG        13.1140    6.2760   19.1730 C.ar  358  PHE358     -0.0200
     42  CD1       13.9640    5.3310   18.6100 C.ar  358  PHE358     -0.0042
     43  CD2       12.7060    6.1100   20.5000 C.ar  358  PHE358     -0.0042
     44  CE1       14.4010    4.2290   19.3560 C.ar  358  PHE358     -0.0003
     45  CE2       13.1410    5.0020   21.2550 C.ar  358  PHE358     -0.0003
     46  CZ        13.9880    4.0670   20.6710 C.ar  358  PHE358     -0.0000
     47  N         13.1300   10.3390   16.6960 N.am  359  LYS359     -0.1977
     48  CA        12.4080   11.3090   15.8670 C.3   359  LYS359      0.1596
     49  C         10.9220   10.9950   15.7740 C.2   359  LYS359      0.2287
     50  O         10.3360   10.9840   14.6730 O.2   359  LYS359     -0.2864
     51  CB        13.0360   11.4180   14.4740 C.3   359  LYS359      0.0298
     52  CG        14.4100   12.0990   14.5170 C.3   359  LYS359      0.0038
     53  CD        15.1080   12.0490   13.1580 C.3   359  LYS359      0.0206
     54  CE        15.8860   10.7520   12.9760 C.3   359  LYS359      0.1093
     55  NZ        15.2500    9.7740   12.0370 N.3   359  LYS359     -0.1314
     56  N         12.1810   -1.4470   12.6050 N.3   386  ILE386     -0.1231
     57  CA        13.2310   -1.1630   13.5630 C.3   386  ILE386      0.1692
     58  C         13.6950    0.2770   13.3730 C.2   386  ILE386      0.2592
     59  O         13.9180    0.9980   14.3380 O.2   386  ILE386     -0.2718
     60  CB        14.4110   -2.1450   13.3790 C.3   386  ILE386      0.0266
     61  CG1       14.0400   -3.5360   13.9030 C.3   386  ILE386      0.0019
     62  CG2       15.6700   -1.6530   14.0870 C.3   386  ILE386      0.0020
     63  CD1       15.0240   -4.6030   13.4980 C.3   386  ILE386      0.0001
     64  N         13.8230    0.7210   12.1280 N.am  387  TYR387     -0.1962
     65  CA        14.4030    2.0370   11.9040 C.3   387  TYR387      0.1771
     66  C         13.4200    3.1990   11.9660 C.2   387  TYR387      0.2619
     67  O         13.7810    4.2930   12.4070 O.2   387  TYR387     -0.2715
     68  CB        15.2060    2.0490   10.5980 C.3   387  TYR387      0.0574
     69  CG        16.5710    1.4730   10.8330 C.ar  387  TYR387     -0.0198
     70  CD1       17.5600    2.2340   11.4380 C.ar  387  TYR387     -0.0009
     71  CD2       16.8570    0.1570   10.5100 C.ar  387  TYR387     -0.0009
     72  CE1       18.8080    1.7090   11.6910 C.ar  387  TYR387      0.0417
     73  CE2       18.1020   -0.3790   10.7620 C.ar  387  TYR387      0.0417
     74  CZ        19.0720    0.4030   11.3520 C.ar  387  TYR387      0.1957
     75  OH        20.3200   -0.1170   11.6000 O.3   387  TYR387     -0.2866
     76  N         12.1760    2.9670   11.5560 N.am  388  ASP388     -0.1971
     77  CA        11.2560    4.0840   11.3920 C.3   388  ASP388      0.1709
     78  C         10.0630    4.0570   12.3380 C.2   388  ASP388      0.2293
     79  O          9.2840    5.0120   12.3730 O.2   388  ASP388     -0.2864
     80  CB        10.7570    4.1650    9.9370 C.3   388  ASP388      0.1436
     81  CG        11.8680    4.4810    8.9470 C.2   388  ASP388      0.3671
     82  OD1       12.8140    5.2130    9.3020 O.co2 388  ASP388     -0.2456
     83  OD2       11.7770    4.0060    7.7980 O.co2 388  ASP388     -0.2456
     84  N          9.5330    5.1160    5.9870 N.3   393  ARG393     -0.1245
     85  CA        10.1060    5.8010    4.8330 C.3   393  ARG393      0.1563
     86  C          9.4750    5.2770    3.5440 C.2   393  ARG393      0.2260
     87  O          9.0040    4.1310    3.4850 O.2   393  ARG393     -0.2867
     88  CB        11.6330    5.6420    4.8110 C.3   393  ARG393      0.0307
     89  CG        12.1180    4.2110    4.5390 C.3   393  ARG393      0.0489
     90  CD        13.6110    4.0900    4.7160 C.3   393  ARG393      0.2205
     91  NE        14.0040    4.3020    6.1070 N.pl3 393  ARG393     -0.0865
     92  CZ        15.2440    4.5660    6.5040 C.cat 393  ARG393      0.5346
     93  NH1       15.5080    4.7510    7.7890 N.pl3 393  ARG393      0.1354
     94  NH2       16.2230    4.6510    5.6170 N.pl3 393  ARG393      0.1354
@<TRIPOS>BOND
     1    87    86    2
     2    86    85    1
     3    89    90    1
     4    89    88    1
     5    90    91    1
     6    88    85    1
     7    85    84    1
     8    94    92    1
     9    91    92    2
    10    92    93    1
    11    83    81   ar
    12    81    82   ar
    13    81    80    1
    14    80    77    1
    15    71    73   ar
    16    71    69   ar
    17    68    69    1
    18    68    65    1
    19    73    74   ar
    20    69    70   ar
    21    74    75    1
    22    74    72   ar
    23    77    76    1
    24    77    78    1
    25    70    72   ar
    26    76    66   am
    27    65    66    1
    28    65    64    1
    29    66    67    2
    30    55    54    1
    31    64    58   am
    32    78    79    2
    33    56    57    1
    34    54    53    1
    35    53    52    1
    36    58    57    1
    37    58    59    2
    38    60    57    1
    39    60    61    1
    40    60    62    1
    41    63    61    1
    42    51    52    1
    43    51    48    1
    44    50    49    2
    45    10     9    1
    46    17    16    1
    47    39    38    2
    48    49    48    1
    49    16    13    1
    50    48    47    1
    51     9    11    1
    52     9     8    2
    53    15    14    2
    54    38    47   am
    55    38    37    1
    56     7     8    1
    57     7     6    1
    58    28    27    2
    59    13    14    1
    60    13    12    1
    61    14    18   am
    62     6     5    1
    63    37    36    1
    64    37    40    1
    65     2     5    1
    66     2     1    1
    67     2     3    1
    68    27    36   am
    69    27    26    1
    70    18    19    1
    71     4     3    2
    72    24    22    1
    73    40    41    1
    74    19    22    1
    75    19    20    1
    76    42    41   ar
    77    42    44   ar
    78    26    25    1
    79    26    29    1
    80    41    43   ar
    81    22    23    1
    82    44    46   ar
    83    20    21    2
    84    32    34   ar
    85    32    30   ar
    86    29    30    1
    87    34    35   ar
    88    30    31   ar
    89    43    45   ar
    90    46    45   ar
    91    35    33   ar
    92    31    33   ar
