@<TRIPOS>MOLECULE
tmp/4kugD00.pdb
 225 217 0 0 0
SMALL
GASTEIGER

@<TRIPOS>ATOM
      1  N        -27.1500  -10.9880  -75.5850 N.3     7  LEU7       -0.1231
      2  CA       -25.9630  -11.0310  -76.4530 C.3     7  LEU7        0.1693
      3  C        -24.9560  -11.9620  -75.8640 C.2     7  LEU7        0.2593
      4  O        -24.4740  -11.7020  -74.7690 O.2     7  LEU7       -0.2718
      5  CB       -25.2760   -9.6840  -76.5630 C.3     7  LEU7        0.0284
      6  CG       -26.0430   -8.6470  -77.3920 C.3     7  LEU7        0.0019
      7  CD1      -27.0080   -7.8430  -76.5240 C.3     7  LEU7        0.0001
      8  CD2      -25.0770   -7.7330  -78.1110 C.3     7  LEU7        0.0001
      9  N        -24.6410  -13.0440  -76.5760 N.am    8  GLY8       -0.1942
     10  CA       -23.5400  -13.9250  -76.2130 C.3     8  GLY8        0.2014
     11  C        -24.0500  -15.3120  -75.9220 C.2     8  GLY8        0.2639
     12  O        -25.0550  -15.4620  -75.2460 O.2     8  GLY8       -0.2714
     13  N        -23.3710  -16.3300  -76.4390 N.am    9  ALA9       -0.1963
     14  CA       -23.9060  -17.7080  -76.3970 C.3     9  ALA9        0.1728
     15  C        -23.0580  -18.6500  -75.5440 C.2     9  ALA9        0.2617
     16  O        -23.2690  -19.8790  -75.5460 O.2     9  ALA9       -0.2715
     17  CB       -24.0220  -18.2510  -77.8100 C.3     9  ALA9        0.0334
     18  N        -22.1020  -18.0660  -74.8180 N.am   10  GLY10      -0.1940
     19  CA       -21.1220  -18.8300  -74.0830 C.3    10  GLY10       0.2014
     20  C        -21.7250  -19.2740  -72.7910 C.2    10  GLY10       0.2640
     21  O        -22.9400  -19.2200  -72.6240 O.2    10  GLY10      -0.2714
     22  N        -20.8710  -19.7070  -71.8740 N.am   11  THR11      -0.1936
     23  CA       -21.3200  -20.2280  -70.5960 C.3    11  THR11       0.2028
     24  C        -22.4580  -19.3890  -70.0320 C.2    11  THR11       0.2642
     25  O        -23.5320  -19.8960  -69.7620 O.2    11  THR11      -0.2714
     26  CB       -20.1590  -20.2560  -69.5850 C.3    11  THR11       0.1808
     27  OG1      -19.0650  -20.9970  -70.1490 O.3    11  THR11      -0.2208
     28  CG2      -20.6050  -20.8830  -68.2320 C.3    11  THR11       0.0379
     29  N        -22.2380  -18.0940  -69.8960 N.am   12  MET12      -0.1962
     30  CA       -23.1700  -17.2970  -69.1140 C.3    12  MET12       0.1736
     31  C        -24.3670  -16.8940  -69.9380 C.2    12  MET12       0.2617
     32  O        -25.5020  -17.0910  -69.5010 O.2    12  MET12      -0.2715
     33  CB       -22.4910  -16.0410  -68.5340 C.3    12  MET12       0.0427
     34  CG       -21.5050  -16.3140  -67.4050 C.3    12  MET12       0.0599
     35  SD       -22.1920  -17.2720  -66.0390 S.3    12  MET12      -0.1393
     36  CE       -23.3290  -16.0820  -65.3600 C.3    12  MET12       0.0692
     37  N        -24.1160  -16.3130  -71.1150 N.am   13  GLY13      -0.1955
     38  CA       -25.1910  -16.0330  -72.0570 C.3    13  GLY13       0.1869
     39  C        -26.2210  -17.1610  -72.1230 C.2    13  GLY13       0.2309
     40  O        -27.4050  -16.9070  -71.9770 O.2    13  GLY13      -0.2863
     41  N        -28.3090  -13.6300  -79.5100 N.3    30  ARG30      -0.1231
     42  CA       -27.4330  -13.1820  -80.5690 C.3    30  ARG30       0.1694
     43  C        -25.9680  -13.5440  -80.2930 C.2    30  ARG30       0.2592
     44  O        -25.4490  -13.2830  -79.2020 O.2    30  ARG30      -0.2718
     45  CB       -27.6100  -11.6600  -80.6980 C.3    30  ARG30       0.0321
     46  CG       -27.1310  -11.0110  -81.9910 C.3    30  ARG30       0.0489
     47  CD       -25.6280  -10.9370  -82.1070 C.3    30  ARG30       0.2205
     48  NE       -25.1580   -9.8770  -83.0090 N.pl3  30  ARG30      -0.0865
     49  CZ       -23.9020   -9.4050  -83.0410 C.cat  30  ARG30       0.5346
     50  NH1      -22.9790   -9.8980  -82.2310 N.pl3  30  ARG30       0.1354
     51  NH2      -23.5530   -8.4260  -83.8740 N.pl3  30  ARG30       0.1354
     52  N        -25.3070  -14.1600  -81.2710 N.am   31  ASP31      -0.1960
     53  CA       -23.8370  -14.2410  -81.2740 C.3    31  ASP31       0.1840
     54  C        -23.2420  -13.7980  -82.6430 C.2    31  ASP31       0.2621
     55  O        -23.9690  -13.3280  -83.5290 O.2    31  ASP31      -0.2715
     56  CB       -23.3740  -15.6400  -80.8700 C.3    31  ASP31       0.1450
     57  CG       -22.0460  -15.6280  -80.0720 C.2    31  ASP31       0.3671
     58  OD1      -21.0300  -15.1250  -80.5800 O.co2  31  ASP31      -0.2456
     59  OD2      -22.0110  -16.1410  -78.9380 O.co2  31  ASP31      -0.2456
     60  N        -21.9250  -13.9180  -82.8020 N.am   32  ILE32      -0.1977
     61  CA       -21.2220  -13.3090  -83.9370 C.3    32  ILE32       0.1596
     62  C        -21.1760  -14.2430  -85.1440 C.2    32  ILE32       0.2287
     63  O        -21.1060  -13.7820  -86.2790 O.2    32  ILE32      -0.2864
     64  CB       -19.7530  -12.9470  -83.6120 C.3    32  ILE32       0.0276
     65  CG1      -19.6110  -12.3080  -82.2370 C.3    32  ILE32       0.0022
     66  CG2      -19.1770  -11.9980  -84.6650 C.3    32  ILE32       0.0022
     67  CD1      -18.2580  -12.5950  -81.6220 C.3    32  ILE32       0.0001
     68  N        -21.5520  -20.2450  -83.1900 N.3    36  PHE36      -0.1241
     69  CA       -21.6230  -19.8690  -81.7710 C.3    36  PHE36       0.1605
     70  C        -23.0680  -19.9980  -81.3020 C.2    36  PHE36       0.2264
     71  O        -23.3420  -20.6430  -80.2970 O.2    36  PHE36      -0.2867
     72  CB       -21.1090  -18.4540  -81.5200 C.3    36  PHE36       0.0534
     73  CG       -19.7040  -18.2230  -81.9950 C.ar   36  PHE36      -0.0203
     74  CD1      -18.7750  -19.2530  -82.0160 C.ar   36  PHE36      -0.0042
     75  CD2      -19.2970  -16.9510  -82.4100 C.ar   36  PHE36      -0.0042
     76  CE1      -17.4740  -19.0190  -82.4720 C.ar   36  PHE36      -0.0003
     77  CE2      -18.0020  -16.7120  -82.8690 C.ar   36  PHE36      -0.0003
     78  CZ       -17.0880  -17.7470  -82.9010 C.ar   36  PHE36      -0.0000
     79  N        -23.9030  -23.5400  -80.6980 N.3    39  ARG39      -0.1245
     80  CA       -23.2320  -24.0660  -79.5120 C.3    39  ARG39       0.1563
     81  C        -24.1160  -23.7560  -78.3580 C.2    39  ARG39       0.2260
     82  O        -24.5430  -24.6360  -77.6300 O.2    39  ARG39      -0.2867
     83  CB       -21.8800  -23.3890  -79.2680 C.3    39  ARG39       0.0307
     84  CG       -20.6940  -23.9950  -79.9960 C.3    39  ARG39       0.0489
     85  CD       -19.3800  -23.5250  -79.3770 C.3    39  ARG39       0.2205
     86  NE       -18.3370  -23.3370  -80.3920 N.pl3  39  ARG39      -0.0865
     87  CZ       -17.2910  -22.5120  -80.2850 C.cat  39  ARG39       0.5346
     88  NH1      -17.1150  -21.7700  -79.1930 N.pl3  39  ARG39       0.1354
     89  NH2      -16.4090  -22.4200  -81.2830 N.pl3  39  ARG39       0.1354
     90  N        -28.4510   -8.1380  -84.7360 N.3    75  MET75      -0.1245
     91  CA       -28.7330   -7.3000  -83.5700 C.3    75  MET75       0.1570
     92  C        -30.0340   -6.5220  -83.6650 C.2    75  MET75       0.2261
     93  O        -30.5740   -6.0950  -82.6310 O.2    75  MET75      -0.2867
     94  CB       -27.5870   -6.3340  -83.3050 C.3    75  MET75       0.0387
     95  CG       -26.4790   -6.9210  -82.4520 C.3    75  MET75       0.0595
     96  SD       -25.9880   -5.6940  -81.2570 S.3    75  MET75      -0.1393
     97  CE       -24.2860   -6.2160  -81.0820 C.3    75  MET75       0.0692
     98  N        -23.9820  -10.4670  -72.2800 N.3    87  ALA87      -0.1231
     99  CA       -23.0040  -11.3540  -71.6750 C.3    87  ALA87       0.1694
    100  C        -21.9520  -11.6960  -72.7210 C.2    87  ALA87       0.2592
    101  O        -21.5980  -12.8610  -72.9240 O.2    87  ALA87      -0.2718
    102  CB       -23.6700  -12.5960  -71.1370 C.3    87  ALA87       0.0304
    103  N        -21.4650  -10.6620  -73.3950 N.am   88  ALA88      -0.1966
    104  CA       -20.3590  -10.8040  -74.3190 C.3    88  ALA88       0.1728
    105  C        -19.0600  -10.7470  -73.5530 C.2    88  ALA88       0.2616
    106  O        -19.0520  -10.7310  -72.3230 O.2    88  ALA88      -0.2715
    107  CB       -20.3970   -9.7170  -75.3870 C.3    88  ALA88       0.0334
    108  N        -17.9510  -10.7340  -74.2760 N.am   89  ILE89      -0.1963
    109  CA       -16.6790  -10.8410  -73.6090 C.3    89  ILE89       0.1727
    110  C        -16.3960   -9.6140  -72.7660 C.2    89  ILE89       0.2616
    111  O        -16.9020   -8.5160  -72.9980 O.2    89  ILE89      -0.2715
    112  CB       -15.4860  -11.1260  -74.5500 C.3    89  ILE89       0.0290
    113  CG1      -15.2930  -10.0130  -75.5840 C.3    89  ILE89       0.0022
    114  CG2      -15.6500  -12.5000  -75.1880 C.3    89  ILE89       0.0023
    115  CD1      -13.8720   -9.9860  -76.1110 C.3    89  ILE89       0.0001
    116  N        -15.5560   -9.8560  -71.7790 N.am   90  GLU90      -0.1977
    117  CA       -15.1750   -8.8620  -70.8400 C.3    90  GLU90       0.1602
    118  C        -14.1100   -7.9750  -71.5050 C.2    90  GLU90       0.2287
    119  O        -12.9290   -8.1890  -71.3160 O.2    90  GLU90      -0.2864
    120  CB       -14.7050   -9.6100  -69.5650 C.3    90  GLU90       0.0415
    121  CG       -14.6030   -8.8020  -68.2750 C.3    90  GLU90       0.1163
    122  CD       -15.9370   -8.4560  -67.6360 C.2    90  GLU90       0.3649
    123  OE1      -16.9140   -8.2360  -68.3900 O.co2  90  GLU90      -0.2457
    124  OE2      -16.0020   -8.3630  -66.3660 O.co2  90  GLU90      -0.2457
    125  N        -15.1850   -2.9150  -76.4990 N.3    94  ILE94      -0.1231
    126  CA       -16.2360   -3.6620  -77.1650 C.3    94  ILE94       0.1692
    127  C        -17.6030   -3.3490  -76.5920 C.2    94  ILE94       0.2591
    128  O        -18.4920   -2.8890  -77.3160 O.2    94  ILE94      -0.2718
    129  CB       -16.0000   -5.1690  -77.0670 C.3    94  ILE94       0.0266
    130  CG1      -14.8260   -5.5950  -77.9490 C.3    94  ILE94       0.0019
    131  CG2      -17.2410   -5.9350  -77.4940 C.3    94  ILE94       0.0020
    132  CD1      -14.5070   -7.0830  -77.8220 C.3    94  ILE94       0.0001
    133  N        -17.7740   -3.6170  -75.2940 N.am   95  LYS95      -0.1980
    134  CA       -19.0310   -3.3380  -74.6110 C.3    95  LYS95       0.1596
    135  C        -19.5560   -1.9400  -74.8750 C.2    95  LYS95       0.2287
    136  O        -20.7610   -1.7340  -75.0440 O.2    95  LYS95      -0.2864
    137  CB       -18.8960   -3.5190  -73.1050 C.3    95  LYS95       0.0298
    138  CG       -18.9920   -4.9640  -72.6460 C.3    95  LYS95       0.0038
    139  CD       -18.9780   -5.0930  -71.1210 C.3    95  LYS95       0.0206
    140  CE       -18.3230   -6.3870  -70.6420 C.3    95  LYS95       0.1093
    141  NZ       -19.0040   -7.6600  -71.0000 N.3    95  LYS95      -0.1314
    142  N        -20.8270   -2.0680  -78.5390 N.3    98  ILE98      -0.1245
    143  CA       -22.0900   -2.7920  -78.4270 C.3    98  ILE98       0.1561
    144  C        -23.2230   -1.9470  -77.8570 C.2    98  ILE98       0.2260
    145  O        -24.3430   -1.9220  -78.3990 O.2    98  ILE98      -0.2867
    146  CB       -21.8860   -4.0280  -77.5340 C.3    98  ILE98       0.0252
    147  CG1      -21.1320   -5.1030  -78.3110 C.3    98  ILE98       0.0019
    148  CG2      -23.2070   -4.5530  -76.9670 C.3    98  ILE98       0.0019
    149  CD1      -20.8550   -6.3740  -77.5170 C.3    98  ILE98       0.0001
    150  N        -23.8440   -8.0210  -67.8250 N.3   115  ASN115     -0.1225
    151  CA       -23.5380   -9.1030  -66.9090 C.3   115  ASN115      0.1785
    152  C        -22.0420   -9.0380  -66.5290 C.2   115  ASN115      0.2598
    153  O        -21.5080   -9.9800  -66.0020 O.2   115  ASN115     -0.2718
    154  CB       -23.8920  -10.4180  -67.6160 C.3   115  ASN115      0.1169
    155  CG       -23.7030  -11.6640  -66.7580 C.2   115  ASN115      0.2627
    156  OD1      -24.3120  -11.8270  -65.7070 O.2   115  ASN115     -0.2716
    157  ND2      -22.8840  -12.5820  -67.2500 N.am  115  ASN115     -0.0877
    158  N        -21.3620   -7.9280  -66.7980 N.am  116  THR116     -0.1939
    159  CA       -19.9360   -7.8670  -66.4850 C.3   116  THR116      0.2028
    160  C        -19.7200   -8.0220  -64.9750 C.2   116  THR116      0.2642
    161  O        -20.4830   -7.4680  -64.1460 O.2   116  THR116     -0.2714
    162  CB       -19.2780   -6.5370  -66.9190 C.3   116  THR116      0.1808
    163  OG1      -17.8860   -6.5490  -66.5970 O.3   116  THR116     -0.2208
    164  CG2      -19.8940   -5.3270  -66.1950 C.3   116  THR116      0.0379
    165  N        -18.6680   -8.7810  -64.6520 N.am  117  SER117     -0.1949
    166  CA       -18.1810   -8.9160  -63.2830 C.3   117  SER117      0.1924
    167  C        -17.2480   -7.7920  -62.8510 C.2   117  SER117      0.2314
    168  O        -17.2560   -7.3980  -61.6980 O.2   117  SER117     -0.2863
    169  CB       -17.4650  -10.2510  -63.0810 C.3   117  SER117      0.2116
    170  OG       -18.4350  -11.2580  -63.0950 O.3   117  SER117     -0.2180
    171  N        -25.8900   -8.9100  -62.8610 N.3   138  HIS138     -0.1226
    172  CA       -24.7760   -9.8750  -62.7090 C.3   138  HIS138      0.1752
    173  C        -25.2410  -11.2300  -62.1760 C.2   138  HIS138      0.2596
    174  O        -25.6170  -11.3610  -61.0130 O.2   138  HIS138     -0.2718
    175  CB       -23.7410   -9.2310  -61.7620 C.3   138  HIS138      0.0759
    176  CG       -22.4770  -10.0010  -61.5590 C.ar  138  HIS138      0.0818
    177  ND1      -22.0570  -10.4020  -60.3070 N.ar  138  HIS138     -0.2268
    178  CD2      -21.4910  -10.3560  -62.4150 C.ar  138  HIS138      0.1154
    179  CE1      -20.8830  -11.0020  -60.4060 C.ar  138  HIS138      0.1986
    180  NE2      -20.5230  -10.9970  -61.6760 N.ar  138  HIS138     -0.2212
    181  N        -25.2140  -12.2440  -63.0270 N.am  139  PHE139     -0.1962
    182  CA       -25.6610  -13.5840  -62.6370 C.3   139  PHE139      0.1771
    183  C        -24.4650  -14.4150  -62.1320 C.2   139  PHE139      0.2620
    184  O        -23.3220  -14.0050  -62.2810 O.2   139  PHE139     -0.2715
    185  CB       -26.3380  -14.2960  -63.8280 C.3   139  PHE139      0.0574
    186  CG       -27.7020  -13.7200  -64.2240 C.ar  139  PHE139     -0.0200
    187  CD1      -27.7940  -12.5960  -65.0230 C.ar  139  PHE139     -0.0042
    188  CD2      -28.8810  -14.3610  -63.8470 C.ar  139  PHE139     -0.0042
    189  CE1      -29.0390  -12.0890  -65.4040 C.ar  139  PHE139     -0.0003
    190  CE2      -30.1270  -13.8550  -64.2160 C.ar  139  PHE139     -0.0003
    191  CZ       -30.2080  -12.7130  -65.0000 C.ar  139  PHE139     -0.0000
    192  N        -24.7530  -15.5700  -61.5420 N.am  140  PHE140     -0.1960
    193  CA       -23.7430  -16.4510  -60.9810 C.3   140  PHE140      0.1771
    194  C        -23.8160  -17.7640  -61.6660 C.2   140  PHE140      0.2619
    195  O        -24.8940  -18.2570  -61.9200 O.2   140  PHE140     -0.2715
    196  CB       -23.9090  -16.5800  -59.4580 C.3   140  PHE140      0.0574
    197  CG       -23.5890  -15.3180  -58.7990 C.ar  140  PHE140     -0.0200
    198  CD1      -24.5330  -14.3040  -58.7840 C.ar  140  PHE140     -0.0042
    199  CD2      -22.2890  -15.0520  -58.4040 C.ar  140  PHE140     -0.0042
    200  CE1      -24.2170  -13.0640  -58.2860 C.ar  140  PHE140     -0.0003
    201  CE2      -21.9550  -13.8040  -57.9120 C.ar  140  PHE140     -0.0003
    202  CZ       -22.9180  -12.8080  -57.8510 C.ar  140  PHE140     -0.0000
    203  N        -22.6500  -18.2970  -62.0100 N.am  141  ASN141     -0.1972
    204  CA       -22.5720  -19.5490  -62.7480 C.3   141  ASN141      0.1688
    205  C        -22.9460  -20.7140  -61.8400 C.2   141  ASN141      0.2292
    206  O        -22.3780  -20.8180  -60.7800 O.2   141  ASN141     -0.2864
    207  CB       -21.1510  -19.7300  -63.2320 C.3   141  ASN141      0.1181
    208  CG       -20.9880  -20.9810  -64.0150 C.2   141  ASN141      0.2629
    209  OD1      -21.9360  -21.7400  -64.1900 O.2   141  ASN141     -0.2716
    210  ND2      -19.7910  -21.2030  -64.5150 N.am  141  ASN141     -0.0877
    211  N        -13.7130  -21.7900  -60.2290 N.3   233  ILE233     -0.1245
    212  CA       -13.9550  -20.5060  -60.8360 C.3   233  ILE233      0.1561
    213  C        -12.9530  -20.2670  -61.9460 C.2   233  ILE233      0.2260
    214  O        -13.2210  -19.5110  -62.8850 O.2   233  ILE233     -0.2867
    215  CB       -13.7930  -19.4100  -59.7740 C.3   233  ILE233      0.0252
    216  CG1      -14.8730  -19.5640  -58.7150 C.3   233  ILE233      0.0019
    217  CG2      -13.8080  -17.9980  -60.3660 C.3   233  ILE233      0.0019
    218  CD1      -14.5630  -18.7510  -57.4840 C.3   233  ILE233      0.0001
    219  N         -9.3180  -16.2240  -63.4140 N.3   237  VAL237     -0.1245
    220  CA       -10.4280  -15.3300  -63.1010 C.3   237  VAL237      0.1561
    221  C        -10.2510  -14.6640  -61.7170 C.2   237  VAL237      0.2260
    222  O        -10.2960  -13.4420  -61.5840 O.2   237  VAL237     -0.2867
    223  CB       -11.7500  -16.1220  -63.1800 C.3   237  VAL237      0.0252
    224  CG1      -12.9220  -15.2900  -62.6910 C.3   237  VAL237      0.0019
    225  CG2      -11.9680  -16.5980  -64.6160 C.3   237  VAL237      0.0019
@<TRIPOS>BOND
     1    63    62    2
     2    62    61    1
     3    90    91    1
     4    66    64    1
     5    61    64    1
     6    61    60    1
     7    51    49    1
     8    92    91    1
     9    92    93    2
    10    64    65    1
    11    91    94    1
    12    55    54    2
    13    94    95    1
    14    68    69    1
    15    49    48    2
    16    49    50    1
    17    48    47    1
    18    78    77   ar
    19    78    76   ar
    20    77    75   ar
    21    60    54   am
    22    54    53    1
    23    76    74   ar
    24    95    96    1
    25    75    73   ar
    26    65    67    1
    27    47    46    1
    28    74    73   ar
    29    73    72    1
    30    46    45    1
    31    69    72    1
    32    69    70    1
    33    70    71    2
    34    89    87    1
    35    53    52    1
    36    53    56    1
    37    52    43   am
    38    96    97    1
    39    56    57    1
    40    79    80    1
    41    45    42    1
    42    58    57   ar
    43    42    43    1
    44    42    41    1
    45    86    87    2
    46    86    85    1
    47    43    44    2
    48    87    88    1
    49    57    59   ar
    50    84    85    1
    51    84    83    1
    52    80    83    1
    53    80    81    1
    54   142   143    1
    55   143   144    1
    56   143   146    1
    57   145   144    2
    58    81    82    2
    59   147   146    1
    60   147   149    1
    61     8     6    1
    62   130   132    1
    63   130   129    1
    64    17    14    1
    65   146   148    1
    66   131   129    1
    67     6     5    1
    68     6     7    1
    69   128   127    2
    70   126   129    1
    71   126   127    1
    72   126   125    1
    73   127   133   am
    74     9    10    1
    75     9     3   am
    76     5     2    1
    77     2     3    1
    78     2     1    1
    79    13    14    1
    80    13    11   am
    81    14    15    1
    82    10    11    1
    83   115   113    1
    84    11    12    2
    85     3     4    2
    86   113   112    1
    87    16    15    2
    88    15    18   am
    89   107   104    1
    90   133   134    1
    91   114   112    1
    92   136   135    2
    93   135   134    1
    94    18    19    1
    95   134   137    1
    96   112   109    1
    97   104   105    1
    98   104   103    1
    99   108   109    1
   100   108   105   am
   101    19    20    1
   102   109   110    1
   103   105   106    2
   104   103   100   am
   105   137   138    1
   106   111   110    2
   107   101   100    2
   108    20    21    2
   109    20    22   am
   110   110   116   am
   111   100    99    1
   112   138   139    1
   113    98    99    1
   114    39    38    1
   115    39    40    2
   116    38    37    1
   117    22    23    1
   118   116   117    1
   119    99   102    1
   120   118   119    2
   121   118   117    1
   122   139   140    1
   123    37    31   am
   124   141   140    1
   125   117   120    1
   126    23    24    1
   127    23    26    1
   128    27    26    1
   129    24    29   am
   130    24    25    2
   131    31    32    2
   132    31    30    1
   133    29    30    1
   134    26    28    1
   135   120   121    1
   136    30    33    1
   137    33    34    1
   138   123   122   ar
   139   121   122    1
   140   150   151    1
   141   122   124   ar
   142   154   151    1
   143   154   155    1
   144    34    35    1
   145   157   155   am
   146   162   163    1
   147   162   159    1
   148   162   164    1
   149   151   152    1
   150   158   152   am
   151   158   159    1
   152   155   156    2
   153   152   153    2
   154   159   160    1
   155    35    36    1
   156   189   187   ar
   157   189   191   ar
   158   187   186   ar
   159   191   190   ar
   160   160   165   am
   161   160   161    2
   162   165   166    1
   163   225   223    1
   164   210   208   am
   165   186   188   ar
   166   186   185    1
   167   190   188   ar
   168   209   208    2
   169   208   207    1
   170   185   182    1
   171   219   220    1
   172   166   169    1
   173   166   167    1
   174   207   204    1
   175   223   220    1
   176   223   224    1
   177   220   221    1
   178   170   169    1
   179   181   182    1
   180   181   173   am
   181   214   213    2
   182   171   172    1
   183   167   168    2
   184   204   203    1
   185   204   205    1
   186   172   173    1
   187   172   175    1
   188   182   183    1
   189   178   180   ar
   190   178   176   ar
   191   184   183    2
   192   173   174    2
   193   183   192   am
   194   203   194   am
   195   213   212    1
   196   195   194    2
   197   205   206    2
   198   175   176    1
   199   221   222    2
   200   180   179   ar
   201   194   193    1
   202   176   177   ar
   203   192   193    1
   204   193   196    1
   205   212   211    1
   206   212   215    1
   207   179   177   ar
   208   217   215    1
   209   215   216    1
   210   196   197    1
   211   197   198   ar
   212   197   199   ar
   213   198   200   ar
   214   216   218    1
   215   199   201   ar
   216   200   202   ar
   217   201   202   ar
