@<TRIPOS>MOLECULE
tmp/4kuhA00.pdb
 219 207 0 0 0
SMALL
GASTEIGER

@<TRIPOS>ATOM
      1  N         14.5580   61.0250  -29.4310 N.3    12  MET12      -0.1245
      2  CA        13.5020   60.2550  -28.7850 C.3    12  MET12       0.1570
      3  C         12.8700   59.2460  -29.7310 C.2    12  MET12       0.2261
      4  O         12.7460   58.0760  -29.3760 O.2    12  MET12      -0.2867
      5  CB        12.4190   61.1580  -28.1610 C.3    12  MET12       0.0387
      6  CG        12.7110   61.6780  -26.7390 C.3    12  MET12       0.0595
      7  SD        12.8160   60.5240  -25.3170 S.3    12  MET12      -0.1393
      8  CE        11.5230   59.3590  -25.7100 C.3    12  MET12       0.0692
      9  N         24.1720   52.7470  -31.5360 N.3    47  SER47      -0.1217
     10  CA        23.7220   52.3350  -30.2220 C.3    47  SER47       0.1889
     11  C         23.9390   50.8300  -30.0520 C.2    47  SER47       0.2288
     12  O         24.6130   50.3990  -29.1040 O.2    47  SER47      -0.2866
     13  CB        22.2460   52.7120  -30.0110 C.3    47  SER47       0.2089
     14  OG        21.8540   52.5350  -28.6510 O.3    47  SER47      -0.2183
     15  N         27.5160   49.7030  -29.6980 N.3    50  LYS50      -0.1231
     16  CA        28.0840   49.9110  -28.3680 C.3    50  LYS50       0.1693
     17  C         27.6020   48.8140  -27.4290 C.2    50  LYS50       0.2591
     18  O         28.3290   48.4030  -26.5330 O.2    50  LYS50      -0.2718
     19  CB        27.7590   51.3060  -27.8190 C.3    50  LYS50       0.0285
     20  CG        28.4970   52.4440  -28.5310 C.3    50  LYS50       0.0035
     21  CD        28.8150   53.6070  -27.5970 C.3    50  LYS50       0.0206
     22  CE        29.9910   53.2930  -26.6730 C.3    50  LYS50       0.1093
     23  NZ        29.9040   54.0050  -25.3610 N.3    50  LYS50      -0.1314
     24  N         26.3960   48.3110  -27.6620 N.am   51  LEU51      -0.1980
     25  CA        25.8740   47.1990  -26.8610 C.3    51  LEU51       0.1596
     26  C         26.6220   45.8750  -27.1260 C.2    51  LEU51       0.2287
     27  O         26.9310   45.1280  -26.1880 O.2    51  LEU51      -0.2864
     28  CB        24.3460   47.0350  -27.0590 C.3    51  LEU51       0.0297
     29  CG        23.4080   48.0110  -26.3050 C.3    51  LEU51       0.0022
     30  CD1       21.9440   47.8250  -26.6840 C.3    51  LEU51       0.0001
     31  CD2       23.5490   47.8770  -24.7940 C.3    51  LEU51       0.0001
     32  N         29.9320   45.8860  -25.4850 N.3    54  LYS54      -0.1245
     33  CA        29.8230   45.6820  -24.0460 C.3    54  LYS54       0.1561
     34  C         29.2090   44.3160  -23.6960 C.2    54  LYS54       0.2260
     35  O         28.9060   44.0280  -22.5230 O.2    54  LYS54      -0.2867
     36  CB        29.0330   46.8380  -23.4150 C.3    54  LYS54       0.0271
     37  CG        29.8090   48.1540  -23.4640 C.3    54  LYS54       0.0035
     38  CD        29.1160   49.3300  -22.7840 C.3    54  LYS54       0.0206
     39  CE        30.0870   50.4970  -22.6280 C.3    54  LYS54       0.1093
     40  NZ        29.4270   51.8340  -22.6460 N.3    54  LYS54      -0.1314
     41  N         26.4760   42.9710  -24.1550 N.3    56  LYS56      -0.1245
     42  CA        25.1090   43.0350  -23.7000 C.3    56  LYS56       0.1561
     43  C         24.2350   42.3920  -24.7600 C.2    56  LYS56       0.2260
     44  O         23.0930   42.0370  -24.4920 O.2    56  LYS56      -0.2867
     45  CB        24.6820   44.5060  -23.4460 C.3    56  LYS56       0.0271
     46  CG        25.3390   45.1880  -22.2480 C.3    56  LYS56       0.0035
     47  CD        25.5190   44.2210  -21.0700 C.3    56  LYS56       0.0206
     48  CE        26.0230   44.8610  -19.7700 C.3    56  LYS56       0.1093
     49  NZ        24.9620   44.9780  -18.7300 N.3    56  LYS56      -0.1314
     50  N          6.2380   69.0380  -31.0020 N.3    90  GLU90      -0.1245
     51  CA         5.4230   69.3580  -29.8700 C.3    90  GLU90       0.1567
     52  C          4.6970   70.6560  -30.2570 C.2    90  GLU90       0.2260
     53  O          4.9260   71.7230  -29.6990 O.2    90  GLU90      -0.2867
     54  CB         6.3650   69.4540  -28.6610 C.3    90  GLU90       0.0388
     55  CG         5.8610   68.8950  -27.3410 C.3    90  GLU90       0.1160
     56  CD         5.6730   67.3810  -27.2840 C.2    90  GLU90       0.3649
     57  OE1        4.7680   66.8530  -27.9630 O.co2  90  GLU90      -0.2457
     58  OE2        6.3670   66.7170  -26.4840 O.co2  90  GLU90      -0.2457
     59  N          3.9320   60.4540  -27.7900 N.3   115  ASN115     -0.1240
     60  CA         4.9990   60.5820  -26.8470 C.3   115  ASN115      0.1653
     61  C          5.1400   62.0030  -26.3030 C.2   115  ASN115      0.2266
     62  O          6.2020   62.3620  -25.8310 O.2   115  ASN115     -0.2867
     63  CB         6.3020   60.1920  -27.5100 C.3   115  ASN115      0.1155
     64  CG         7.4250   60.0580  -26.5160 C.2   115  ASN115      0.2627
     65  OD1        7.3340   59.2840  -25.5710 O.2   115  ASN115     -0.2716
     66  ND2        8.4620   60.8400  -26.6950 N.am  115  ASN115     -0.0877
     67  N          5.2540   65.3860  -24.0830 N.3   117  SER117     -0.1217
     68  CA         5.6240   65.7140  -22.6940 C.3   117  SER117      0.1889
     69  C          4.6620   66.7050  -22.0050 C.2   117  SER117      0.2288
     70  O          4.5430   66.7400  -20.7560 O.2   117  SER117     -0.2866
     71  CB         7.0320   66.2880  -22.7000 C.3   117  SER117      0.2089
     72  OG         7.9040   65.3870  -23.3760 O.3   117  SER117     -0.2183
     73  N          4.2500   57.5210  -22.9700 N.3   138  HIS138     -0.1226
     74  CA         5.3210   58.5050  -22.8000 C.3   138  HIS138      0.1752
     75  C          6.6230   57.9070  -22.2530 C.2   138  HIS138      0.2596
     76  O          6.7260   57.5330  -21.1100 O.2   138  HIS138     -0.2718
     77  CB         4.7690   59.6330  -21.9080 C.3   138  HIS138      0.0759
     78  CG         5.7770   60.6640  -21.5420 C.ar  138  HIS138      0.0818
     79  ND1        6.0160   61.0310  -20.2350 N.ar  138  HIS138     -0.2268
     80  CD2        6.6250   61.3880  -22.3040 C.ar  138  HIS138      0.1154
     81  CE1        6.9610   61.9530  -20.2150 C.ar  138  HIS138      0.1986
     82  NE2        7.3480   62.1850  -21.4560 N.ar  138  HIS138     -0.2212
     83  N          7.6050   57.7900  -23.1070 N.am  139  PHE139     -0.1962
     84  CA         8.8940   57.1900  -22.7400 C.3   139  PHE139      0.1771
     85  C          9.8310   58.3110  -22.2590 C.2   139  PHE139      0.2620
     86  O          9.5570   59.5010  -22.4770 O.2   139  PHE139     -0.2715
     87  CB         9.5590   56.5040  -23.9630 C.3   139  PHE139      0.0574
     88  CG         8.7540   55.3920  -24.5780 C.ar  139  PHE139     -0.0200
     89  CD1        7.6350   55.6670  -25.3670 C.ar  139  PHE139     -0.0042
     90  CD2        9.1320   54.0700  -24.3990 C.ar  139  PHE139     -0.0042
     91  CE1        6.8980   54.6460  -25.9370 C.ar  139  PHE139     -0.0003
     92  CE2        8.4000   53.0420  -24.9710 C.ar  139  PHE139     -0.0003
     93  CZ         7.2870   53.3280  -25.7420 C.ar  139  PHE139     -0.0000
     94  N         10.9600   57.8940  -21.6860 N.am  140  PHE140     -0.1960
     95  CA        11.9630   58.7600  -21.0900 C.3   140  PHE140      0.1771
     96  C         13.3800   58.4940  -21.6180 C.2   140  PHE140      0.2620
     97  O         13.7510   57.3700  -21.8450 O.2   140  PHE140     -0.2715
     98  CB        11.9080   58.5850  -19.5690 C.3   140  PHE140      0.0574
     99  CG        10.5770   58.9560  -18.9920 C.ar  140  PHE140     -0.0200
    100  CD1        9.5450   58.0300  -18.9620 C.ar  140  PHE140     -0.0042
    101  CD2       10.3390   60.2480  -18.5380 C.ar  140  PHE140     -0.0042
    102  CE1        8.3140   58.3800  -18.4720 C.ar  140  PHE140     -0.0003
    103  CE2        9.1120   60.6010  -18.0420 C.ar  140  PHE140     -0.0003
    104  CZ         8.0910   59.6720  -18.0160 C.ar  140  PHE140     -0.0000
    105  N         14.1700   59.5500  -21.7860 N.am  141  ASN141     -0.1959
    106  CA        15.4990   59.4590  -22.3910 C.3   141  ASN141      0.1804
    107  C         16.5760   58.9600  -21.4150 C.2   141  ASN141      0.2463
    108  O         16.6210   59.3670  -20.2500 O.2   141  ASN141     -0.2730
    109  CB        15.8970   60.8350  -22.9170 C.3   141  ASN141      0.1195
    110  CG        17.0190   60.7890  -23.9460 C.2   141  ASN141      0.2630
    111  OD1       17.9200   61.6210  -23.8970 O.2   141  ASN141     -0.2716
    112  ND2       16.9510   59.8540  -24.9090 N.am  141  ASN141     -0.0877
    113  N         17.4330   58.0410  -21.8700 N.am  142  PRO142     -0.2727
    114  CA        17.4030   57.3060  -23.1530 C.3   142  PRO142      0.1402
    115  C         16.3210   56.2100  -23.1660 C.2   142  PRO142      0.2269
    116  O         16.2360   55.4200  -22.2270 O.2   142  PRO142     -0.2865
    117  CB        18.8090   56.7200  -23.2480 C.3   142  PRO142      0.0296
    118  CG        19.2840   56.6110  -21.8400 C.3   142  PRO142      0.0237
    119  CD        18.5950   57.6750  -21.0400 C.3   142  PRO142      0.0939
    120  N         16.8670   52.4040  -22.3080 N.3   145  VAL145     -0.1231
    121  CA        17.2570   52.1190  -20.9220 C.3   145  VAL145      0.1692
    122  C         16.1340   52.3250  -19.8960 C.2   145  VAL145      0.2591
    123  O         15.8790   51.4600  -19.0610 O.2   145  VAL145     -0.2718
    124  CB        18.4370   53.0000  -20.4770 C.3   145  VAL145      0.0266
    125  CG1       18.9740   52.5120  -19.1390 C.3   145  VAL145      0.0020
    126  CG2       19.5250   52.9980  -21.5340 C.3   145  VAL145      0.0020
    127  N         15.4760   53.4760  -19.9400 N.am  146  MET146     -0.1979
    128  CA        14.6070   53.8690  -18.8520 C.3   146  MET146      0.1605
    129  C         13.3320   53.0440  -18.8880 C.2   146  MET146      0.2287
    130  O         12.6240   53.0560  -19.8830 O.2   146  MET146     -0.2864
    131  CB        14.2650   55.3510  -18.9710 C.3   146  MET146      0.0413
    132  CG        15.4610   56.2890  -19.0520 C.3   146  MET146      0.0598
    133  SD        16.5310   56.2280  -17.6240 S.3   146  MET146     -0.1393
    134  CE        15.4580   56.7930  -16.3140 C.3   146  MET146      0.0692
    135  N          6.0230   62.6820  -14.0020 N.3   187  VAL187     -0.1231
    136  CA         7.4700   62.9290  -13.8540 C.3   187  VAL187      0.1692
    137  C          7.8610   64.3700  -14.1020 C.2   187  VAL187      0.2592
    138  O          8.4300   65.0360  -13.2490 O.2   187  VAL187     -0.2718
    139  CB         8.3310   62.0140  -14.7280 C.3   187  VAL187      0.0266
    140  CG1        9.8170   62.3580  -14.5560 C.3   187  VAL187      0.0020
    141  CG2        8.0530   60.5640  -14.3210 C.3   187  VAL187      0.0020
    142  N          7.5510   64.8360  -15.2840 N.am  188  ASN188     -0.1974
    143  CA         7.8630   66.1790  -15.6300 C.3   188  ASN188      0.1688
    144  C          7.3130   67.2050  -14.6350 C.2   188  ASN188      0.2292
    145  O          7.9840   68.1710  -14.3060 O.2   188  ASN188     -0.2864
    146  CB         7.3640   66.4310  -17.0270 C.3   188  ASN188      0.1181
    147  CG         8.2580   65.8020  -18.0580 C.2   188  ASN188      0.2629
    148  OD1        9.4350   65.5400  -17.7990 O.2   188  ASN188     -0.2716
    149  ND2        7.7240   65.6040  -19.2470 N.am  188  ASN188     -0.0877
    150  N          9.8840   66.7520  -11.7540 N.3   191  LEU191     -0.1231
    151  CA        11.2980   66.7780  -12.0740 C.3   191  LEU191      0.1693
    152  C         11.7800   68.1470  -12.6030 C.2   191  LEU191      0.2591
    153  O         12.8590   68.6250  -12.2490 O.2   191  LEU191     -0.2718
    154  CB        11.6040   65.6790  -13.0840 C.3   191  LEU191      0.0284
    155  CG        13.0850   65.3360  -13.2830 C.3   191  LEU191      0.0019
    156  CD1       13.6720   64.7250  -12.0110 C.3   191  LEU191      0.0001
    157  CD2       13.2920   64.4210  -14.4820 C.3   191  LEU191      0.0001
    158  N         10.9910   68.7890  -13.4440 N.am  192  ILE192     -0.1980
    159  CA        11.5120   69.9460  -14.1210 C.3   192  ILE192      0.1595
    160  C         11.5060   71.1740  -13.1970 C.2   192  ILE192      0.2287
    161  O         12.4860   71.9190  -13.1420 O.2   192  ILE192     -0.2864
    162  CB        10.7660   70.1630  -15.4400 C.3   192  ILE192      0.0276
    163  CG1       10.6890   68.8390  -16.2300 C.3   192  ILE192      0.0022
    164  CG2       11.4520   71.2290  -16.2840 C.3   192  ILE192      0.0022
    165  CD1       12.0230   68.2290  -16.6090 C.3   192  ILE192      0.0001
    166  N         20.8710   60.7620   -8.5190 N.3   223  PRO223     -0.2102
    167  CA        21.8350   60.1930   -9.4510 C.3   223  PRO223      0.1504
    168  C         22.6900   61.2710  -10.0870 C.2   223  PRO223      0.2575
    169  O         23.8500   61.0120  -10.4210 O.2   223  PRO223     -0.2718
    170  CB        20.9610   59.4950  -10.5120 C.3   223  PRO223      0.0282
    171  CG        19.5680   59.7030  -10.0820 C.3   223  PRO223      0.0208
    172  CD        19.5390   60.8380   -9.1300 C.3   223  PRO223      0.0893
    173  N         22.1140   62.4520  -10.2910 N.am  224  MET224     -0.1980
    174  CA        22.9230   63.6110  -10.5940 C.3   224  MET224      0.1605
    175  C         22.2780   64.9090  -10.1080 C.2   224  MET224      0.2287
    176  O         21.1700   64.9210   -9.5950 O.2   224  MET224     -0.2864
    177  CB        23.3150   63.6310  -12.0800 C.3   224  MET224      0.0413
    178  CG        22.3110   64.1900  -13.0750 C.3   224  MET224      0.0598
    179  SD        23.0200   64.1690  -14.7530 S.3   224  MET224     -0.1393
    180  CE        22.6260   62.4570  -15.1040 C.3   224  MET224      0.0692
    181  N         21.7200   67.6160  -14.7010 N.3   229  LEU229     -0.1245
    182  CA        20.5430   66.9070  -15.2130 C.3   229  LEU229      0.1561
    183  C         19.8730   67.7460  -16.2780 C.2   229  LEU229      0.2260
    184  O         19.4420   67.2220  -17.2820 O.2   229  LEU229     -0.2867
    185  CB        19.5530   66.5280  -14.1060 C.3   229  LEU229      0.0270
    186  CG        18.2550   65.9460  -14.6780 C.3   229  LEU229      0.0019
    187  CD1       18.4530   64.6180  -15.3980 C.3   229  LEU229      0.0001
    188  CD2       17.1930   65.7390  -13.6280 C.3   229  LEU229      0.0001
    189  N         21.7440   67.7590  -19.3820 N.3   232  LEU232     -0.1231
    190  CA        21.3820   66.5150  -20.0200 C.3   232  LEU232      0.1693
    191  C         20.0660   66.6230  -20.7130 C.2   232  LEU232      0.2591
    192  O         19.9570   66.3200  -21.8740 O.2   232  LEU232     -0.2718
    193  CB        21.2800   65.3650  -19.0260 C.3   232  LEU232      0.0284
    194  CG        21.4490   64.0510  -19.7820 C.3   232  LEU232      0.0019
    195  CD1       22.9490   63.8090  -20.0040 C.3   232  LEU232      0.0001
    196  CD2       20.7840   62.8570  -19.0830 C.3   232  LEU232      0.0001
    197  N         19.0300   67.0210  -20.0040 N.am  233  ILE233     -0.1980
    198  CA        17.6830   66.9910  -20.5990 C.3   233  ILE233      0.1595
    199  C         17.5780   68.0330  -21.6880 C.2   233  ILE233      0.2287
    200  O         16.8420   67.8510  -22.6480 O.2   233  ILE233     -0.2864
    201  CB        16.5900   67.2020  -19.5210 C.3   233  ILE233      0.0276
    202  CG1       16.5570   66.0140  -18.5810 C.3   233  ILE233      0.0022
    203  CG2       15.2070   67.3540  -20.1270 C.3   233  ILE233      0.0022
    204  CD1       15.7160   66.2500  -17.3690 C.3   233  ILE233      0.0001
    205  N         14.1500   72.2170  -23.6450 N.3   237  VAL237     -0.1245
    206  CA        13.1290   71.2700  -23.2390 C.3   237  VAL237      0.1561
    207  C         12.5420   71.6430  -21.8680 C.2   237  VAL237      0.2260
    208  O         11.3290   71.7070  -21.6840 O.2   237  VAL237     -0.2867
    209  CB        13.7480   69.8740  -23.2050 C.3   237  VAL237      0.0252
    210  CG1       12.7860   68.8650  -22.6120 C.3   237  VAL237      0.0019
    211  CG2       14.1160   69.5020  -24.6220 C.3   237  VAL237      0.0019
    212  N          8.7160   73.0170  -20.9640 N.3   241  ILE241     -0.1245
    213  CA         7.8740   72.3240  -20.0090 C.3   241  ILE241      0.1561
    214  C          7.3980   73.2140  -18.8730 C.2   241  ILE241      0.2260
    215  O          6.2770   73.0880  -18.4020 O.2   241  ILE241     -0.2867
    216  CB         8.6240   71.0990  -19.4680 C.3   241  ILE241      0.0252
    217  CG1        8.6020   70.0160  -20.5440 C.3   241  ILE241      0.0019
    218  CG2        8.0020   70.5530  -18.1900 C.3   241  ILE241      0.0019
    219  CD1        9.5860   68.8810  -20.2930 C.3   241  ILE241      0.0001
@<TRIPOS>BOND
     1     9    10    1
     2    50    51    1
     3    52    51    1
     4    52    53    2
     5    10    11    1
     6    10    13    1
     7    11    12    2
     8    13    14    1
     9    51    54    1
    10     3     4    2
    11     3     2    1
    12    15    16    1
    13     1     2    1
    14     2     5    1
    15    54    55    1
    16    20    19    1
    17    20    21    1
    18    16    19    1
    19    16    17    1
    20     5     6    1
    21    57    56   ar
    22    59    60    1
    23    24    17   am
    24    24    25    1
    25    21    22    1
    26    63    60    1
    27    63    64    1
    28    17    18    2
    29    55    56    1
    30    56    58   ar
    31    26    25    1
    32    26    27    2
    33    28    25    1
    34    28    29    1
    35    60    61    1
    36     6     7    1
    37    66    64   am
    38    30    29    1
    39    22    23    1
    40    64    65    2
    41    29    31    1
    42    61    62    2
    43    91    93   ar
    44    91    89   ar
    45    93    92   ar
    46     8     7    1
    47    32    33    1
    48    89    88   ar
    49    92    90   ar
    50   112   110   am
    51    43    44    2
    52    43    42    1
    53   211   209    1
    54    88    90   ar
    55    88    87    1
    56    41    42    1
    57    67    68    1
    58    33    34    1
    59    33    36    1
    60    87    84    1
    61   110   111    2
    62   110   109    1
    63    42    45    1
    64    34    35    2
    65   205   206    1
    66    37    36    1
    67    37    38    1
    68    45    46    1
    69    72    71    1
    70   117   114    1
    71   117   118    1
    72   206   209    1
    73   206   207    1
    74   209   210    1
    75   115   114    1
    76   115   116    2
    77   114   113    1
    78    83    84    1
    79    83    75   am
    80    73    74    1
    81   109   106    1
    82    74    75    1
    83    74    77    1
    84    38    39    1
    85    84    85    1
    86    71    68    1
    87    68    69    1
    88   200   199    2
    89    40    39    1
    90    86    85    2
    91   106   105    1
    92   106   107    1
    93   120   121    1
    94    80    78   ar
    95    80    82   ar
    96    85    94   am
    97    75    76    2
    98    46    47    1
    99    69    70    2
   100    77    78    1
   101   192   191    2
   102   113   107   am
   103   113   119    1
   104   207   208    2
   105    97    96    2
   106   118   119    1
   107   105    96   am
   108   199   198    1
   109    94    95    1
   110    96    95    1
   111    78    79   ar
   112   126   124    1
   113    82    81   ar
   114   107   108    2
   115    95    98    1
   116    47    48    1
   117   212   213    1
   118   121   124    1
   119   121   122    1
   120   191   190    1
   121   191   197   am
   122   198   197    1
   123   198   201    1
   124   217   219    1
   125   217   216    1
   126   124   125    1
   127    79    81   ar
   128   203   201    1
   129   190   189    1
   130   190   193    1
   131   213   216    1
   132   213   214    1
   133   195   194    1
   134   127   122   am
   135   127   128    1
   136   122   123    2
   137   130   129    2
   138   194   196    1
   139   194   193    1
   140    48    49    1
   141    98    99    1
   142   201   202    1
   143   216   218    1
   144   149   147   am
   145   132   131    1
   146   132   133    1
   147    99   100   ar
   148    99   101   ar
   149   131   128    1
   150   100   102   ar
   151   129   128    1
   152   214   215    2
   153   202   204    1
   154   101   103   ar
   155   102   104   ar
   156   147   148    2
   157   147   146    1
   158   103   104   ar
   159   133   134    1
   160   184   183    2
   161   146   143    1
   162   165   163    1
   163   164   162    1
   164   183   182    1
   165   163   162    1
   166   143   142    1
   167   143   144    1
   168   162   159    1
   169   187   186    1
   170   142   137   am
   171   182   181    1
   172   182   185    1
   173   180   179    1
   174   179   178    1
   175   139   140    1
   176   139   141    1
   177   139   136    1
   178   186   185    1
   179   186   188    1
   180   144   145    2
   181   157   155    1
   182   159   158    1
   183   159   160    1
   184   137   136    1
   185   137   138    2
   186   135   136    1
   187   158   152   am
   188   155   154    1
   189   155   156    1
   190   160   161    2
   191   154   151    1
   192   178   177    1
   193   152   153    2
   194   152   151    1
   195   177   174    1
   196   151   150    1
   197   174   173    1
   198   174   175    1
   199   170   171    1
   200   170   167    1
   201   169   168    2
   202   173   168   am
   203   175   176    2
   204   168   167    1
   205   171   172    1
   206   167   166    1
   207   172   166    1
