@<TRIPOS>MOLECULE
tmp/4kujA00.pdb
 104 96 0 0 0
SMALL
GASTEIGER

@<TRIPOS>ATOM
      1  N        -23.1520   13.0070  -10.2490 N.3    46  PHE46      -0.1227
      2  CA       -22.5110   14.1980   -9.6680 C.3    46  PHE46       0.1736
      3  C        -22.0380   15.1960  -10.7380 C.2    46  PHE46       0.2595
      4  O        -21.6970   16.3360  -10.4260 O.2    46  PHE46      -0.2718
      5  CB       -21.3440   13.8020   -8.7480 C.3    46  PHE46       0.0547
      6  CG       -20.1250   13.3170   -9.4850 C.ar   46  PHE46      -0.0202
      7  CD1      -19.0820   14.1940   -9.7950 C.ar   46  PHE46      -0.0042
      8  CD2      -20.0220   11.9900   -9.8850 C.ar   46  PHE46      -0.0042
      9  CE1      -17.9530   13.7540  -10.4840 C.ar   46  PHE46      -0.0003
     10  CE2      -18.8980   11.5400  -10.5640 C.ar   46  PHE46      -0.0003
     11  CZ       -17.8630   12.4220  -10.8670 C.ar   46  PHE46      -0.0000
     12  N        -22.0070   14.7540  -11.9930 N.am   47  ALA47      -0.1966
     13  CA       -21.5360   15.5870  -13.0970 C.3    47  ALA47       0.1728
     14  C        -22.0450   15.0800  -14.4380 C.2    47  ALA47       0.2616
     15  O        -22.4710   13.9200  -14.5650 O.2    47  ALA47      -0.2715
     16  CB       -20.0130   15.6520  -13.1040 C.3    47  ALA47       0.0334
     17  N        -22.0220   15.9710  -15.4280 N.am   48  LYS48      -0.1963
     18  CA       -22.3000   15.6150  -16.8170 C.3    48  LYS48       0.1728
     19  C        -21.5970   16.5760  -17.7670 C.2    48  LYS48       0.2616
     20  O        -21.2190   17.6850  -17.3810 O.2    48  LYS48      -0.2715
     21  CB       -23.8040   15.5060  -17.1050 C.3    48  LYS48       0.0311
     22  CG       -24.5540   16.7950  -17.4010 C.3    48  LYS48       0.0038
     23  CD       -26.0330   16.6100  -17.0760 C.3    48  LYS48       0.0206
     24  CE       -26.9380   17.5170  -17.9010 C.3    48  LYS48       0.1093
     25  NZ       -27.4250   16.8460  -19.1440 N.3    48  LYS48      -0.1314
     26  N        -21.4180   16.1340  -19.0040 N.am   49  GLY49      -0.1955
     27  CA       -20.6810   16.9050  -19.9850 C.3    49  GLY49       0.1869
     28  C        -19.8930   15.9900  -20.8980 C.2    49  GLY49       0.2309
     29  O        -19.8410   14.7700  -20.6830 O.2    49  GLY49      -0.2863
     30  N        -21.9770   13.0170  -21.7110 N.3    52  ARG52      -0.1245
     31  CA       -22.1720   11.8640  -20.8070 C.3    52  ARG52       0.1563
     32  C        -22.2470   12.1040  -19.2760 C.2    52  ARG52       0.2260
     33  O        -21.6290   13.0410  -18.7550 O.2    52  ARG52      -0.2867
     34  CB       -21.1390   10.7750  -21.1360 C.3    52  ARG52       0.0307
     35  CG       -19.7080   11.2650  -21.2280 C.3    52  ARG52       0.0489
     36  CD       -18.9790   10.5490  -22.3530 C.3    52  ARG52       0.2205
     37  NE       -17.5630   10.3930  -22.0460 N.pl3  52  ARG52      -0.0865
     38  CZ       -16.5910   11.2160  -22.4390 C.cat  52  ARG52       0.5346
     39  NH1      -16.8430   12.2910  -23.1780 N.pl3  52  ARG52       0.1354
     40  NH2      -15.3450   10.9510  -22.0880 N.pl3  52  ARG52       0.1354
     41  N        -22.0080   11.0740  -15.0500 N.3    54  ALA54      -0.1245
     42  CA       -20.9990   10.5090  -14.1450 C.3    54  ALA54       0.1562
     43  C        -21.5200   10.2670  -12.7310 C.2    54  ALA54       0.2260
     44  O        -22.0630   11.1810  -12.0990 O.2    54  ALA54      -0.2867
     45  CB       -19.7580   11.3880  -14.0950 C.3    54  ALA54       0.0290
     46  N        -15.5300    6.0400  -10.7510 N.3    66  VAL66      -0.1245
     47  CA       -16.5410    6.8420  -11.4120 C.3    66  VAL66       0.1561
     48  C        -17.1390    5.9530  -12.4860 C.2    66  VAL66       0.2260
     49  O        -16.4090    5.3160  -13.2550 O.2    66  VAL66      -0.2867
     50  CB       -15.9250    8.1240  -12.0440 C.3    66  VAL66       0.0252
     51  CG1      -16.9580    8.9180  -12.8430 C.3    66  VAL66       0.0019
     52  CG2      -15.2950    9.0010  -10.9670 C.3    66  VAL66       0.0019
     53  N        -19.3210    6.0940  -15.8360 N.3    68  LYS68      -0.1245
     54  CA       -19.7830    7.0140  -16.8640 C.3    68  LYS68       0.1561
     55  C        -20.6260    6.2760  -17.8970 C.2    68  LYS68       0.2260
     56  O        -20.5080    5.0460  -18.0790 O.2    68  LYS68      -0.2867
     57  CB       -18.6130    7.7340  -17.5620 C.3    68  LYS68       0.0271
     58  CG       -17.8420    8.7040  -16.6860 C.3    68  LYS68       0.0035
     59  CD       -16.7840    9.4710  -17.4640 C.3    68  LYS68       0.0206
     60  CE       -15.8740   10.2480  -16.5170 C.3    68  LYS68       0.1093
     61  NZ       -15.1360   11.3500  -17.2040 N.3    68  LYS68      -0.1314
     62  N         -5.6530    7.1590  -17.0370 N.3   109  LEU109     -0.1245
     63  CA        -6.5630    6.3370  -16.1910 C.3   109  LEU109      0.1561
     64  C         -7.0080    5.0820  -16.9120 C.2   109  LEU109      0.2260
     65  O         -7.5160    5.1850  -18.0300 O.2   109  LEU109     -0.2867
     66  CB        -7.8270    7.0980  -15.8050 C.3   109  LEU109      0.0270
     67  CG        -7.6920    8.4170  -15.0100 C.3   109  LEU109      0.0019
     68  CD1       -9.0710    8.9900  -14.7040 C.3   109  LEU109      0.0001
     69  CD2       -6.8540    8.2790  -13.7510 C.3   109  LEU109      0.0001
     70  N        -13.8240    4.0910  -14.3340 N.3   147  GLU147     -0.1245
     71  CA       -12.4460    4.6090  -14.2300 C.3   147  GLU147      0.1567
     72  C        -12.1590    4.9690  -12.7900 C.2   147  GLU147      0.2260
     73  O        -13.0940    5.3160  -12.0640 O.2   147  GLU147     -0.2867
     74  CB       -12.2170    5.8090  -15.1620 C.3   147  GLU147      0.0388
     75  CG       -13.1390    6.9880  -14.9420 C.3   147  GLU147      0.1160
     76  CD       -12.7270    8.2210  -15.7480 C.2   147  GLU147      0.3649
     77  OE1      -12.4310    8.1190  -16.9680 O.co2 147  GLU147     -0.2457
     78  OE2      -12.6940    9.3130  -15.1530 O.co2 147  GLU147     -0.2457
     79  N        -10.4690   10.5510   -9.8210 N.3   150  LEU150     -0.1245
     80  CA        -9.3170   11.4340   -9.9400 C.3   150  LEU150      0.1561
     81  C         -9.6510   12.8050   -9.3690 C.2   150  LEU150      0.2260
     82  O        -10.5220   13.4960   -9.8880 O.2   150  LEU150     -0.2867
     83  CB        -8.8850   11.5550  -11.4120 C.3   150  LEU150      0.0270
     84  CG        -7.6850   12.4580  -11.7420 C.3   150  LEU150      0.0019
     85  CD1       -6.4230   12.0180  -11.0100 C.3   150  LEU150      0.0001
     86  CD2       -7.4680   12.5300  -13.2500 C.3   150  LEU150      0.0001
     87  N         -8.0250   20.0810  -12.8170 N.3   154  PHE154     -0.1241
     88  CA        -8.0370   19.4950  -14.1550 C.3   154  PHE154      0.1605
     89  C         -7.6680   20.5650  -15.1900 C.2   154  PHE154      0.2264
     90  O         -8.2590   21.6480  -15.1920 O.2   154  PHE154     -0.2867
     91  CB        -9.4300   18.8960  -14.3890 C.3   154  PHE154      0.0534
     92  CG        -9.6160   18.2610  -15.7330 C.ar  154  PHE154     -0.0203
     93  CD1       -9.5420   16.8730  -15.8810 C.ar  154  PHE154     -0.0042
     94  CD2       -9.9120   19.0470  -16.8550 C.ar  154  PHE154     -0.0042
     95  CE1       -9.7290   16.2960  -17.1400 C.ar  154  PHE154     -0.0003
     96  CE2      -10.1060   18.4730  -18.1030 C.ar  154  PHE154     -0.0003
     97  CZ       -10.0140   17.0950  -18.2440 C.ar  154  PHE154     -0.0000
     98  N         -6.8440   11.8290  -18.7690 N.3   205  THR205     -0.1218
     99  CA        -8.1660   11.2870  -19.0310 C.3   205  THR205      0.1862
    100  C         -8.7270   11.7540  -20.3710 C.2   205  THR205      0.2287
    101  O         -8.3120   12.7760  -20.9030 O.2   205  THR205     -0.2866
    102  CB        -9.1270   11.6960  -17.8870 C.3   205  THR205      0.1770
    103  OG1      -10.3470   10.9630  -17.9800 O.3   205  THR205     -0.2211
    104  CG2       -9.4480   13.1590  -17.9410 C.3   205  THR205      0.0375
@<TRIPOS>BOND
     1    39    38    1
     2    38    40    1
     3    38    37    2
     4    36    37    1
     5    36    35    1
     6    30    31    1
     7    35    34    1
     8    34    31    1
     9   101   100    2
    10    28    29    2
    11    28    27    1
    12    31    32    1
    13   100    99    1
    14    27    26    1
    15    32    33    2
    16    25    24    1
    17    99    98    1
    18    99   102    1
    19    26    19   am
    20    97    96   ar
    21    97    95   ar
    22    96    94   ar
    23    56    55    2
    24    65    64    2
    25   103   102    1
    26   104   102    1
    27    24    23    1
    28    55    54    1
    29    19    20    2
    30    19    18    1
    31    57    54    1
    32    57    58    1
    33    59    58    1
    34    59    60    1
    35    22    21    1
    36    22    23    1
    37    61    60    1
    38    95    93   ar
    39    21    18    1
    40    62    63    1
    41    77    76   ar
    42    64    63    1
    43    54    53    1
    44    94    92   ar
    45    18    17    1
    46    63    66    1
    47    93    92   ar
    48    66    67    1
    49    76    78   ar
    50    76    75    1
    51    92    91    1
    52    17    14   am
    53    90    89    2
    54    89    88    1
    55    74    75    1
    56    74    71    1
    57    41    42    1
    58    67    68    1
    59    67    69    1
    60    15    14    2
    61    14    13    1
    62    91    88    1
    63    70    71    1
    64    71    72    1
    65    88    87    1
    66    42    45    1
    67    42    43    1
    68    49    48    2
    69    86    84    1
    70    16    13    1
    71    13    12    1
    72    51    50    1
    73    72    73    2
    74    43    44    2
    75    48    47    1
    76    50    47    1
    77    50    52    1
    78    12     3   am
    79    84    83    1
    80    84    85    1
    81    83    80    1
    82    47    46    1
    83    11    10   ar
    84    11     9   ar
    85     3     4    2
    86     3     2    1
    87    10     8   ar
    88     9     7   ar
    89     1     2    1
    90    80    79    1
    91    80    81    1
    92    82    81    2
    93     8     6   ar
    94     7     6   ar
    95     2     5    1
    96     6     5    1
