@<TRIPOS>MOLECULE
tmp/4kukA00.pdb
 174 159 0 0 0
SMALL
GASTEIGER

@<TRIPOS>ATOM
      1  N         12.7510    5.3210   -9.5240 N.3    19  VAL19      -0.1245
      2  CA        13.2450    4.2130  -10.3270 C.3    19  VAL19       0.1561
      3  C         12.1290    3.7260  -11.2390 C.2    19  VAL19       0.2260
      4  O         10.9430    3.9560  -10.9670 O.2    19  VAL19      -0.2867
      5  CB        13.7150    3.0340   -9.4480 C.3    19  VAL19       0.0252
      6  CG1       14.6940    3.5190   -8.3670 C.3    19  VAL19       0.0019
      7  CG2       12.5350    2.3660   -8.7770 C.3    19  VAL19       0.0019
      8  N         11.0250   -0.0110  -13.1820 N.3    21  SER21      -0.1217
      9  CA        11.2880   -1.4290  -13.3950 C.3    21  SER21       0.1889
     10  C         10.5600   -1.9060  -14.6460 C.2    21  SER21       0.2288
     11  O          9.5980   -1.2750  -15.1010 O.2    21  SER21      -0.2866
     12  CB        10.8370   -2.2910  -12.1970 C.3    21  SER21       0.2089
     13  OG         9.4060   -2.4610  -12.2240 O.3    21  SER21      -0.2183
     14  N         11.6250   -8.6520  -12.7580 N.3    28  ASN28      -0.1240
     15  CA        11.1510   -7.2610  -12.6860 C.3    28  ASN28       0.1653
     16  C         12.2800   -6.2870  -12.2880 C.2    28  ASN28       0.2266
     17  O         12.2000   -5.5960  -11.2550 O.2    28  ASN28      -0.2867
     18  CB         9.9990   -7.1810  -11.6900 C.3    28  ASN28       0.1155
     19  CG         9.3350   -5.8270  -11.6650 C.2    28  ASN28       0.2627
     20  OD1        9.3110   -5.1050  -12.6550 O.2    28  ASN28      -0.2716
     21  ND2        8.8180   -5.4540  -10.4970 N.am   28  ASN28      -0.0877
     22  N         15.1130   -3.2070  -12.1640 N.3    30  MET30      -0.1245
     23  CA        15.2030   -1.7810  -12.4360 C.3    30  MET30       0.1570
     24  C         15.9780   -1.5160  -13.7100 C.2    30  MET30       0.2261
     25  O         17.1070   -2.0260  -13.9000 O.2    30  MET30      -0.2867
     26  CB        15.8760   -1.0750  -11.2780 C.3    30  MET30       0.0387
     27  CG        15.0050   -1.1120  -10.0670 C.3    30  MET30       0.0595
     28  SD        15.7270   -0.2740   -8.6570 S.3    30  MET30      -0.1393
     29  CE        17.0080   -1.4210   -8.2880 C.3    30  MET30       0.0692
     30  N         16.4160   -6.4590   -9.3510 N.3    52  ASN52      -0.1225
     31  CA        15.2160   -6.1420   -8.5950 C.3    52  ASN52       0.1785
     32  C         15.5670   -5.2870   -7.3720 C.2    52  ASN52       0.2597
     33  O         16.5880   -5.4940   -6.7290 O.2    52  ASN52      -0.2718
     34  CB        14.5530   -7.4540   -8.1690 C.3    52  ASN52       0.1169
     35  CG        13.1990   -7.2480   -7.5520 C.2    52  ASN52       0.2627
     36  OD1       13.0990   -6.7900   -6.4050 O.2    52  ASN52      -0.2716
     37  ND2       12.1410   -7.5730   -8.3020 N.am   52  ASN52      -0.0877
     38  N         14.7000   -4.3360   -7.0210 N.am   53  CYS53      -0.1956
     39  CA        14.9850   -3.4200   -5.9370 C.3    53  CYS53       0.1843
     40  C         14.9130   -4.0410   -4.5250 C.2    53  CYS53       0.2625
     41  O         15.1060   -3.3350   -3.5250 O.2    53  CYS53      -0.2714
     42  CB        14.0500   -2.1920   -6.0620 C.3    53  CYS53       0.0997
     43  SG        14.7290   -0.6830   -5.3970 S.3    53  CYS53      -0.0797
     44  N         14.6670   -5.3450   -4.4260 N.am   54  ARG54      -0.1977
     45  CA        14.5820   -5.9520   -3.0970 C.3    54  ARG54       0.1597
     46  C         15.9570   -6.0030   -2.3630 C.2    54  ARG54       0.2287
     47  O         16.0270   -6.4010   -1.2000 O.2    54  ARG54      -0.2864
     48  CB        13.9190   -7.3390   -3.1670 C.3    54  ARG54       0.0334
     49  CG        14.7250   -8.3690   -3.9610 C.3    54  ARG54       0.0492
     50  CD        14.1330   -9.7770   -3.8400 C.3    54  ARG54       0.2205
     51  NE        12.7530   -9.7920   -4.2950 N.pl3  54  ARG54      -0.0865
     52  CZ        12.4210  -10.0530   -5.5480 C.cat  54  ARG54       0.5346
     53  NH1       13.3880  -10.3470   -6.4070 N.pl3  54  ARG54       0.1354
     54  NH2       11.1460  -10.0480   -5.9320 N.pl3  54  ARG54       0.1354
     55  N         17.3000   -3.3940   -1.3180 N.3    56  LEU56      -0.1231
     56  CA        17.1510   -2.3860   -0.2760 C.3    56  LEU56       0.1693
     57  C         16.5350   -2.9700    1.0050 C.2    56  LEU56       0.2591
     58  O         16.5210   -2.3070    2.0480 O.2    56  LEU56      -0.2718
     59  CB        16.2760   -1.2380   -0.7600 C.3    56  LEU56       0.0284
     60  CG        16.8710   -0.3850   -1.8800 C.3    56  LEU56       0.0019
     61  CD1       16.0140    0.8660   -2.0570 C.3    56  LEU56       0.0001
     62  CD2       18.3510    0.0080   -1.5820 C.3    56  LEU56       0.0001
     63  N         16.0320   -4.1960    0.9380 N.am   57  GLN57      -0.1979
     64  CA        15.4630   -4.8060    2.1510 C.3    57  GLN57       0.1601
     65  C         16.6000   -5.4110    2.9690 C.2    57  GLN57       0.2287
     66  O         17.6760   -5.7010    2.4370 O.2    57  GLN57      -0.2864
     67  CB        14.3790   -5.8230    1.8010 C.3    57  GLN57       0.0394
     68  CG        13.2350   -5.1810    1.0270 C.3    57  GLN57       0.0908
     69  CD        12.4710   -6.1340    0.1230 C.2    57  GLN57       0.2608
     70  OE1       12.6090   -7.3520    0.2070 O.2    57  GLN57      -0.2717
     71  NE2       11.6370   -5.5640   -0.7520 N.am   57  GLN57      -0.0878
     72  N          6.8350   -6.7180    2.4850 N.3    66  VAL66      -0.1245
     73  CA         7.3690   -7.1850    1.2190 C.3    66  VAL66       0.1561
     74  C          6.2580   -7.8840    0.4230 C.2    66  VAL66       0.2260
     75  O          6.1140   -7.6590   -0.7930 O.2    66  VAL66      -0.2867
     76  CB         8.5900   -8.1410    1.4560 C.3    66  VAL66       0.0252
     77  CG1        9.0940   -8.7670    0.1410 C.3    66  VAL66       0.0019
     78  CG2        9.7130   -7.3680    2.1330 C.3    66  VAL66       0.0019
     79  N          3.8030   -5.3610   -1.0750 N.3    69  ILE69      -0.1231
     80  CA         4.2770   -4.7550   -2.3140 C.3    69  ILE69       0.1692
     81  C          4.0940   -5.7270   -3.4720 C.2    69  ILE69       0.2591
     82  O          3.6250   -5.3320   -4.5530 O.2    69  ILE69      -0.2718
     83  CB         5.7740   -4.3920   -2.1950 C.3    69  ILE69       0.0266
     84  CG1        5.9740   -3.2990   -1.1540 C.3    69  ILE69       0.0019
     85  CG2        6.3330   -3.9490   -3.5640 C.3    69  ILE69       0.0020
     86  CD1        7.4590   -3.1300   -0.6970 C.3    69  ILE69       0.0001
     87  N          4.4660   -6.9930   -3.2660 N.am   70  ARG70      -0.1980
     88  CA         4.3130   -7.9920   -4.3360 C.3    70  ARG70       0.1597
     89  C          2.8600   -8.0680   -4.8260 C.2    70  ARG70       0.2287
     90  O          2.6010   -8.0800   -6.0270 O.2    70  ARG70      -0.2864
     91  CB         4.7240   -9.3620   -3.8480 C.3    70  ARG70       0.0334
     92  CG         4.9850  -10.3260   -5.0060 C.3    70  ARG70       0.0492
     93  CD         5.5830  -11.6170   -4.5070 C.3    70  ARG70       0.2205
     94  NE         4.5170  -12.3680   -3.8880 N.pl3  70  ARG70      -0.0865
     95  CZ         3.8220  -13.3180   -4.5070 C.cat  70  ARG70       0.5346
     96  NH1        4.1290  -13.6690   -5.7510 N.pl3  70  ARG70       0.1354
     97  NH2        2.8430  -13.9350   -3.8630 N.pl3  70  ARG70       0.1354
     98  N          1.8710   -4.9480   -6.7520 N.3    73  LEU73      -0.1245
     99  CA         2.3560   -5.0360   -8.1380 C.3    73  LEU73       0.1561
    100  C          1.4100   -5.9000   -8.9800 C.2    73  LEU73       0.2260
    101  O          1.0510   -5.5340  -10.1090 O.2    73  LEU73      -0.2867
    102  CB         3.7780   -5.6110   -8.1990 C.3    73  LEU73       0.0270
    103  CG         4.8500   -4.7300   -7.5300 C.3    73  LEU73       0.0019
    104  CD1        6.2150   -5.4170   -7.5930 C.3    73  LEU73       0.0001
    105  CD2        4.8910   -3.3450   -8.1580 C.3    73  LEU73       0.0001
    106  N          8.2350    1.0260    4.5780 N.3    83  ILE83      -0.1245
    107  CA         8.9900   -0.2060    4.7100 C.3    83  ILE83       0.1561
    108  C         10.4170    0.1350    5.1640 C.2    83  ILE83       0.2260
    109  O         11.0120    1.1150    4.7080 O.2    83  ILE83      -0.2867
    110  CB         8.9680   -1.0170    3.3850 C.3    83  ILE83       0.0252
    111  CG1        9.6520   -2.3790    3.5490 C.3    83  ILE83       0.0019
    112  CG2        9.5400   -0.2030    2.2150 C.3    83  ILE83       0.0019
    113  CD1        9.3970   -3.2930    2.3530 C.3    83  ILE83       0.0001
    114  N         14.1680    0.0050    5.0270 N.3    85  ASN85      -0.1240
    115  CA        15.1430   -0.2640    3.9780 C.3    85  ASN85       0.1653
    116  C         16.5350    0.0760    4.4810 C.2    85  ASN85       0.2266
    117  O         16.7160    0.6670    5.5460 O.2    85  ASN85      -0.2867
    118  CB        14.8420    0.5570    2.7260 C.3    85  ASN85       0.1155
    119  CG        13.8180   -0.0800    1.7710 C.2    85  ASN85       0.2627
    120  OD1       13.5690    0.5040    0.7380 O.2    85  ASN85      -0.2716
    121  ND2       13.2350   -1.2520    2.0980 N.am   85  ASN85      -0.0877
    122  N         11.4280    3.9330    4.6080 N.3    95  ASN95      -0.1240
    123  CA        11.1800    4.3620    3.2330 C.3    95  ASN95       0.1653
    124  C          9.6640    4.4160    2.9910 C.2    95  ASN95       0.2266
    125  O          8.9980    3.3840    3.0730 O.2    95  ASN95      -0.2867
    126  CB        11.8080    3.3400    2.3030 C.3    95  ASN95       0.1155
    127  CG        11.6110    3.6410    0.8400 C.2    95  ASN95       0.2627
    128  OD1       11.0170    4.6620    0.4410 O.2    95  ASN95      -0.2716
    129  ND2       12.1380    2.7650    0.0150 N.am   95  ASN95      -0.0877
    130  N          7.4860    4.3410    0.2810 N.3    97  LEU97      -0.1245
    131  CA         7.6900    3.8780   -1.0890 C.3    97  LEU97       0.1561
    132  C          6.3560    4.0230   -1.7990 C.2    97  LEU97       0.2260
    133  O          5.3340    3.4670   -1.3470 O.2    97  LEU97      -0.2867
    134  CB         8.1030    2.4220   -1.0760 C.3    97  LEU97       0.0270
    135  CG         8.1340    1.6790   -2.4260 C.3    97  LEU97       0.0019
    136  CD1        9.1260    2.3340   -3.3760 C.3    97  LEU97       0.0001
    137  CD2        8.4850    0.1840   -2.2100 C.3    97  LEU97       0.0001
    138  N          4.4560    3.3910   -5.4930 N.3    99  ILE99      -0.1245
    139  CA         4.5920    2.6730   -6.7690 C.3    99  ILE99       0.1561
    140  C          3.3510    2.9150   -7.5990 C.2    99  ILE99       0.2260
    141  O          2.2170    2.9620   -7.0720 O.2    99  ILE99      -0.2867
    142  CB         4.8850    1.1690   -6.5360 C.3    99  ILE99       0.0252
    143  CG1        6.3460    1.0130   -6.1080 C.3    99  ILE99       0.0019
    144  CG2        4.6390    0.3350   -7.8060 C.3    99  ILE99       0.0019
    145  CD1        6.6780   -0.3280   -5.4790 C.3    99  ILE99       0.0001
    146  N          6.7890   -0.2590  -14.0600 N.3   112  PHE112     -0.1227
    147  CA         6.3570    0.3220  -12.7920 C.3   112  PHE112      0.1736
    148  C          7.2650    1.5130  -12.5060 C.2   112  PHE112      0.2595
    149  O          8.4750    1.4500  -12.7830 O.2   112  PHE112     -0.2718
    150  CB         6.4780   -0.6790  -11.6450 C.3   112  PHE112      0.0547
    151  CG         5.4390   -1.7590  -11.6630 C.ar  112  PHE112     -0.0202
    152  CD1        4.1240   -1.4660  -11.3120 C.ar  112  PHE112     -0.0042
    153  CD2        5.7650   -3.0530  -12.0220 C.ar  112  PHE112     -0.0042
    154  CE1        3.1340   -2.4670  -11.3030 C.ar  112  PHE112     -0.0003
    155  CE2        4.7810   -4.0600  -12.0480 C.ar  112  PHE112     -0.0003
    156  CZ         3.4730   -3.7630  -11.6650 C.ar  112  PHE112     -0.0000
    157  N          6.6990    2.5940  -11.9670 N.am  113  ALA113     -0.1966
    158  CA         7.5100    3.6880  -11.4390 C.3   113  ALA113      0.1728
    159  C          7.4740    3.5840   -9.9270 C.2   113  ALA113      0.2616
    160  O          6.4210    3.2620   -9.3520 O.2   113  ALA113     -0.2715
    161  CB         6.9770    5.0370  -11.9030 C.3   113  ALA113      0.0334
    162  N          8.6140    3.8440   -9.2910 N.am  114  GLY114     -0.1955
    163  CA         8.7270    3.7630   -7.8390 C.3   114  GLY114      0.1869
    164  C          9.4220    4.9920   -7.3370 C.2   114  GLY114      0.2309
    165  O         10.4700    5.3600   -7.8720 O.2   114  GLY114     -0.2863
    166  N         11.0490    6.7590   -3.8260 N.3   116  GLN116     -0.1245
    167  CA        11.4220    6.5360   -2.4310 C.3   116  GLN116      0.1566
    168  C         11.5390    7.8410   -1.6680 C.2   116  GLN116      0.2260
    169  O         12.1600    8.8040   -2.1400 O.2   116  GLN116     -0.2867
    170  CB        12.7420    5.7880   -2.3540 C.3   116  GLN116      0.0367
    171  CG        12.7060    4.3840   -2.9590 C.3   116  GLN116      0.0905
    172  CD        12.9270    4.3680   -4.4580 C.2   116  GLN116      0.2608
    173  OE1       13.3550    5.3630   -5.0660 O.2   116  GLN116     -0.2717
    174  NE2       12.6350    3.2340   -5.0690 N.am  116  GLN116     -0.0878
@<TRIPOS>BOND
     1    11    10    2
     2    10     9    1
     3   146   147    1
     4    25    24    2
     5    24    23    1
     6     9     8    1
     7     9    12    1
     8   147   148    1
     9   147   150    1
    10   149   148    2
    11    14    15    1
    12    15    16    1
    13    15    18    1
    14    20    19    2
    15   148   157   am
    16    23    22    1
    17    23    26    1
    18    16    17    2
    19    13    12    1
    20   155   153   ar
    21   155   156   ar
    22   153   151   ar
    23   157   158    1
    24   161   158    1
    25    18    19    1
    26   156   154   ar
    27    19    21   am
    28   151   150    1
    29   151   152   ar
    30   158   159    1
    31   152   154   ar
    32    26    27    1
    33     3     4    2
    34     3     2    1
    35     2     1    1
    36     2     5    1
    37   101   100    2
    38    27    28    1
    39   159   160    2
    40   159   162   am
    41     5     7    1
    42     5     6    1
    43    30    31    1
    44   162   163    1
    45   100    99    1
    46    28    29    1
    47    31    34    1
    48    31    32    1
    49    37    35   am
    50   102    99    1
    51   102   103    1
    52    34    35    1
    53   105   103    1
    54    99    98    1
    55   165   164    2
    56   163   164    1
    57   144   142    1
    58   140   141    2
    59   140   139    1
    60   104   103    1
    61    35    36    2
    62    32    38   am
    63    32    33    2
    64    38    39    1
    65   139   142    1
    66   139   138    1
    67   142   143    1
    68    53    52    1
    69   143   145    1
    70    42    39    1
    71    42    43    1
    72    90    89    2
    73    39    40    1
    74    54    52    1
    75    96    95    1
    76    52    51    2
    77   174   172   am
    78   173   172    2
    79    92    93    1
    80    92    91    1
    81    89    88    1
    82    82    81    2
    83    40    44   am
    84    40    41    2
    85    95    94    2
    86    95    97    1
    87    93    94    1
    88   172   171    1
    89    44    45    1
    90    88    91    1
    91    88    87    1
    92    51    50    1
    93    49    50    1
    94    49    48    1
    95   166   167    1
    96    85    83    1
    97    81    87   am
    98    81    80    1
    99   136   135    1
   100    48    45    1
   101    45    46    1
   102   171   170    1
   103   167   170    1
   104   167   168    1
   105   135   137    1
   106   135   134    1
   107    46    47    2
   108    80    83    1
   109    80    79    1
   110    83    84    1
   111   169   168    2
   112    61    60    1
   113    60    62    1
   114    60    59    1
   115   132   133    2
   116   132   131    1
   117    55    56    1
   118    84    86    1
   119   131   134    1
   120   131   130    1
   121    75    74    2
   122    59    56    1
   123    71    69   am
   124    56    57    1
   125   129   127   am
   126    69    70    2
   127    69    68    1
   128    77    76    1
   129    74    73    1
   130   128   127    2
   131   120   119    2
   132   127   126    1
   133    63    57   am
   134    63    64    1
   135    57    58    2
   136    68    67    1
   137    73    76    1
   138    73    72    1
   139    76    78    1
   140   119   121   am
   141   119   118    1
   142    67    64    1
   143    64    65    1
   144   112   110    1
   145   126   123    1
   146   113   111    1
   147    66    65    2
   148   118   115    1
   149   124   125    2
   150   124   123    1
   151   123   122    1
   152   110   111    1
   153   110   107    1
   154   115   116    1
   155   115   114    1
   156   116   117    2
   157   106   107    1
   158   109   108    2
   159   107   108    1
