@<TRIPOS>MOLECULE
tmp/4kupA01.pdb
 76 69 0 0 0
SMALL
GASTEIGER

@<TRIPOS>ATOM
      1  N         24.1790   -8.6170   53.2170 N.3    10  ILE10      -0.1231
      2  CA        23.0960   -9.0200   54.0980 C.3    10  ILE10       0.1692
      3  C         21.7840   -9.2600   53.3550 C.2    10  ILE10       0.2592
      4  O         20.8750   -9.8710   53.9160 O.2    10  ILE10      -0.2718
      5  CB        22.8350   -8.0020   55.2360 C.3    10  ILE10       0.0266
      6  CG1       22.3560   -6.6430   54.6880 C.3    10  ILE10       0.0019
      7  CG2       24.0720   -7.8670   56.1450 C.3    10  ILE10       0.0020
      8  CD1       21.7640   -5.7210   55.7890 C.3    10  ILE10       0.0001
      9  N         21.6800   -8.7930   52.1100 N.am   11  ASP11      -0.1974
     10  CA        20.4400   -8.8830   51.3590 C.3    11  ASP11       0.1709
     11  C         20.7650   -8.7180   49.8790 C.2    11  ASP11       0.2293
     12  O         21.9290   -8.5420   49.5130 O.2    11  ASP11      -0.2864
     13  CB        19.3930   -7.8730   51.8690 C.3    11  ASP11       0.1436
     14  CG        19.7990   -6.4100   51.6940 C.2    11  ASP11       0.3671
     15  OD1       20.6560   -6.0760   50.8300 O.co2  11  ASP11      -0.2456
     16  OD2       19.2260   -5.5830   52.4490 O.co2  11  ASP11      -0.2456
     17  N         20.3660   -6.4220   47.8540 N.3    13  LEU13      -0.1245
     18  CA        20.7370   -5.0800   47.3900 C.3    13  LEU13       0.1561
     19  C         22.1250   -4.6520   47.8360 C.2    13  LEU13       0.2260
     20  O         22.5390   -3.5320   47.5370 O.2    13  LEU13      -0.2867
     21  CB        19.7480   -4.0440   47.9120 C.3    13  LEU13       0.0270
     22  CG        18.2740   -4.1590   47.5150 C.3    13  LEU13       0.0019
     23  CD1       17.4670   -3.0860   48.2250 C.3    13  LEU13       0.0001
     24  CD2       18.1010   -4.0460   46.0070 C.3    13  LEU13       0.0001
     25  N         22.8840   -3.9900   50.9310 N.3    15  ASP15      -0.1225
     26  CA        22.6800   -2.8870   51.8760 C.3    15  ASP15       0.1805
     27  C         23.7860   -2.7630   52.9150 C.2    15  ASP15       0.2597
     28  O         24.0690   -1.6670   53.4090 O.2    15  ASP15      -0.2718
     29  CB        21.3230   -2.9890   52.5510 C.3    15  ASP15       0.1424
     30  CG        20.2140   -2.5030   51.6590 C.2    15  ASP15       0.3668
     31  OD1       20.3870   -1.4430   51.0110 O.co2  15  ASP15      -0.2456
     32  OD2       19.1490   -3.1590   51.6060 O.co2  15  ASP15      -0.2456
     33  N         24.4040   -3.8930   53.2550 N.am   16  ALA16      -0.1979
     34  CA        25.5760   -3.9220   54.1270 C.3    16  ALA16       0.1597
     35  C         26.2340   -5.2740   53.9310 C.2    16  ALA16       0.2287
     36  O         25.6600   -6.1630   53.2840 O.2    16  ALA16      -0.2864
     37  CB        25.2000   -3.7080   55.5930 C.3    16  ALA16       0.0319
     38  N         29.5190   -5.9500   61.0950 N.3    33  ASP33      -0.1239
     39  CA        29.6270   -5.0450   59.9490 C.3    33  ASP33       0.1674
     40  C         30.9340   -4.2730   60.1050 C.2    33  ASP33       0.2266
     41  O         31.0650   -3.4260   60.9950 O.2    33  ASP33      -0.2867
     42  CB        28.4260   -4.0980   59.9870 C.3    33  ASP33       0.1410
     43  CG        28.3020   -3.2310   58.7710 C.2    33  ASP33       0.3668
     44  OD1       29.2930   -3.0390   58.0380 O.co2  33  ASP33      -0.2456
     45  OD2       27.1780   -2.6980   58.5890 O.co2  33  ASP33      -0.2456
     46  N         17.8760   -4.5420   61.8840 N.3   119  ASP119     -0.1239
     47  CA        18.8450   -5.2390   61.0330 C.3   119  ASP119      0.1674
     48  C         19.1980   -6.5670   61.7360 C.2   119  ASP119      0.2266
     49  O         20.2440   -6.6650   62.3760 O.2   119  ASP119     -0.2867
     50  CB        20.1150   -4.3970   60.8420 C.3   119  ASP119      0.1410
     51  CG        19.8980   -3.1630   59.9740 C.2   119  ASP119      0.3668
     52  OD1       18.8670   -3.0750   59.2680 O.co2 119  ASP119     -0.2456
     53  OD2       20.7690   -2.2640   59.9940 O.co2 119  ASP119     -0.2456
     54  N         22.7800   -8.1350   61.3910 N.3   122  ILE122     -0.1245
     55  CA        23.9820   -7.4420   61.8630 C.3   122  ILE122      0.1561
     56  C         24.0800   -7.5570   63.3800 C.2   122  ILE122      0.2260
     57  O         23.2290   -7.0230   64.1110 O.2   122  ILE122     -0.2867
     58  CB        23.9950   -5.9580   61.4010 C.3   122  ILE122      0.0252
     59  CG1       24.0830   -5.8920   59.8690 C.3   122  ILE122      0.0019
     60  CG2       25.1530   -5.1920   62.0690 C.3   122  ILE122      0.0019
     61  CD1       23.9060   -4.5030   59.2850 C.3   122  ILE122      0.0001
     62  N         26.2870    2.4370   52.8770 N.3   223  THR223     -0.1203
     63  CA        25.8270    1.6960   51.7040 C.3   223  THR223      0.1994
     64  C         26.1330    2.4280   50.3990 C.2   223  THR223      0.2617
     65  O         26.6140    1.8230   49.4290 O.2   223  THR223     -0.2717
     66  CB        24.3100    1.4530   51.7700 C.3   223  THR223      0.1784
     67  OG1       23.9610    0.9660   53.0700 O.3   223  THR223     -0.2211
     68  CG2       23.8750    0.4640   50.6820 C.3   223  THR223      0.0376
     69  N         25.8000    3.7190   50.3640 N.am  224  LEU224     -0.1979
     70  CA        25.7610    4.4930   49.1120 C.3   224  LEU224      0.1596
     71  C         26.9540    5.4230   48.9070 C.2   224  LEU224      0.2287
     72  O         27.8410    5.5190   49.7630 O.2   224  LEU224     -0.2864
     73  CB        24.4570    5.2740   49.0460 C.3   224  LEU224      0.0297
     74  CG        23.1730    4.4390   49.1950 C.3   224  LEU224      0.0022
     75  CD1       21.9410    5.3270   49.0000 C.3   224  LEU224      0.0001
     76  CD2       23.1210    3.2170   48.2560 C.3   224  LEU224      0.0001
@<TRIPOS>BOND
     1    24    22    1
     2    18    19    1
     3    18    17    1
     4    18    21    1
     5    22    21    1
     6    22    23    1
     7    20    19    2
     8    76    74    1
     9    71    70    1
    10    71    72    2
    11    75    74    1
    12    73    70    1
    13    73    74    1
    14    70    69    1
    15    65    64    2
    16    12    11    2
    17    11    10    1
    18    69    64   am
    19    64    63    1
    20    68    66    1
    21    15    14   ar
    22    25    26    1
    23    31    30   ar
    24    10    13    1
    25    10     9    1
    26    32    30   ar
    27    30    29    1
    28    14    13    1
    29    14    16   ar
    30    63    66    1
    31    63    62    1
    32    66    67    1
    33    26    29    1
    34    26    27    1
    35     9     3   am
    36    27    33   am
    37    27    28    2
    38     1     2    1
    39    33    34    1
    40    36    35    2
    41     3     4    2
    42     3     2    1
    43    35    34    1
    44     2     5    1
    45    34    37    1
    46     6     5    1
    47     6     8    1
    48     5     7    1
    49    44    43   ar
    50    45    43   ar
    51    43    42    1
    52    52    51   ar
    53    61    59    1
    54    59    58    1
    55    39    42    1
    56    39    40    1
    57    39    38    1
    58    51    53   ar
    59    51    50    1
    60    40    41    2
    61    50    47    1
    62    47    48    1
    63    47    46    1
    64    54    55    1
    65    58    55    1
    66    58    60    1
    67    48    49    2
    68    55    56    1
    69    56    57    2
