@<TRIPOS>MOLECULE
tmp/4kuxD00.pdb
 201 190 0 0 0
SMALL
GASTEIGER

@<TRIPOS>ATOM
      1  N        -37.6870   96.6400   10.8560 N.3    50  VAL50      -0.1245
      2  CA       -37.6380   95.2590   10.3800 C.3    50  VAL50       0.1561
      3  C        -36.7550   94.4390   11.2950 C.2    50  VAL50       0.2260
      4  O        -37.0640   93.2790   11.6010 O.2    50  VAL50      -0.2867
      5  CB       -37.1720   95.1250    8.8990 C.3    50  VAL50       0.0252
      6  CG1      -35.7260   95.5530    8.7150 C.3    50  VAL50       0.0019
      7  CG2      -37.3420   93.6660    8.4300 C.3    50  VAL50       0.0019
      8  N        -37.5420   91.0640   13.2490 N.3    54  TYR54      -0.1241
      9  CA       -36.7270   89.8610   13.1650 C.3    54  TYR54       0.1605
     10  C        -36.3430   89.2950   14.5210 C.2    54  TYR54       0.2264
     11  O        -36.3020   88.0830   14.6890 O.2    54  TYR54      -0.2867
     12  CB       -35.4540   90.1140   12.3690 C.3    54  TYR54       0.0534
     13  CG       -35.5880   89.8360   10.8840 C.ar   54  TYR54      -0.0201
     14  CD1      -34.6900   88.9830   10.2410 C.ar   54  TYR54      -0.0009
     15  CD2      -36.6030   90.4160   10.1340 C.ar   54  TYR54      -0.0009
     16  CE1      -34.7900   88.7270    8.8780 C.ar   54  TYR54       0.0417
     17  CE2      -36.7140   90.1670    8.7690 C.ar   54  TYR54       0.0417
     18  CZ       -35.8010   89.3250    8.1450 C.ar   54  TYR54       0.1957
     19  OH       -35.8880   89.0540    6.7810 O.3    54  TYR54      -0.2866
     20  N        -27.7490   95.6320   10.7570 N.3    70  LEU70      -0.1245
     21  CA       -28.5730   95.3710    9.5820 C.3    70  LEU70       0.1561
     22  C        -28.7480   96.6290    8.7650 C.2    70  LEU70       0.2260
     23  O        -28.8040   96.5550    7.5350 O.2    70  LEU70      -0.2867
     24  CB       -29.9260   94.7830    9.9610 C.3    70  LEU70       0.0270
     25  CG       -29.8450   93.3910   10.5800 C.3    70  LEU70       0.0019
     26  CD1      -31.2230   92.8110   10.6080 C.3    70  LEU70       0.0001
     27  CD2      -28.8950   92.4890    9.7990 C.3    70  LEU70       0.0001
     28  N        -25.6980   97.0610    6.7140 N.3    73  LEU73      -0.1231
     29  CA       -25.5550   96.0190    5.6960 C.3    73  LEU73       0.1693
     30  C        -26.5020   96.3020    4.5370 C.2    73  LEU73       0.2592
     31  O        -26.1400   96.1390    3.3610 O.2    73  LEU73      -0.2718
     32  CB       -25.8070   94.6420    6.2950 C.3    73  LEU73       0.0284
     33  CG       -24.5790   93.8540    6.7590 C.3    73  LEU73       0.0019
     34  CD1      -23.5870   94.7420    7.3950 C.3    73  LEU73       0.0001
     35  CD2      -25.0130   92.7700    7.7340 C.3    73  LEU73       0.0001
     36  N        -27.7030   96.7390    4.8810 N.am   74  PHE74      -0.1976
     37  CA       -28.6870   97.2000    3.9130 C.3    74  PHE74       0.1639
     38  C        -28.1790   98.3860    3.0720 C.2    74  PHE74       0.2290
     39  O        -28.3350   98.4220    1.8430 O.2    74  PHE74      -0.2864
     40  CB       -29.9470   97.6240    4.6490 C.3    74  PHE74       0.0560
     41  CG       -31.1360   96.6970    4.4630 C.ar   74  PHE74      -0.0200
     42  CD1      -32.0080   96.4580    5.5200 C.ar   74  PHE74      -0.0042
     43  CD2      -31.4040   96.0970    3.2400 C.ar   74  PHE74      -0.0042
     44  CE1      -33.1350   95.6370    5.3640 C.ar   74  PHE74      -0.0003
     45  CE2      -32.5210   95.2600    3.0870 C.ar   74  PHE74      -0.0003
     46  CZ       -33.3780   95.0330    4.1480 C.ar   74  PHE74      -0.0000
     47  N        -25.7250   97.0330    0.7790 N.3    77  ASP77      -0.1239
     48  CA       -26.5090   96.2870   -0.1980 C.3    77  ASP77       0.1674
     49  C        -26.8790   97.1790   -1.3790 C.2    77  ASP77       0.2266
     50  O        -26.6160   96.8420   -2.5290 O.2    77  ASP77      -0.2867
     51  CB       -27.7980   95.7380    0.4610 C.3    77  ASP77       0.1410
     52  CG       -28.5800   94.7600   -0.4550 C.2    77  ASP77       0.3668
     53  OD1      -28.0180   93.6850   -0.7550 O.co2  77  ASP77      -0.2456
     54  OD2      -29.7510   95.0640   -0.8180 O.co2  77  ASP77      -0.2456
     55  N        -25.1980   97.6440   -5.8240 N.3    81  GLU81      -0.1245
     56  CA       -25.9610   97.5060   -7.0640 C.3    81  GLU81       0.1567
     57  C        -25.3480   98.3660   -8.1610 C.2    81  GLU81       0.2260
     58  O        -25.6300   98.1750   -9.3390 O.2    81  GLU81      -0.2867
     59  CB       -27.4220   97.9060   -6.8740 C.3    81  GLU81       0.0388
     60  CG       -28.2680   96.8140   -6.2400 C.3    81  GLU81       0.1160
     61  CD       -29.6330   97.3120   -5.8450 C.2    81  GLU81       0.3649
     62  OE1      -29.8250   98.5450   -5.7780 O.co2  81  GLU81      -0.2457
     63  OE2      -30.5250   96.4750   -5.6170 O.co2  81  GLU81      -0.2457
     64  N        -21.9070   86.0460    3.7090 N.3   140  PHE140     -0.1241
     65  CA       -22.9950   86.7110    3.0260 C.3   140  PHE140      0.1605
     66  C        -22.4710   87.8170    2.1020 C.2   140  PHE140      0.2264
     67  O        -22.9670   88.0050    0.9880 O.2   140  PHE140     -0.2867
     68  CB       -23.9910   87.2660    4.0490 C.3   140  PHE140      0.0534
     69  CG       -24.5030   88.6280    3.7060 C.ar  140  PHE140     -0.0203
     70  CD1      -25.5560   88.7800    2.8200 C.ar  140  PHE140     -0.0042
     71  CD2      -23.9200   89.7620    4.2590 C.ar  140  PHE140     -0.0042
     72  CE1      -26.0150   90.0440    2.4840 C.ar  140  PHE140     -0.0003
     73  CE2      -24.3730   91.0270    3.9320 C.ar  140  PHE140     -0.0003
     74  CZ       -25.4200   91.1720    3.0470 C.ar  140  PHE140     -0.0000
     75  N        -29.4210   81.4710   -2.7440 N.3   162  ARG162     -0.1245
     76  CA       -29.9690   82.6450   -2.0500 C.3   162  ARG162      0.1563
     77  C        -29.7900   82.5940   -0.5460 C.2   162  ARG162      0.2260
     78  O        -29.8170   83.6310    0.1180 O.2   162  ARG162     -0.2867
     79  CB       -31.4330   82.9540   -2.4140 C.3   162  ARG162      0.0307
     80  CG       -31.5650   84.3300   -3.1380 C.3   162  ARG162      0.0489
     81  CD       -32.6170   85.2890   -2.5640 C.3   162  ARG162      0.2205
     82  NE       -31.9800   86.3980   -1.8920 N.pl3 162  ARG162     -0.0865
     83  CZ       -32.5900   87.4640   -1.3760 C.cat 162  ARG162      0.5346
     84  NH1      -33.9140   87.6550   -1.4440 N.pl3 162  ARG162      0.1354
     85  NH2      -31.8400   88.3600   -0.7740 N.pl3 162  ARG162      0.1354
     86  N        -26.9660   84.7560    0.0880 N.3   165  ASP165     -0.1225
     87  CA       -27.1870   86.1540   -0.3080 C.3   165  ASP165      0.1805
     88  C        -28.2570   86.8330    0.5510 C.2   165  ASP165      0.2597
     89  O        -28.2700   88.0600    0.6860 O.2   165  ASP165     -0.2718
     90  CB       -27.5310   86.2850   -1.8110 C.3   165  ASP165      0.1424
     91  CG       -27.7620   87.7460   -2.2450 C.2   165  ASP165      0.3668
     92  OD1      -26.7990   88.5470   -2.2290 O.co2 165  ASP165     -0.2456
     93  OD2      -28.9100   88.0910   -2.6000 O.co2 165  ASP165     -0.2456
     94  N        -29.1500   86.0370    1.1300 N.am  166  VAL166     -0.1980
     95  CA       -30.1680   86.5800    2.0230 C.3   166  VAL166      0.1595
     96  C        -29.6060   86.7480    3.4530 C.2   166  VAL166      0.2287
     97  O        -30.1870   87.4620    4.2910 O.2   166  VAL166     -0.2864
     98  CB       -31.4200   85.6770    2.0590 C.3   166  VAL166      0.0276
     99  CG1      -31.2160   84.4680    2.9780 C.3   166  VAL166      0.0022
    100  CG2      -32.6310   86.4570    2.4980 C.3   166  VAL166      0.0022
    101  N        -26.2090   84.7040    8.9730 N.3   170  LEU170     -0.1231
    102  CA       -25.8480   85.9000    9.7260 C.3   170  LEU170      0.1693
    103  C        -27.0360   86.2910   10.6010 C.2   170  LEU170      0.2591
    104  O        -26.8530   86.7190   11.7390 O.2   170  LEU170     -0.2718
    105  CB       -25.3770   87.0580    8.8310 C.3   170  LEU170      0.0284
    106  CG       -26.3610   88.1090    8.3040 C.3   170  LEU170      0.0019
    107  CD1      -26.6570   89.2100    9.3160 C.3   170  LEU170      0.0001
    108  CD2      -25.8170   88.7180    7.0190 C.3   170  LEU170      0.0001
    109  N        -28.2490   86.1230   10.0890 N.am  171  LEU171     -0.1980
    110  CA       -29.4390   86.4450   10.8690 C.3   171  LEU171      0.1596
    111  C        -29.5820   85.5030   12.0530 C.2   171  LEU171      0.2287
    112  O        -30.1570   85.8680   13.0880 O.2   171  LEU171     -0.2864
    113  CB       -30.6910   86.3790   10.0080 C.3   171  LEU171      0.0297
    114  CG       -30.7590   87.4820    8.9610 C.3   171  LEU171      0.0022
    115  CD1      -31.8490   87.1660    7.9490 C.3   171  LEU171      0.0001
    116  CD2      -31.0120   88.8250    9.6500 C.3   171  LEU171      0.0001
    117  N        -37.7230   83.1400    3.7250 N.3   202  LEU202     -0.1245
    118  CA       -37.2540   84.5230    3.8590 C.3   202  LEU202      0.1561
    119  C        -36.8970   85.0770    2.4850 C.2   202  LEU202      0.2260
    120  O        -37.3090   86.1760    2.1310 O.2   202  LEU202     -0.2867
    121  CB       -36.0420   84.6090    4.7790 C.3   202  LEU202      0.0270
    122  CG       -36.2310   84.3030    6.2720 C.3   202  LEU202      0.0019
    123  CD1      -34.8590   84.2660    6.9080 C.3   202  LEU202      0.0001
    124  CD2      -37.1450   85.3260    6.9540 C.3   202  LEU202      0.0001
    125  N        -39.2380   87.9880    0.4890 N.3   206  ASN206     -0.1240
    126  CA       -38.5580   89.1990    0.0760 C.3   206  ASN206      0.1653
    127  C        -38.5770   89.3640   -1.4600 C.2   206  ASN206      0.2266
    128  O        -38.7630   90.4700   -1.9720 O.2   206  ASN206     -0.2867
    129  CB       -37.1210   89.2080    0.5290 C.3   206  ASN206      0.1155
    130  CG       -36.3540   90.3530   -0.0940 C.2   206  ASN206      0.2627
    131  OD1      -35.6710   90.1770   -1.1090 O.2   206  ASN206     -0.2716
    132  ND2      -36.5170   91.5440    0.4650 N.am  206  ASN206     -0.0877
    133  N        -40.0530   92.7720   -3.0810 N.3   210  SER210     -0.1217
    134  CA       -38.9910   93.6220   -3.6350 C.3   210  SER210      0.1889
    135  C        -38.8570   93.5300   -5.1640 C.2   210  SER210      0.2288
    136  O        -38.0070   94.2040   -5.7480 O.2   210  SER210     -0.2866
    137  CB       -37.6430   93.3560   -2.9520 C.3   210  SER210      0.2089
    138  OG       -37.1220   92.0560   -3.2000 O.3   210  SER210     -0.2183
    139  N        -38.9400   96.9300   -7.2170 N.3   213  LYS213     -0.1231
    140  CA       -37.7090   97.6540   -6.9190 C.3   213  LYS213      0.1693
    141  C        -36.5190   97.0160   -7.6430 C.2   213  LYS213      0.2591
    142  O        -35.6880   97.7000   -8.2470 O.2   213  LYS213     -0.2718
    143  CB       -37.4600   97.6500   -5.3960 C.3   213  LYS213      0.0285
    144  CG       -36.2160   98.4150   -4.9400 C.3   213  LYS213      0.0035
    145  CD       -35.9990   98.2830   -3.4080 C.3   213  LYS213      0.0206
    146  CE       -35.3150   96.9950   -3.0410 C.3   213  LYS213      0.1093
    147  NZ       -33.8680   96.9960   -3.4470 N.3   213  LYS213     -0.1314
    148  N        -36.4280   95.6980   -7.5870 N.am  214  GLU214     -0.1979
    149  CA       -35.2870   95.0210   -8.1770 C.3   214  GLU214      0.1602
    150  C        -35.3010   94.9840   -9.7100 C.2   214  GLU214      0.2287
    151  O        -34.2440   94.9150  -10.3570 O.2   214  GLU214     -0.2864
    152  CB       -35.1300   93.6440   -7.5540 C.3   214  GLU214      0.0415
    153  CG       -34.6780   93.7570   -6.1050 C.3   214  GLU214      0.1163
    154  CD       -34.7130   92.4440   -5.3840 C.2   214  GLU214      0.3649
    155  OE1      -35.1600   91.4440   -5.9940 O.co2 214  GLU214     -0.2457
    156  OE2      -34.2740   92.4000   -4.2120 O.co2 214  GLU214     -0.2457
    157  N        -40.5440   89.3730    8.7170 N.3   292  ASN292     -0.1240
    158  CA       -40.0970   89.6960    7.3670 C.3   292  ASN292      0.1653
    159  C        -41.2920   89.9930    6.4960 C.2   292  ASN292      0.2266
    160  O        -41.3040   90.9770    5.7680 O.2   292  ASN292     -0.2867
    161  CB       -39.2870   88.5330    6.7920 C.3   292  ASN292      0.1155
    162  CG       -38.6540   88.8580    5.4480 C.2   292  ASN292      0.2627
    163  OD1      -37.9690   89.8730    5.2980 O.2   292  ASN292     -0.2716
    164  ND2      -38.8830   87.9960    4.4600 N.am  292  ASN292     -0.0877
    165  N        -43.1450   93.4590    7.5560 N.3   295  TRP295     -0.1241
    166  CA       -42.3820   94.6460    7.1650 C.3   295  TRP295      0.1605
    167  C        -42.3930   94.7790    5.6440 C.2   295  TRP295      0.2264
    168  O        -42.6780   95.8450    5.1020 O.2   295  TRP295     -0.2867
    169  CB       -40.9460   94.5090    7.6620 C.3   295  TRP295      0.0550
    170  CG       -40.0630   95.6500    7.2340 C.ar  295  TRP295      0.0003
    171  CD1      -40.0210   96.9140    7.7770 C.ar  295  TRP295      0.0946
    172  CD2      -39.1020   95.6380    6.1730 C.ar  295  TRP295      0.0152
    173  NE1      -39.0840   97.6770    7.1180 N.ar  295  TRP295     -0.2442
    174  CE2      -38.4990   96.9160    6.1370 C.ar  295  TRP295      0.0810
    175  CE3      -38.6700   94.6630    5.2660 C.ar  295  TRP295      0.0012
    176  CZ2      -37.5050   97.2460    5.2140 C.ar  295  TRP295      0.0191
    177  CZ3      -37.6750   94.9920    4.3530 C.ar  295  TRP295      0.0001
    178  CH2      -37.1070   96.2780    4.3350 C.ar  295  TRP295      0.0015
    179  N        -40.0500  101.1930    1.2010 N.3   301  ARG301     -0.1231
    180  CA       -38.8900  100.8250    0.3880 C.3   301  ARG301      0.1694
    181  C        -39.3270   99.9530   -0.7850 C.2   301  ARG301      0.2592
    182  O        -38.6960   99.9550   -1.8490 O.2   301  ARG301     -0.2718
    183  CB       -37.8650  100.0640    1.2310 C.3   301  ARG301      0.0321
    184  CG       -36.7300   99.3580    0.4680 C.3   301  ARG301      0.0489
    185  CD       -35.8350   98.6240    1.4100 C.3   301  ARG301      0.2205
    186  NE       -34.7860   97.8020    0.7920 N.pl3 301  ARG301     -0.0865
    187  CZ       -33.5880   98.2460    0.4120 C.cat 301  ARG301      0.5346
    188  NH1      -33.2810   99.5260    0.5450 N.pl3 301  ARG301      0.1354
    189  NH2      -32.6890   97.4020   -0.0940 N.pl3 301  ARG301      0.1354
    190  N        -40.3960   99.1880   -0.5900 N.am  302  TYR302     -0.1976
    191  CA       -40.8550   98.3060   -1.6730 C.3   302  TYR302      0.1639
    192  C        -42.0440   98.8640   -2.4360 C.2   302  TYR302      0.2290
    193  O        -42.2520   98.5200   -3.6090 O.2   302  TYR302     -0.2864
    194  CB       -41.1860   96.9300   -1.1300 C.3   302  TYR302      0.0560
    195  CG       -40.0100   96.2440   -0.5070 C.ar  302  TYR302     -0.0198
    196  CD1      -38.7230   96.4310   -1.0040 C.ar  302  TYR302     -0.0009
    197  CD2      -40.1810   95.4170    0.6050 C.ar  302  TYR302     -0.0009
    198  CE1      -37.6380   95.7970   -0.4200 C.ar  302  TYR302      0.0417
    199  CE2      -39.1060   94.7930    1.1970 C.ar  302  TYR302      0.0417
    200  CZ       -37.8430   94.9850    0.6880 C.ar  302  TYR302      0.1957
    201  OH       -36.7830   94.3510    1.2790 O.3   302  TYR302     -0.2866
@<TRIPOS>BOND
     1   151   150    2
     2   150   149    1
     3    58    57    2
     4   142   141    2
     5   149   148    1
     6   149   152    1
     7    57    56    1
     8   141   148   am
     9   141   140    1
    10   152   153    1
    11   139   140    1
    12    56    59    1
    13    56    55    1
    14   140   143    1
    15    59    60    1
    16    60    61    1
    17   153   154    1
    18   155   154   ar
    19    61    62   ar
    20    61    63   ar
    21   136   135    2
    22   143   144    1
    23   154   156   ar
    24   135   134    1
    25   144   145    1
    26   134   133    1
    27   134   137    1
    28   193   192    2
    29   147   146    1
    30   145   146    1
    31   138   137    1
    32    80    81    1
    33    80    79    1
    34    75    76    1
    35    93    91   ar
    36    81    82    1
    37    50    49    2
    38   192   191    1
    39    79    76    1
    40    91    92   ar
    41    91    90    1
    42    76    77    1
    43   128   127    2
    44    82    83    2
    45   182   181    2
    46    90    87    1
    47   191   194    1
    48   191   190    1
    49   127   126    1
    50    84    83    1
    51    49    48    1
    52    83    85    1
    53   194   195    1
    54   131   130    2
    55   196   195   ar
    56   196   198   ar
    57    54    52   ar
    58   181   190   am
    59   181   180    1
    60    53    52   ar
    61    77    78    2
    62   195   197   ar
    63    52    51    1
    64   198   200   ar
    65    87    86    1
    66    87    88    1
    67    48    51    1
    68    48    47    1
    69   130   132   am
    70   130   129    1
    71   189   187    1
    72   126   125    1
    73   126   129    1
    74   180   179    1
    75   180   183    1
    76   187   188    1
    77   187   186    2
    78   184   183    1
    79   184   185    1
    80    88    89    2
    81    88    94   am
    82   197   199   ar
    83   200   199   ar
    84   200   201    1
    85   186   185    1
    86    67    66    2
    87    94    95    1
    88    39    38    2
    89    95    98    1
    90    95    96    1
    91    98   100    1
    92    98    99    1
    93    66    65    1
    94   120   119    2
    95    72    70   ar
    96    72    74   ar
    97   119   118    1
    98    70    69   ar
    99    65    64    1
   100    65    68    1
   101    74    73   ar
   102    38    37    1
   103    45    43   ar
   104    45    46   ar
   105    43    41   ar
   106    31    30    2
   107    96    97    2
   108    69    68    1
   109    69    71   ar
   110   117   118    1
   111   118   121    1
   112    37    40    1
   113    37    36    1
   114    73    71   ar
   115    46    44   ar
   116   178   177   ar
   117   178   176   ar
   118   177   175   ar
   119   164   162   am
   120    41    40    1
   121    41    42   ar
   122    30    36   am
   123    30    29    1
   124   121   122    1
   125   168   167    2
   126   176   174   ar
   127   175   172   ar
   128   163   162    2
   129    44    42   ar
   130   162   161    1
   131   167   166    1
   132    29    32    1
   133    29    28    1
   134   160   159    2
   135   174   172   ar
   136   174   173   ar
   137   172   170   ar
   138   122   123    1
   139   122   124    1
   140    32    33    1
   141   159   158    1
   142    33    34    1
   143    33    35    1
   144    19    18    1
   145   161   158    1
   146   108   106    1
   147   173   171   ar
   148   166   165    1
   149   166   169    1
   150   170   169    1
   151   170   171   ar
   152   158   157    1
   153    23    22    2
   154   115   114    1
   155    18    17   ar
   156    18    16   ar
   157   106   105    1
   158   106   107    1
   159     7     5    1
   160     6     5    1
   161    22    21    1
   162    17    15   ar
   163   105   102    1
   164    16    14   ar
   165     5     2    1
   166   114   116    1
   167   114   113    1
   168   101   102    1
   169    21    24    1
   170    21    20    1
   171   102   103    1
   172    27    25    1
   173    24    25    1
   174   113   110    1
   175   109   103   am
   176   109   110    1
   177    15    13   ar
   178    14    13   ar
   179     2     1    1
   180     2     3    1
   181    25    26    1
   182   103   104    2
   183   110   111    1
   184    13    12    1
   185     3     4    2
   186   111   112    2
   187    12     9    1
   188     9     8    1
   189     9    10    1
   190    10    11    2
