@<TRIPOS>MOLECULE
tmp/4kuyA00.pdb
 143 140 0 0 0
SMALL
GASTEIGER

@<TRIPOS>ATOM
      1  N         -0.5910   -2.2340    6.4120 N.3    61  HIS61      -0.1241
      2  CA        -0.7460   -3.0670    7.6200 C.3    61  HIS61       0.1621
      3  C         -2.1850   -3.5110    7.9070 C.2    61  HIS61       0.2264
      4  O         -2.3960   -4.4750    8.6480 O.2    61  HIS61      -0.2867
      5  CB        -0.1430   -2.3910    8.8560 C.3    61  HIS61       0.0745
      6  CG        -0.4280   -0.9280    8.9630 C.ar   61  HIS61       0.0817
      7  ND1       -1.4480   -0.4210    9.7370 N.ar   61  HIS61      -0.2268
      8  CD2        0.1980    0.1410    8.4170 C.ar   61  HIS61       0.1154
      9  CE1       -1.4420    0.8990    9.6530 C.ar   61  HIS61       0.1986
     10  NE2       -0.4560    1.2630    8.8570 N.ar   61  HIS61      -0.2212
     11  N        -12.4730    6.1980   11.1920 N.3    89  GLN89      -0.1245
     12  CA       -12.2170    5.0270   10.3720 C.3    89  GLN89       0.1566
     13  C        -12.4770    3.7490   11.1480 C.2    89  GLN89       0.2260
     14  O        -12.5110    3.7590   12.3750 O.2    89  GLN89      -0.2867
     15  CB       -10.7790    5.0380    9.8470 C.3    89  GLN89       0.0367
     16  CG        -9.6940    5.1530   10.9210 C.3    89  GLN89       0.0905
     17  CD        -8.9820    3.8430   11.2290 C.2    89  GLN89       0.2608
     18  OE1       -9.5520    2.7560   11.1040 O.2    89  GLN89      -0.2717
     19  NE2       -7.7240    3.9450   11.6460 N.am   89  GLN89      -0.0878
     20  N        -11.1020   -0.5430   10.8660 N.3    91  HIS91      -0.1241
     21  CA       -10.2780   -1.5480   10.2230 C.3    91  HIS91       0.1621
     22  C        -10.3590   -2.8150   11.0510 C.2    91  HIS91       0.2264
     23  O        -11.0040   -2.8360   12.1020 O.2    91  HIS91      -0.2867
     24  CB        -8.8380   -1.0710   10.1760 C.3    91  HIS91       0.0745
     25  CG        -8.2870   -0.7790   11.5300 C.ar   91  HIS91       0.0817
     26  ND1       -8.4440    0.4390   12.1510 N.ar   91  HIS91      -0.2268
     27  CD2       -7.6360   -1.5710   12.4110 C.ar   91  HIS91       0.1154
     28  CE1       -7.8970    0.3920   13.3500 C.ar   91  HIS91       0.1986
     29  NE2       -7.3980   -0.8170   13.5300 N.ar   91  HIS91      -0.2212
     30  N         -8.0100   -6.5200   12.4360 N.3    93  HIS93      -0.1241
     31  CA        -6.7940   -7.3080   12.5790 C.3    93  HIS93       0.1621
     32  C         -7.2230   -8.7630   12.4560 C.2    93  HIS93       0.2264
     33  O         -8.2830   -9.1400   12.9540 O.2    93  HIS93      -0.2867
     34  CB        -6.1370   -7.0720   13.9370 C.3    93  HIS93       0.0745
     35  CG        -5.8220   -5.6370   14.2020 C.ar   93  HIS93       0.0817
     36  ND1       -4.5800   -5.0930   13.9620 N.ar   93  HIS93      -0.2268
     37  CD2       -6.6010   -4.6180   14.6340 C.ar   93  HIS93       0.1154
     38  CE1       -4.5930   -3.8130   14.2720 C.ar   93  HIS93       0.1986
     39  NE2       -5.8120   -3.4950   14.6670 N.ar   93  HIS93      -0.2212
     40  N        -11.9130   -2.7460   14.7960 N.3   116  HIS116     -0.1241
     41  CA       -11.7120   -1.5270   15.5540 C.3   116  HIS116      0.1621
     42  C        -12.3770   -0.3570   14.8700 C.2   116  HIS116      0.2264
     43  O        -12.0000   -0.0040   13.7550 O.2   116  HIS116     -0.2867
     44  CB       -10.2270   -1.2320   15.6990 C.3   116  HIS116      0.0745
     45  CG        -9.5160   -2.2120   16.5760 C.ar  116  HIS116      0.0817
     46  ND1       -8.1510   -2.3940   16.5350 N.ar  116  HIS116     -0.2268
     47  CD2       -9.9820   -3.0740   17.5080 C.ar  116  HIS116      0.1154
     48  CE1       -7.8040   -3.3120   17.4180 C.ar  116  HIS116      0.1986
     49  NE2       -8.8980   -3.7480   18.0140 N.ar  116  HIS116     -0.2212
     50  N        -12.6670    3.4330   15.1850 N.3   118  VAL118     -0.1245
     51  CA       -11.8060    4.4390   15.8030 C.3   118  VAL118      0.1561
     52  C        -12.5220    5.7800   15.8440 C.2   118  VAL118      0.2260
     53  O        -12.9810    6.2640   14.8100 O.2   118  VAL118     -0.2867
     54  CB       -10.5010    4.5830   15.0020 C.3   118  VAL118      0.0252
     55  CG1       -9.5820    5.6340   15.6210 C.3   118  VAL118      0.0019
     56  CG2       -9.7970    3.2390   14.8840 C.3   118  VAL118      0.0019
     57  N         -8.2140   14.6850   14.7360 N.3   127  PHE127     -0.1227
     58  CA        -7.6120   13.4150   15.1200 C.3   127  PHE127      0.1736
     59  C         -6.1550   13.5640   15.5420 C.2   127  PHE127      0.2596
     60  O         -5.7220   12.9390   16.5100 O.2   127  PHE127     -0.2718
     61  CB        -7.7460   12.4300   13.9530 C.3   127  PHE127      0.0547
     62  CG        -7.1750   11.0700   14.2260 C.ar  127  PHE127     -0.0202
     63  CD1       -7.9030   10.1290   14.9400 C.ar  127  PHE127     -0.0042
     64  CD2       -5.9140   10.7270   13.7700 C.ar  127  PHE127     -0.0042
     65  CE1       -7.3800    8.8740   15.1960 C.ar  127  PHE127     -0.0003
     66  CE2       -5.3880    9.4760   14.0190 C.ar  127  PHE127     -0.0003
     67  CZ        -6.1250    8.5420   14.7310 C.ar  127  PHE127     -0.0000
     68  N         -5.4110   14.3960   14.8160 N.am  128  GLY128     -0.1957
     69  CA        -3.9940   14.5890   15.0780 C.3   128  GLY128      0.1869
     70  C         -3.7350   15.1660   16.4550 C.2   128  GLY128      0.2309
     71  O         -2.7610   14.8130   17.0960 O.2   128  GLY128     -0.2863
     72  N         -4.8550   12.4230   19.3940 N.3   131  VAL131     -0.1245
     73  CA        -3.9170   11.3390   19.7390 C.3   131  VAL131      0.1561
     74  C         -2.8270   11.7710   20.7240 C.2   131  VAL131      0.2260
     75  O         -2.1460   10.9190   21.2830 O.2   131  VAL131     -0.2867
     76  CB        -3.2650   10.6520   18.5050 C.3   131  VAL131      0.0252
     77  CG1       -4.3320    9.9870   17.6490 C.3   131  VAL131      0.0019
     78  CG2       -2.4110   11.6220   17.7000 C.3   131  VAL131      0.0019
     79  N        -11.8450    3.6730   21.0200 N.3   139  VAL139     -0.1245
     80  CA       -11.8870    2.6130   20.0170 C.3   139  VAL139      0.1561
     81  C        -12.8380    1.5340   20.4930 C.2   139  VAL139      0.2260
     82  O        -12.6780    0.9800   21.5870 O.2   139  VAL139     -0.2867
     83  CB       -10.5040    2.0080   19.7060 C.3   139  VAL139      0.0252
     84  CG1      -10.6050    1.0020   18.5610 C.3   139  VAL139      0.0019
     85  CG2       -9.5190    3.1030   19.3350 C.3   139  VAL139      0.0019
     86  N         -2.9470    3.0700   21.1260 N.3   194  LEU194     -0.1231
     87  CA        -2.9300    2.5740   19.7590 C.3   194  LEU194      0.1693
     88  C         -2.1650    1.2620   19.7610 C.2   194  LEU194      0.2593
     89  O         -1.1950    1.1090   20.5030 O.2   194  LEU194     -0.2718
     90  CB        -2.2280    3.5740   18.8350 C.3   194  LEU194      0.0284
     91  CG        -2.8030    4.9880   18.7550 C.3   194  LEU194      0.0019
     92  CD1       -2.0290    5.8080   17.7380 C.3   194  LEU194      0.0001
     93  CD2       -4.2900    4.9740   18.4250 C.3   194  LEU194      0.0001
     94  N         -2.6120    0.2980   18.9570 N.am  195  THR195     -0.1939
     95  CA        -1.9560   -1.0060   18.9230 C.3   195  THR195      0.2028
     96  C         -0.9760   -1.1270   17.7650 C.2   195  THR195      0.2643
     97  O         -0.3460   -2.1690   17.6290 O.2   195  THR195     -0.2714
     98  CB        -2.9490   -2.1740   18.8120 C.3   195  THR195      0.1808
     99  OG1       -3.5740   -2.1390   17.5230 O.3   195  THR195     -0.2208
    100  CG2       -3.9820   -2.1320   19.9380 C.3   195  THR195      0.0379
    101  N         -0.8860   -0.1060   16.9080 N.am  196  THR196     -0.1937
    102  CA         0.2370    0.0040   15.9690 C.3   196  THR196      0.2013
    103  C          1.0020    1.2850   16.2270 C.2   196  THR196      0.2484
    104  O          0.4780    2.2120   16.8520 O.2   196  THR196     -0.2729
    105  CB        -0.1770   -0.0140   14.4810 C.3   196  THR196      0.1807
    106  OG1       -1.0090    1.1150   14.1620 O.3   196  THR196     -0.2208
    107  CG2       -0.9080   -1.2690   14.1500 C.3   196  THR196      0.0379
    108  N          2.2520    1.3400   15.7490 N.am  197  PRO197     -0.2715
    109  CA         2.9860    2.5870   15.8870 C.3   197  PRO197      0.1521
    110  C          2.1720    3.7580   15.3470 C.2   197  PRO197      0.2440
    111  O          1.5490    3.6330   14.2900 O.2   197  PRO197     -0.2731
    112  CB         4.2400    2.3200   15.0660 C.3   197  PRO197      0.0310
    113  CG         4.4960    0.8740   15.2970 C.3   197  PRO197      0.0237
    114  CD         3.1250    0.2460   15.2810 C.3   197  PRO197      0.0939
    115  N          2.1980    4.9100   16.0350 N.am  198  PRO198     -0.2727
    116  CA         3.0990    5.2880   17.1220 C.3   198  PRO198      0.1402
    117  C          2.7510    4.8250   18.5490 C.2   198  PRO198      0.2269
    118  O          3.3790    5.3020   19.4880 O.2   198  PRO198     -0.2865
    119  CB         3.1060    6.8140   17.0370 C.3   198  PRO198      0.0296
    120  CG         1.7620    7.1620   16.5120 C.3   198  PRO198      0.0237
    121  CD         1.3560    6.0420   15.6010 C.3   198  PRO198      0.0939
    122  N          0.5590    5.4240   20.6970 N.3   200  LEU200     -0.1245
    123  CA         0.2600    6.5050   21.6370 C.3   200  LEU200      0.1561
    124  C         -0.7840    6.1050   22.6750 C.2   200  LEU200      0.2260
    125  O         -1.7620    5.4090   22.3800 O.2   200  LEU200     -0.2867
    126  CB        -0.1830    7.7700   20.8890 C.3   200  LEU200      0.0270
    127  CG         0.8720    8.3880   19.9540 C.3   200  LEU200      0.0019
    128  CD1        0.2400    9.4520   19.0790 C.3   200  LEU200      0.0001
    129  CD2        2.0430    8.9620   20.7370 C.3   200  LEU200      0.0001
    130  N        -10.3750    2.1900   25.6110 N.3   205  TRP205     -0.1241
    131  CA       -10.8250    0.9840   24.9240 C.3   205  TRP205      0.1605
    132  C        -12.1870    0.5470   25.4270 C.2   205  TRP205      0.2264
    133  O        -12.4120    0.4780   26.6250 O.2   205  TRP205     -0.2867
    134  CB        -9.8120   -0.1580   25.0920 C.3   205  TRP205      0.0550
    135  CG        -8.7320   -0.0310   24.0840 C.ar  205  TRP205      0.0003
    136  CD1       -7.5130    0.5560   24.2500 C.ar  205  TRP205      0.0946
    137  CD2       -8.8030   -0.4370   22.7180 C.ar  205  TRP205      0.0152
    138  NE1       -6.8180    0.5320   23.0750 N.ar  205  TRP205     -0.2442
    139  CE2       -7.5800   -0.0840   22.1170 C.ar  205  TRP205      0.0810
    140  CE3       -9.7810   -1.0800   21.9460 C.ar  205  TRP205      0.0012
    141  CZ2       -7.3060   -0.3400   20.7760 C.ar  205  TRP205      0.0191
    142  CZ3       -9.5060   -1.3460   20.6200 C.ar  205  TRP205      0.0001
    143  CH2       -8.2730   -0.9800   20.0470 C.ar  205  TRP205      0.0015
@<TRIPOS>BOND
     1     1     2    1
     2     2     3    1
     3     2     5    1
     4     3     4    2
     5     8    10   ar
     6     8     6   ar
     7     5     6    1
     8    10     9   ar
     9     6     7   ar
    10     9     7   ar
    11    15    12    1
    12    15    16    1
    13    24    21    1
    14    24    25    1
    15    21    20    1
    16    21    22    1
    17    12    13    1
    18    12    11    1
    19    16    17    1
    20    22    23    2
    21    18    17    2
    22    13    14    2
    23    17    19   am
    24    25    26   ar
    25    25    27   ar
    26    26    28   ar
    27    27    29   ar
    28    30    31    1
    29    32    31    1
    30    32    33    2
    31    31    34    1
    32    28    29   ar
    33    43    42    2
    34    64    66   ar
    35    64    62   ar
    36    34    35    1
    37    61    62    1
    38    61    58    1
    39    36    35   ar
    40    36    38   ar
    41    66    67   ar
    42   107   105    1
    43   106   105    1
    44    35    37   ar
    45    62    63   ar
    46    38    39   ar
    47   111   110    2
    48   105   102    1
    49    37    39   ar
    50    67    65   ar
    51    57    58    1
    52    40    41    1
    53    53    52    2
    54    68    69    1
    55    68    59   am
    56    42    41    1
    57    56    54    1
    58    63    65   ar
    59    54    55    1
    60    54    51    1
    61   112   113    1
    62   112   109    1
    63    69    70    1
    64    58    59    1
    65    50    51    1
    66   114   113    1
    67   114   108    1
    68   110   109    1
    69   110   115   am
    70    59    60    2
    71    41    44    1
    72   121   115    1
    73   121   120    1
    74    44    45    1
    75   108   109    1
    76   108   103   am
    77    51    52    1
    78   102   103    1
    79   102   101    1
    80   115   116    1
    81   103   104    2
    82    70    71    2
    83   120   119    1
    84    46    45   ar
    85    46    48   ar
    86    45    47   ar
    87   101    96   am
    88   119   116    1
    89   116   117    1
    90    48    49   ar
    91    47    49   ar
    92    99    98    1
    93    97    96    2
    94    77    76    1
    95    78    76    1
    96    92    91    1
    97    96    95    1
    98    93    91    1
    99    76    73    1
   100   117   118    2
   101    84    83    1
   102    91    90    1
   103    98    95    1
   104    98   100    1
   105    90    87    1
   106    95    94    1
   107    94    88   am
   108   128   127    1
   109    85    83    1
   110    72    73    1
   111    83    80    1
   112    73    74    1
   113    87    88    1
   114    87    86    1
   115    88    89    2
   116   127   129    1
   117   127   126    1
   118    80    81    1
   119    80    79    1
   120   143   142   ar
   121   143   141   ar
   122    81    82    2
   123   142   140   ar
   124   122   123    1
   125    74    75    2
   126   141   139   ar
   127   126   123    1
   128   123   124    1
   129   140   137   ar
   130   139   137   ar
   131   139   138   ar
   132   125   124    2
   133   137   135   ar
   134   138   136   ar
   135   135   136   ar
   136   135   134    1
   137   131   134    1
   138   131   132    1
   139   131   130    1
   140   132   133    2
