@<TRIPOS>MOLECULE
tmp/4kv8A01.pdb
 175 175 0 0 0
SMALL
GASTEIGER

@<TRIPOS>ATOM
      1  N         69.6910   54.9930   55.7590 N.3    95  PRO95      -0.2116
      2  CA        68.9900   55.2790   57.0180 C.3    95  PRO95       0.1372
      3  C         67.4980   55.4600   56.7930 C.2    95  PRO95       0.2244
      4  O         67.0860   56.0580   55.8000 O.2    95  PRO95      -0.2868
      5  CB        69.6230   56.5920   57.4870 C.3    95  PRO95       0.0268
      6  CG        70.9810   56.6040   56.7970 C.3    95  PRO95       0.0207
      7  CD        70.6660   56.0510   55.4370 C.3    95  PRO95       0.0892
      8  N         65.6400   57.7920   63.0480 N.3   100  LEU100     -0.1231
      9  CA        66.3460   59.0170   63.4230 C.3   100  LEU100      0.1693
     10  C         65.9250   59.5290   64.7960 C.2   100  LEU100      0.2592
     11  O         64.7340   59.6180   65.0940 O.2   100  LEU100     -0.2718
     12  CB        66.0970   60.1080   62.3850 C.3   100  LEU100      0.0284
     13  CG        66.5710   59.7590   60.9780 C.3   100  LEU100      0.0019
     14  CD1       66.2400   60.9090   60.0440 C.3   100  LEU100      0.0001
     15  CD2       68.0740   59.4620   60.9960 C.3   100  LEU100      0.0001
     16  N         66.9000   59.8640   65.6370 N.am  101  LYS101     -0.1966
     17  CA        66.5670   60.3830   66.9560 C.3   101  LYS101      0.1728
     18  C         66.1090   61.8170   66.8060 C.2   101  LYS101      0.2616
     19  O         66.4920   62.5040   65.8590 O.2   101  LYS101     -0.2715
     20  CB        67.7660   60.3320   67.8940 C.3   101  LYS101      0.0311
     21  CG        68.2360   58.9340   68.2210 C.3   101  LYS101      0.0038
     22  CD        69.2530   58.9810   69.3500 C.3   101  LYS101      0.0206
     23  CE        69.8830   57.6180   69.5990 C.3   101  LYS101      0.1093
     24  NZ        70.6960   57.1770   68.4340 N.3   101  LYS101     -0.1314
     25  N         65.2740   62.2630   67.7340 N.am  102  LYS102     -0.1963
     26  CA        64.7590   63.6210   67.7110 C.3   102  LYS102      0.1728
     27  C         65.8730   64.6020   68.0880 C.2   102  LYS102      0.2616
     28  O         66.7200   64.3030   68.9340 O.2   102  LYS102     -0.2715
     29  CB        63.5940   63.7340   68.6940 C.3   102  LYS102      0.0311
     30  CG        62.6970   62.4990   68.6910 C.3   102  LYS102      0.0038
     31  CD        61.4900   62.6500   69.6110 C.3   102  LYS102      0.0206
     32  CE        60.6210   61.3960   69.5810 C.3   102  LYS102      0.1093
     33  NZ        59.2860   61.6210   70.2050 N.3   102  LYS102     -0.1314
     34  N         65.8760   65.7580   67.4310 N.am  103  LYS103     -0.1963
     35  CA        66.8580   66.8080   67.6820 C.3   103  LYS103      0.1728
     36  C         66.1310   68.1480   67.7670 C.2   103  LYS103      0.2616
     37  O         65.0290   68.2930   67.2430 O.2   103  LYS103     -0.2715
     38  CB        67.8890   66.8800   66.5450 C.3   103  LYS103      0.0311
     39  CG        69.0580   65.9070   66.6520 C.3   103  LYS103      0.0038
     40  CD        68.6530   64.4900   66.3150 C.3   103  LYS103      0.0206
     41  CE        69.8260   63.5350   66.4540 C.3   103  LYS103      0.1093
     42  NZ        70.3300   63.4910   67.8540 N.3   103  LYS103     -0.1314
     43  N         66.7360   69.1260   68.4320 N.am  104  LYS104     -0.1963
     44  CA        66.1110   70.4400   68.5150 C.3   104  LYS104      0.1728
     45  C         66.3780   71.1790   67.2110 C.2   104  LYS104      0.2617
     46  O         65.5820   72.0080   66.7790 O.2   104  LYS104     -0.2715
     47  CB        66.6770   71.2520   69.6810 C.3   104  LYS104      0.0311
     48  CG        66.4380   70.6210   71.0370 C.3   104  LYS104      0.0038
     49  CD        66.5610   71.6420   72.1590 C.3   104  LYS104      0.0206
     50  CE        66.1840   71.0300   73.5060 C.3   104  LYS104      0.1093
     51  NZ        66.1250   72.0670   74.5760 N.3   104  LYS104     -0.1314
     52  N         67.4990   70.8590   66.5750 N.am  105  SER105     -0.1936
     53  CA        67.8590   71.5150   65.3270 C.3   105  SER105      0.2055
     54  C         68.6340   70.6110   64.3720 C.2   105  SER105      0.2642
     55  O         69.4680   69.8020   64.7870 O.2   105  SER105     -0.2714
     56  CB        68.7040   72.7630   65.6230 C.3   105  SER105      0.2130
     57  OG        68.0750   73.5960   66.5840 O.3   105  SER105     -0.2179
     58  N         68.3390   70.7580   63.0870 N.am  106  VAL106     -0.1977
     59  CA        69.0210   70.0140   62.0390 C.3   106  VAL106      0.1596
     60  C         69.3470   71.0070   60.9350 C.2   106  VAL106      0.2287
     61  O         68.5090   71.8270   60.5500 O.2   106  VAL106     -0.2864
     62  CB        68.1550   68.8820   61.4600 C.3   106  VAL106      0.0276
     63  CG1       68.7440   68.4020   60.1480 C.3   106  VAL106      0.0022
     64  CG2       68.1090   67.7220   62.4330 C.3   106  VAL106      0.0022
     65  N         75.4200   65.3560   65.8340 N.3   179  VAL179     -0.1245
     66  CA        75.1750   64.2780   64.8920 C.3   179  VAL179      0.1561
     67  C         75.4240   64.7490   63.4730 C.2   179  VAL179      0.2260
     68  O         74.8590   65.7500   63.0300 O.2   179  VAL179     -0.2867
     69  CB        73.7430   63.7550   65.0160 C.3   179  VAL179      0.0252
     70  CG1       73.4810   62.6940   63.9570 C.3   179  VAL179      0.0019
     71  CG2       73.5350   63.1780   66.3990 C.3   179  VAL179      0.0019
     72  N         75.5060   63.3710   59.4730 N.3   181  TYR181     -0.1241
     73  CA        75.2800   62.3230   58.4900 C.3   181  TYR181      0.1605
     74  C         75.8270   62.7070   57.1090 C.2   181  TYR181      0.2264
     75  O         75.4480   63.7370   56.5520 O.2   181  TYR181     -0.2867
     76  CB        73.7870   61.9940   58.3730 C.3   181  TYR181      0.0534
     77  CG        73.4830   61.0220   57.2470 C.ar  181  TYR181     -0.0201
     78  CD1       73.9410   59.7050   57.2840 C.ar  181  TYR181     -0.0009
     79  CD2       72.7660   61.4350   56.1280 C.ar  181  TYR181     -0.0009
     80  CE1       73.6910   58.8330   56.2380 C.ar  181  TYR181      0.0417
     81  CE2       72.5140   60.5720   55.0740 C.ar  181  TYR181      0.0417
     82  CZ        72.9760   59.2760   55.1330 C.ar  181  TYR181      0.1957
     83  OH        72.7070   58.4290   54.0740 O.3   181  TYR181     -0.2866
     84  N         74.3190   66.4650   56.8860 N.3   188  TYR188     -0.1227
     85  CA        73.1800   66.8380   57.7200 C.3   188  TYR188      0.1736
     86  C         73.7040   66.8130   59.1500 C.2   188  TYR188      0.2595
     87  O         74.2920   65.8230   59.5970 O.2   188  TYR188     -0.2718
     88  CB        72.0030   65.8760   57.5210 C.3   188  TYR188      0.0548
     89  CG        71.3810   65.9920   56.1420 C.ar  188  TYR188     -0.0200
     90  CD1       71.8840   65.2680   55.0640 C.ar  188  TYR188     -0.0009
     91  CD2       70.3120   66.8560   55.9080 C.ar  188  TYR188     -0.0009
     92  CE1       71.3430   65.3970   53.7890 C.ar  188  TYR188      0.0417
     93  CE2       69.7650   66.9900   54.6320 C.ar  188  TYR188      0.0417
     94  CZ        70.2880   66.2560   53.5840 C.ar  188  TYR188      0.1957
     95  OH        69.7420   66.3720   52.3260 O.3   188  TYR188     -0.2866
     96  N         73.5170   67.9290   59.8460 N.am  189  VAL189     -0.1966
     97  CA        74.0120   68.1020   61.2090 C.3   189  VAL189      0.1727
     98  C         72.8800   68.4380   62.1730 C.2   189  VAL189      0.2616
     99  O         72.0950   69.3660   61.9460 O.2   189  VAL189     -0.2715
    100  CB        75.0670   69.2420   61.2550 C.3   189  VAL189      0.0290
    101  CG1       75.7470   69.2930   62.6120 C.3   189  VAL189      0.0023
    102  CG2       76.0930   69.0340   60.1620 C.3   189  VAL189      0.0023
    103  N         72.8040   67.6770   63.2560 N.am  190  GLY190     -0.1955
    104  CA        71.7600   67.9120   64.2300 C.3   190  GLY190      0.1869
    105  C         72.3060   67.8880   65.6410 C.2   190  GLY190      0.2309
    106  O         73.3200   67.2360   65.9210 O.2   190  GLY190     -0.2863
    107  N         63.6640   73.9630   56.2570 N.3   225  PRO225     -0.2116
    108  CA        62.7670   72.8290   56.5120 C.3   225  PRO225      0.1372
    109  C         61.4600   73.0190   55.7410 C.2   225  PRO225      0.2244
    110  O         60.9770   74.1430   55.5930 O.2   225  PRO225     -0.2868
    111  CB        62.5410   72.9010   58.0190 C.3   225  PRO225      0.0268
    112  CG        63.8210   73.4940   58.5230 C.3   225  PRO225      0.0207
    113  CD        64.0800   74.5900   57.5240 C.3   225  PRO225      0.0892
    114  N         63.1950   69.1190   54.7280 N.3   227  PHE227     -0.1241
    115  CA        64.2730   68.6510   53.8700 C.3   227  PHE227      0.1605
    116  C         63.8330   67.4650   53.0190 C.2   227  PHE227      0.2264
    117  O         63.3480   66.4630   53.5430 O.2   227  PHE227     -0.2867
    118  CB        65.4890   68.2340   54.7010 C.3   227  PHE227      0.0534
    119  CG        66.1580   69.3690   55.4060 C.ar  227  PHE227     -0.0203
    120  CD1       66.2940   70.5990   54.7900 C.ar  227  PHE227     -0.0042
    121  CD2       66.6530   69.2100   56.6860 C.ar  227  PHE227     -0.0042
    122  CE1       66.9080   71.6480   55.4400 C.ar  227  PHE227     -0.0003
    123  CE2       67.2710   70.2600   57.3420 C.ar  227  PHE227     -0.0003
    124  CZ        67.3950   71.4770   56.7180 C.ar  227  PHE227     -0.0000
    125  N         64.7500   64.3530   50.9950 N.3   229  TRP229     -0.1241
    126  CA        65.8930   63.4540   50.9530 C.3   229  TRP229      0.1605
    127  C         65.4690   62.0100   50.7300 C.2   229  TRP229      0.2264
    128  O         64.5460   61.5160   51.3820 O.2   229  TRP229     -0.2867
    129  CB        66.6630   63.5820   52.2690 C.3   229  TRP229      0.0550
    130  CG        67.6990   62.5600   52.4670 C.ar  229  TRP229      0.0003
    131  CD1       68.9420   62.5250   51.9070 C.ar  229  TRP229      0.0946
    132  CD2       67.5750   61.3710   53.2510 C.ar  229  TRP229      0.0152
    133  NE1       69.6020   61.3790   52.2930 N.ar  229  TRP229     -0.2442
    134  CE2       68.7800   60.6550   53.1170 C.ar  229  TRP229      0.0810
    135  CE3       66.5590   60.8400   54.0510 C.ar  229  TRP229      0.0012
    136  CZ2       68.9920   59.4310   53.7540 C.ar  229  TRP229      0.0191
    137  CZ3       66.7740   59.6310   54.6790 C.ar  229  TRP229      0.0001
    138  CH2       67.9760   58.9390   54.5270 C.ar  229  TRP229      0.0015
    139  N         61.2820   65.5630   55.3750 N.3   234  LEU234     -0.1231
    140  CA        61.6020   65.5960   56.7970 C.3   234  LEU234      0.1693
    141  C         61.3340   66.9150   57.4960 C.2   234  LEU234      0.2592
    142  O         61.9440   67.9300   57.1770 O.2   234  LEU234     -0.2718
    143  CB        63.0670   65.2000   57.0200 C.3   234  LEU234      0.0284
    144  CG        63.5600   63.8730   56.4320 C.3   234  LEU234      0.0019
    145  CD1       64.4880   63.2060   57.4280 C.3   234  LEU234      0.0001
    146  CD2       62.3940   62.9490   56.1500 C.3   234  LEU234      0.0001
    147  N         60.4290   66.8830   58.4680 N.am  235  HIS235     -0.1962
    148  CA        60.0630   68.0630   59.2480 C.3   235  HIS235      0.1772
    149  C         60.6770   67.9660   60.6370 C.2   235  HIS235      0.2462
    150  O         61.1780   66.9170   61.0350 O.2   235  HIS235     -0.2730
    151  CB        58.5460   68.1600   59.3770 C.3   235  HIS235      0.0785
    152  CG        57.8380   68.3280   58.0720 C.ar  235  HIS235      0.0821
    153  ND1       57.5340   69.5640   57.5440 N.ar  235  HIS235     -0.2267
    154  CD2       57.3920   67.4170   57.1760 C.ar  235  HIS235      0.1154
    155  CE1       56.9280   69.4070   56.3810 C.ar  235  HIS235      0.1986
    156  NE2       56.8300   68.1130   56.1340 N.ar  235  HIS235     -0.2212
    157  N         60.6390   69.0650   61.4000 N.am  236  PRO236     -0.2727
    158  CA        61.2040   69.0760   62.7530 C.3   236  PRO236      0.1402
    159  C         60.5930   68.1140   63.7770 C.2   236  PRO236      0.2269
    160  O         61.2990   67.6420   64.6560 O.2   236  PRO236     -0.2865
    161  CB        61.0810   70.5450   63.1700 C.3   236  PRO236      0.0296
    162  CG        59.9390   71.0570   62.3260 C.3   236  PRO236      0.0237
    163  CD        60.2120   70.4160   60.9970 C.3   236  PRO236      0.0939
    164  N         59.5960   60.4970   64.9370 N.3   318  TYR318     -0.1241
    165  CA        60.9830   60.1250   65.1250 C.3   318  TYR318      0.1605
    166  C         61.1460   59.2040   66.3060 C.2   318  TYR318      0.2264
    167  O         60.2040   59.0050   67.0680 O.2   318  TYR318     -0.2867
    168  CB        61.8360   61.3780   65.3000 C.3   318  TYR318      0.0534
    169  CG        61.8930   62.1720   64.0230 C.ar  318  TYR318     -0.0201
    170  CD1       62.3460   61.5810   62.8460 C.ar  318  TYR318     -0.0009
    171  CD2       61.4540   63.4870   63.9750 C.ar  318  TYR318     -0.0009
    172  CE1       62.3550   62.2790   61.6520 C.ar  318  TYR318      0.0417
    173  CE2       61.4630   64.1910   62.7900 C.ar  318  TYR318      0.0417
    174  CZ        61.9140   63.5840   61.6310 C.ar  318  TYR318      0.1957
    175  OH        61.9160   64.2900   60.4490 O.3   318  TYR318     -0.2866
@<TRIPOS>BOND
     1   127   126    1
     2   127   128    2
     3   126   125    1
     4   126   129    1
     5   131   133   ar
     6   131   130   ar
     7   129   130    1
     8   133   134   ar
     9    95    94    1
    10   130   132   ar
    11   116   117    2
    12   116   115    1
    13   134   132   ar
    14   134   136   ar
    15   132   135   ar
    16    94    92   ar
    17    94    93   ar
    18   136   138   ar
    19    92    90   ar
    20   115   118    1
    21   115   114    1
    22   135   137   ar
    23    83    82    1
    24   138   137   ar
    25    93    91   ar
    26   118   119    1
    27   120   119   ar
    28   120   122   ar
    29    90    89   ar
    30    81    82   ar
    31    81    79   ar
    32    82    80   ar
    33   139   140    1
    34   119   121   ar
    35     7     1    1
    36     7     6    1
    37   122   124   ar
    38   110   109    2
    39   109   108    1
    40     1     2    1
    41     4     3    2
    42    91    89   ar
    43    79    77   ar
    44   156   155   ar
    45   156   154   ar
    46    89    88    1
    47   146   144    1
    48    80    78   ar
    49   107   108    1
    50   107   113    1
    51   155   153   ar
    52   144   143    1
    53   144   145    1
    54   108   111    1
    55    75    74    2
    56   121   123   ar
    57   124   123   ar
    58     3     2    1
    59   140   143    1
    60   140   141    1
    61     6     5    1
    62    84    85    1
    63     2     5    1
    64    74    73    1
    65   154   152   ar
    66   142   141    2
    67    77    78   ar
    68    77    76    1
    69   141   147   am
    70    88    85    1
    71   113   112    1
    72   153   152   ar
    73    85    86    1
    74   111   112    1
    75   152   151    1
    76    76    73    1
    77   147   148    1
    78    73    72    1
    79    86    87    2
    80    86    96   am
    81   148   151    1
    82   148   149    1
    83    96    97    1
    84    14    13    1
    85    63    62    1
    86   102   100    1
    87   175   174    1
    88    61    60    2
    89   149   150    2
    90   149   157   am
    91    60    59    1
    92    13    15    1
    93    13    12    1
    94   163   157    1
    95   163   162    1
    96    97   100    1
    97    97    98    1
    98   100   101    1
    99   157   158    1
   100    62    59    1
   101    62    64    1
   102   174   172   ar
   103   174   173   ar
   104   172   170   ar
   105    99    98    2
   106    59    58    1
   107    98   103   am
   108   162   161    1
   109    12     9    1
   110   158   161    1
   111   158   159    1
   112   173   171   ar
   113   170   169   ar
   114    68    67    2
   115     8     9    1
   116    58    54   am
   117   103   104    1
   118     9    10    1
   119    67    66    1
   120   159   160    2
   121    70    69    1
   122   171   169   ar
   123   169   168    1
   124   104   105    1
   125    54    55    2
   126    54    53    1
   127    10    11    2
   128    10    16   am
   129    66    69    1
   130    66    65    1
   131   164   165    1
   132    69    71    1
   133   165   168    1
   134   165   166    1
   135    53    56    1
   136    53    52    1
   137    56    57    1
   138    16    17    1
   139   105   106    2
   140    19    18    2
   141   166   167    2
   142    40    41    1
   143    40    39    1
   144    41    42    1
   145    38    39    1
   146    38    35    1
   147    52    45   am
   148    46    45    2
   149    18    17    1
   150    18    25   am
   151    17    20    1
   152    45    44    1
   153    37    36    2
   154    34    35    1
   155    34    27   am
   156    35    36    1
   157    26    25    1
   158    26    27    1
   159    26    29    1
   160    36    43   am
   161    20    21    1
   162    27    28    2
   163    21    22    1
   164    43    44    1
   165    24    23    1
   166    44    47    1
   167    30    29    1
   168    30    31    1
   169    22    23    1
   170    32    31    1
   171    32    33    1
   172    47    48    1
   173    48    49    1
   174    49    50    1
   175    50    51    1
