@<TRIPOS>MOLECULE
tmp/4kv9A00.pdb
 134 125 0 0 0
SMALL
GASTEIGER

@<TRIPOS>ATOM
      1  N         -1.9050  -13.9260   17.0860 N.3    11  THR11      -0.1203
      2  CA        -1.4560  -15.3000   17.3020 C.3    11  THR11       0.1994
      3  C         -0.7130  -15.4580   18.6330 C.2    11  THR11       0.2618
      4  O          0.0160  -14.5650   19.0450 O.2    11  THR11      -0.2717
      5  CB        -0.5300  -15.7900   16.1530 C.3    11  THR11       0.1784
      6  OG1       -0.2890  -17.1930   16.3030 O.3    11  THR11      -0.2211
      7  CG2        0.8130  -15.0500   16.1620 C.3    11  THR11       0.0376
      8  N         -0.9440  -16.5760   19.3150 N.am   12  GLY12      -0.1942
      9  CA        -0.1650  -16.9340   20.4890 C.3    12  GLY12       0.2014
     10  C         -0.5350  -16.1650   21.7420 C.2    12  GLY12       0.2639
     11  O          0.2180  -16.1830   22.7120 O.2    12  GLY12      -0.2714
     12  N         -1.6970  -15.5190   21.7330 N.am   13  ILE13      -0.1963
     13  CA        -2.1040  -14.6290   22.8260 C.3    13  ILE13       0.1727
     14  C         -2.9230  -15.3390   23.9220 C.2    13  ILE13       0.2617
     15  O         -3.2600  -14.7330   24.9230 O.2    13  ILE13      -0.2715
     16  CB        -2.8280  -13.3540   22.2840 C.3    13  ILE13       0.0290
     17  CG1       -2.6290  -12.1540   23.2120 C.3    13  ILE13       0.0022
     18  CG2       -4.3100  -13.6090   21.9040 C.3    13  ILE13       0.0023
     19  CD1       -3.6150  -11.0080   22.9450 C.3    13  ILE13       0.0001
     20  N         -3.2200  -16.6180   23.7160 N.am   14  GLY14      -0.1940
     21  CA        -3.7720  -17.4840   24.7460 C.3    14  GLY14       0.2014
     22  C         -5.2140  -17.8730   24.4830 C.2    14  GLY14       0.2639
     23  O         -5.9190  -18.3600   25.3850 O.2    14  GLY14      -0.2714
     24  N         -5.6540  -17.6740   23.2430 N.am   15  LYS15      -0.1963
     25  CA        -7.0660  -17.8540   22.9160 C.3    15  LYS15       0.1728
     26  C         -7.5120  -19.2960   23.1020 C.2    15  LYS15       0.2617
     27  O         -8.5310  -19.5650   23.7380 O.2    15  LYS15      -0.2715
     28  CB        -7.3750  -17.3730   21.4890 C.3    15  LYS15       0.0311
     29  CG        -7.1560  -15.8870   21.2590 C.3    15  LYS15       0.0038
     30  CD        -7.4240  -15.4570   19.7950 C.3    15  LYS15       0.0206
     31  CE        -6.6890  -16.3320   18.7970 C.3    15  LYS15       0.1093
     32  NZ        -5.2030  -16.1310   18.7900 N.3    15  LYS15      -0.1314
     33  N         -6.7570  -20.2290   22.5410 N.am   16  SER16      -0.1936
     34  CA        -7.1890  -21.6100   22.5840 C.3    16  SER16       0.2055
     35  C         -7.0770  -22.1320   24.0140 C.2    16  SER16       0.2643
     36  O         -7.9260  -22.8960   24.4640 O.2    16  SER16      -0.2714
     37  CB        -6.4180  -22.4680   21.5620 C.3    16  SER16       0.2130
     38  OG        -5.0280  -22.3690   21.7550 O.3    16  SER16      -0.2179
     39  N         -6.0630  -21.6750   24.7390 N.am   17  THR17      -0.1950
     40  CA        -5.8710  -22.1040   26.1190 C.3    17  THR17       0.1897
     41  C         -7.0450  -21.6300   26.9900 C.2    17  THR17       0.2313
     42  O         -7.5150  -22.3730   27.8650 O.2    17  THR17      -0.2863
     43  CB        -4.5160  -21.6230   26.7130 C.3    17  THR17       0.1794
     44  OG1       -3.4330  -22.0970   25.9080 O.3    17  THR17      -0.2208
     45  CG2       -4.3270  -22.1450   28.1360 C.3    17  THR17       0.0378
     46  N        -10.2780  -21.3290   12.9780 N.3    32  LYS32      -0.1245
     47  CA       -10.4950  -22.7360   13.2910 C.3    32  LYS32       0.1561
     48  C        -11.6690  -22.8330   14.2710 C.2    32  LYS32       0.2260
     49  O        -12.0180  -21.8480   14.9150 O.2    32  LYS32      -0.2867
     50  CB        -9.2280  -23.3510   13.8880 C.3    32  LYS32       0.0271
     51  CG        -8.7670  -22.7000   15.1930 C.3    32  LYS32       0.0035
     52  CD        -7.3110  -23.0580   15.5640 C.3    32  LYS32       0.0206
     53  CE        -7.0110  -22.7220   17.0440 C.3    32  LYS32       0.1093
     54  NZ        -5.6150  -23.0520   17.4860 N.3    32  LYS32      -0.1314
     55  N        -12.1070  -19.6770   16.7090 N.3    49  VAL49      -0.1245
     56  CA       -10.9260  -18.9050   17.0580 C.3    49  VAL49       0.1561
     57  C        -10.4120  -18.2530   15.7830 C.2    49  VAL49       0.2260
     58  O        -10.2320  -18.9330   14.7900 O.2    49  VAL49      -0.2867
     59  CB        -9.8300  -19.8170   17.6350 C.3    49  VAL49       0.0252
     60  CG1       -8.6070  -19.0320   17.9130 C.3    49  VAL49       0.0019
     61  CG2      -10.3110  -20.4810   18.9110 C.3    49  VAL49       0.0019
     62  N         -7.3810  -15.6960   14.2100 N.3    51  GLU51      -0.1245
     63  CA        -6.1250  -14.9980   14.4130 C.3    51  GLU51       0.1567
     64  C         -6.1570  -13.7120   13.5990 C.2    51  GLU51       0.2260
     65  O         -6.2750  -13.7670   12.3800 O.2    51  GLU51      -0.2867
     66  CB        -4.9590  -15.8770   13.9440 C.3    51  GLU51       0.0388
     67  CG        -4.7690  -17.0870   14.8630 C.3    51  GLU51       0.1160
     68  CD        -4.0510  -18.2350   14.1920 C.2    51  GLU51       0.3649
     69  OE1       -3.8770  -18.2970   12.9580 O.co2  51  GLU51      -0.2457
     70  OE2       -3.6940  -19.1200   15.0060 O.co2  51  GLU51      -0.2457
     71  N         -3.4010  -12.9130   29.0850 N.3   127  LYS127     -0.1245
     72  CA        -2.2100  -13.1850   29.8950 C.3   127  LYS127      0.1561
     73  C         -2.0410  -12.1590   31.0020 C.2   127  LYS127      0.2260
     74  O         -0.9770  -11.5750   31.1460 O.2   127  LYS127     -0.2867
     75  CB        -0.9250  -13.2300   29.0260 C.3   127  LYS127      0.0271
     76  CG        -1.0240  -14.1580   27.8240 C.3   127  LYS127      0.0035
     77  CD         0.3560  -14.3960   27.1650 C.3   127  LYS127      0.0206
     78  CE         0.1970  -15.3420   25.9870 C.3   127  LYS127      0.1093
     79  NZ         1.5010  -15.6760   25.3340 N.3   127  LYS127     -0.1314
     80  N         -1.6050  -12.2990   34.0350 N.3   129  ASP129     -0.1225
     81  CA        -0.5160  -12.5660   34.9920 C.3   129  ASP129      0.1805
     82  C          0.7920  -11.8210   34.6270 C.2   129  ASP129      0.2598
     83  O          1.7680  -11.8850   35.3660 O.2   129  ASP129     -0.2718
     84  CB        -0.2510  -14.0770   35.1230 C.3   129  ASP129      0.1424
     85  CG        -0.0690  -14.7830   33.7540 C.2   129  ASP129      0.3668
     86  OD1       -0.7730  -14.4340   32.7850 O.co2 129  ASP129     -0.2456
     87  OD2        0.7680  -15.7120   33.6550 O.co2 129  ASP129     -0.2456
     88  N          0.7640  -11.0950   33.5090 N.am  130  THR130     -0.1953
     89  CA         1.8880  -10.3060   32.9570 C.3   130  THR130      0.1897
     90  C          1.9560   -8.9810   33.6800 C.2   130  THR130      0.2313
     91  O          2.9570   -8.2790   33.6340 O.2   130  THR130     -0.2863
     92  CB         1.6220  -10.0160   31.4470 C.3   130  THR130      0.1794
     93  OG1        1.5810  -11.2510   30.7430 O.3   130  THR130     -0.2208
     94  CG2        2.6670   -9.0760   30.7710 C.3   130  THR130      0.0378
     95  N         -6.5290  -15.4800   32.8100 N.3   180  VAL180     -0.1231
     96  CA        -5.3780  -16.3690   32.7920 C.3   180  VAL180      0.1692
     97  C         -5.8780  -17.7670   32.4350 C.2   180  VAL180      0.2592
     98  O         -6.9210  -18.1920   32.9250 O.2   180  VAL180     -0.2718
     99  CB        -4.6980  -16.4370   34.1690 C.3   180  VAL180      0.0266
    100  CG1       -3.6430  -17.5260   34.2000 C.3   180  VAL180      0.0020
    101  CG2       -4.1010  -15.0830   34.5280 C.3   180  VAL180      0.0020
    102  N         -5.1700  -18.4680   31.5520 N.am  181  GLY181     -0.1957
    103  CA        -5.5370  -19.8280   31.1890 C.3   181  GLY181      0.1869
    104  C         -4.5050  -20.8270   31.6760 C.2   181  GLY181      0.2309
    105  O         -3.3570  -20.4640   31.8950 O.2   181  GLY181     -0.2863
    106  N         -3.1140  -25.2260   31.7960 N.3   183  SER183     -0.1217
    107  CA        -3.1060  -26.5590   31.2130 C.3   183  SER183      0.1889
    108  C         -2.6070  -27.5550   32.2440 C.2   183  SER183      0.2288
    109  O         -2.2890  -28.6950   31.9090 O.2   183  SER183     -0.2866
    110  CB        -2.1920  -26.6120   29.9860 C.3   183  SER183      0.2089
    111  OG        -2.6700  -25.7800   28.9440 O.3   183  SER183     -0.2183
    112  N         -1.1460  -21.9530   36.6190 N.3   193  ARG193     -0.1245
    113  CA         0.0210  -21.7370   35.7920 C.3   193  ARG193      0.1563
    114  C          1.2460  -21.6290   36.7170 C.2   193  ARG193      0.2260
    115  O          1.3190  -20.7080   37.5180 O.2   193  ARG193     -0.2867
    116  CB        -0.1710  -20.4620   34.9620 C.3   193  ARG193      0.0307
    117  CG         0.3450  -20.5800   33.5920 C.3   193  ARG193      0.0489
    118  CD         0.0710  -19.3280   32.7730 C.3   193  ARG193      0.2205
    119  NE         1.3250  -18.9060   32.1640 N.pl3 193  ARG193     -0.0865
    120  CZ         1.9120  -19.5460   31.1620 C.cat 193  ARG193      0.5346
    121  NH1        1.3500  -20.6300   30.6460 N.pl3 193  ARG193      0.1354
    122  NH2        3.0710  -19.1040   30.6820 N.pl3 193  ARG193      0.1354
    123  N          5.0870  -21.0930   37.9800 N.3   195  TYR195     -0.1241
    124  CA         6.3780  -20.4360   37.7600 C.3   195  TYR195      0.1605
    125  C          7.3040  -20.7660   38.9250 C.2   195  TYR195      0.2264
    126  O          6.8350  -21.1460   39.9950 O.2   195  TYR195     -0.2867
    127  CB         6.1970  -18.9180   37.6990 C.3   195  TYR195      0.0534
    128  CG         5.3810  -18.3980   36.5390 C.ar  195  TYR195     -0.0201
    129  CD1        5.9550  -18.2220   35.2880 C.ar  195  TYR195     -0.0009
    130  CD2        4.0540  -18.0360   36.7050 C.ar  195  TYR195     -0.0009
    131  CE1        5.2220  -17.7260   34.2270 C.ar  195  TYR195      0.0417
    132  CE2        3.3020  -17.5440   35.6380 C.ar  195  TYR195      0.0417
    133  CZ         3.9040  -17.3920   34.3970 C.ar  195  TYR195      0.1957
    134  OH         3.1920  -16.8840   33.3420 O.3   195  TYR195     -0.2866
@<TRIPOS>BOND
     1    65    64    2
     2    69    68   ar
     3    46    47    1
     4    47    50    1
     5    47    48    1
     6    64    63    1
     7    50    51    1
     8    66    63    1
     9    66    67    1
    10    68    67    1
    11    68    70   ar
    12    62    63    1
    13    48    49    2
    14    58    57    2
    15    51    52    1
    16    52    53    1
    17    57    56    1
    18     5     7    1
    19     5     6    1
    20     5     2    1
    21    55    56    1
    22    53    54    1
    23    56    59    1
    24     1     2    1
    25     2     3    1
    26    59    60    1
    27    59    61    1
    28     3     4    2
    29     3     8   am
    30    32    31    1
    31    31    30    1
    32     8     9    1
    33    30    29    1
    34     9    10    1
    35    29    28    1
    36    28    25    1
    37    37    38    1
    38    37    34    1
    39    12    10   am
    40    12    13    1
    41    10    11    2
    42    18    16    1
    43    16    13    1
    44    16    17    1
    45    33    34    1
    46    33    26   am
    47    34    35    1
    48    13    14    1
    49    25    26    1
    50    25    24    1
    51    19    17    1
    52    26    27    2
    53    24    22   am
    54    20    14   am
    55    20    21    1
    56    14    15    2
    57    35    36    2
    58    35    39   am
    59    22    21    1
    60    22    23    2
    61    39    40    1
    62    79    78    1
    63    44    43    1
    64    78    77    1
    65    40    43    1
    66    40    41    1
    67    43    45    1
    68    41    42    2
    69    77    76    1
    70    76    75    1
    71   111   110    1
    72    75    72    1
    73    71    72    1
    74    72    73    1
    75   110   107    1
    76   121   120    1
    77   122   120    1
    78    93    92    1
    79    94    92    1
    80    73    74    2
    81   120   119    2
    82   103   102    1
    83   103   104    1
    84   107   106    1
    85   107   108    1
    86    92    89    1
    87   102    97   am
    88   104   105    2
    89   109   108    2
    90   119   118    1
    91    97    96    1
    92    97    98    2
    93   118   117    1
    94    86    85   ar
    95    96    95    1
    96    96    99    1
    97    89    88    1
    98    89    90    1
    99   134   133    1
   100    88    82   am
   101   117   116    1
   102    91    90    2
   103    87    85   ar
   104    85    84    1
   105    80    81    1
   106    99   100    1
   107    99   101    1
   108   131   133   ar
   109   131   129   ar
   110   133   132   ar
   111    82    81    1
   112    82    83    2
   113   116   113    1
   114    81    84    1
   115   129   128   ar
   116   132   130   ar
   117   113   112    1
   118   113   114    1
   119   128   130   ar
   120   128   127    1
   121   114   115    2
   122   127   124    1
   123   124   123    1
   124   124   125    1
   125   125   126    2
