@<TRIPOS>MOLECULE
tmp/4kvaB01.pdb
 136 130 0 0 0
SMALL
GASTEIGER

@<TRIPOS>ATOM
      1  N        -30.6460   -1.4230  109.3230 N.3    11  THR11      -0.1203
      2  CA       -31.0760   -0.5260  110.3900 C.3    11  THR11       0.1994
      3  C        -31.4690   -1.2820  111.6570 C.2    11  THR11       0.2618
      4  O        -32.2840   -2.2030  111.6130 O.2    11  THR11      -0.2717
      5  CB       -32.2580    0.3510  109.9350 C.3    11  THR11       0.1784
      6  OG1      -31.8680    1.1260  108.7940 O.3    11  THR11      -0.2211
      7  CG2      -32.6980    1.2860  111.0540 C.3    11  THR11       0.0376
      8  N        -30.8740   -0.8930  112.7810 N.am   12  GLY12      -0.1942
      9  CA       -31.2110   -1.4700  114.0700 C.3    12  GLY12       0.2014
     10  C        -30.5940   -2.8320  114.3210 C.2    12  GLY12       0.2639
     11  O        -31.0440   -3.5690  115.1980 O.2    12  GLY12      -0.2714
     12  N        -29.5590   -3.1650  113.5580 N.am   13  ILE13      -0.1963
     13  CA       -28.9130   -4.4670  113.6750 C.3    13  ILE13       0.1727
     14  C        -27.9620   -4.5150  114.8740 C.2    13  ILE13       0.2617
     15  O        -27.5290   -5.5890  115.2910 O.2    13  ILE13      -0.2715
     16  CB       -28.1550   -4.8410  112.3780 C.3    13  ILE13       0.0290
     17  CG1      -27.9900   -6.3580  112.2620 C.3    13  ILE13       0.0022
     18  CG2      -26.8110   -4.1300  112.3140 C.3    13  ILE13       0.0023
     19  CD1      -29.2920   -7.1180  112.3480 C.3    13  ILE13       0.0001
     20  N        -27.6440   -3.3470  115.4260 N.am   14  GLY14      -0.1940
     21  CA       -26.8270   -3.2650  116.6250 C.3    14  GLY14       0.2014
     22  C        -25.4190   -2.7450  116.4040 C.2    14  GLY14       0.2639
     23  O        -24.5040   -3.0880  117.1550 O.2    14  GLY14      -0.2714
     24  N        -25.2440   -1.9100  115.3840 N.am   15  LYS15      -0.1963
     25  CA       -23.9260   -1.3720  115.0450 C.3    15  LYS15       0.1728
     26  C        -23.3650   -0.4540  116.1300 C.2    15  LYS15       0.2617
     27  O        -22.2470   -0.6520  116.6040 O.2    15  LYS15      -0.2715
     28  CB       -23.9730   -0.6290  113.7070 C.3    15  LYS15       0.0311
     29  CG       -24.2730   -1.5150  112.5060 C.3    15  LYS15       0.0038
     30  CD       -24.3290   -0.7050  111.2190 C.3    15  LYS15       0.0206
     31  CE       -25.4300    0.3430  111.2710 C.3    15  LYS15       0.1093
     32  NZ       -26.7830   -0.2670  111.4080 N.3    15  LYS15      -0.1314
     33  N        -24.1440    0.5530  116.5150 N.am   16  SER16      -0.1936
     34  CA       -23.7020    1.5260  117.5120 C.3    16  SER16       0.2055
     35  C        -23.4330    0.8810  118.8670 C.2    16  SER16       0.2643
     36  O        -22.4830    1.2460  119.5620 O.2    16  SER16      -0.2714
     37  CB       -24.7350    2.6460  117.6670 C.3    16  SER16       0.2130
     38  OG       -24.8880    3.3710  116.4570 O.3    16  SER16      -0.2179
     39  N        -24.2720   -0.0810  119.2350 N.am   17  THR17      -0.1950
     40  CA       -24.1590   -0.7420  120.5280 C.3    17  THR17       0.1897
     41  C        -22.8910   -1.5890  120.6140 C.2    17  THR17       0.2313
     42  O        -22.2410   -1.6370  121.6570 O.2    17  THR17      -0.2863
     43  CB       -25.3940   -1.6180  120.8210 C.3    17  THR17       0.1794
     44  OG1      -26.5870   -0.8560  120.6010 O.3    17  THR17      -0.2208
     45  CG2      -25.3740   -2.0970  122.2580 C.3    17  THR17       0.0378
     46  N        -20.3950    4.2130  110.3860 N.3    53  GLU53      -0.1231
     47  CA       -21.6180    3.4180  110.3220 C.3    53  GLU53       0.1699
     48  C        -22.3950    3.6710  109.0370 C.2    53  GLU53       0.2593
     49  O        -22.5040    4.8090  108.5810 O.2    53  GLU53      -0.2718
     50  CB       -22.5280    3.7200  111.5130 C.3    53  GLU53       0.0402
     51  CG       -22.1420    3.0330  112.8070 C.3    53  GLU53       0.1161
     52  CD       -23.2220    3.1600  113.8650 C.2    53  GLU53       0.3649
     53  OE1      -22.8790    3.4130  115.0380 O.co2  53  GLU53      -0.2457
     54  OE2      -24.4160    3.0050  113.5260 O.co2  53  GLU53      -0.2457
     55  N        -22.9430    2.6050  108.4640 N.am   54  THR54      -0.1939
     56  CA       -23.8340    2.7280  107.3180 C.3    54  THR54       0.2028
     57  C        -25.1960    3.2300  107.7800 C.2    54  THR54       0.2642
     58  O        -25.5860    3.0220  108.9290 O.2    54  THR54      -0.2714
     59  CB       -24.0110    1.3870  106.5860 C.3    54  THR54       0.1808
     60  OG1      -24.4280    0.3810  107.5170 O.3    54  THR54      -0.2208
     61  CG2      -22.7050    0.9580  105.9350 C.3    54  THR54       0.0379
     62  N        -25.9170    3.8940  106.8820 N.am   55  CYS55      -0.1953
     63  CA       -27.2360    4.4240  107.2070 C.3    55  CYS55       0.1843
     64  C        -28.2760    3.9810  106.1850 C.2    55  CYS55       0.2626
     65  O        -28.1460    4.2610  104.9930 O.2    55  CYS55      -0.2714
     66  CB       -27.1970    5.9510  107.2860 C.3    55  CYS55       0.0997
     67  SG       -26.0630    6.6030  108.5300 S.3    55  CYS55      -0.0797
     68  N        -29.3050    3.2870  106.6610 N.am   56  GLY56      -0.1954
     69  CA       -30.3670    2.8030  105.8000 C.3    56  GLY56       0.1869
     70  C        -29.8950    1.7360  104.8320 C.2    56  GLY56       0.2309
     71  O        -30.4850    1.5470  103.7670 O.2    56  GLY56      -0.2863
     72  N        -26.6750   -9.6910  117.2610 N.3   136  LYS136     -0.1245
     73  CA       -27.6870  -10.0770  118.2430 C.3   136  LYS136      0.1561
     74  C        -27.7330  -11.5870  118.4540 C.2   136  LYS136      0.2260
     75  O        -28.7930  -12.2050  118.3560 O.2   136  LYS136     -0.2867
     76  CB       -29.0630   -9.5540  117.8260 C.3   136  LYS136      0.0271
     77  CG       -29.1300   -8.0430  117.6830 C.3   136  LYS136      0.0035
     78  CD       -30.5470   -7.5720  117.4010 C.3   136  LYS136      0.0206
     79  CE       -30.6070   -6.0580  117.2800 C.3   136  LYS136      0.1093
     80  NZ       -31.9810   -5.5720  116.9750 N.3   136  LYS136     -0.1314
     81  N        -27.5870  -13.3620  120.9490 N.3   138  ASP138     -0.1225
     82  CA       -28.2950  -13.8210  122.1400 C.3   138  ASP138      0.1805
     83  C        -29.7190  -14.2560  121.8020 C.2   138  ASP138      0.2598
     84  O        -30.4800  -14.6600  122.6810 O.2   138  ASP138     -0.2718
     85  CB       -28.3200  -12.7310  123.2140 C.3   138  ASP138      0.1424
     86  CG       -28.9170  -11.4300  122.7120 C.2   138  ASP138      0.3668
     87  OD1      -28.5240  -10.9770  121.6150 O.co2 138  ASP138     -0.2456
     88  OD2      -29.7800  -10.8600  123.4110 O.co2 138  ASP138     -0.2456
     89  N        -30.0740  -14.1680  120.5250 N.am  139  THR139     -0.1953
     90  CA       -31.4030  -14.5500  120.0680 C.3   139  THR139      0.1897
     91  C        -31.3380  -15.8770  119.3210 C.2   139  THR139      0.2313
     92  O        -32.3000  -16.2950  118.6750 O.2   139  THR139     -0.2863
     93  CB       -32.0100  -13.4730  119.1580 C.3   139  THR139      0.1794
     94  OG1      -31.2490  -13.3800  117.9480 O.3   139  THR139     -0.2208
     95  CG2      -31.9870  -12.1280  119.8570 C.3   139  THR139      0.0378
     96  N        -21.7620  -12.0870  118.1660 N.3   188  VAL188     -0.1231
     97  CA       -21.5770  -10.9030  118.9970 C.3   188  VAL188      0.1692
     98  C        -22.8380  -10.4650  119.7360 C.2   188  VAL188      0.2592
     99  O        -23.9550  -10.6090  119.2360 O.2   188  VAL188     -0.2718
    100  CB       -21.0390   -9.7170  118.1730 C.3   188  VAL188      0.0266
    101  CG1      -19.6580  -10.0370  117.6280 C.3   188  VAL188      0.0020
    102  CG2      -21.9970   -9.3760  117.0430 C.3   188  VAL188      0.0020
    103  N        -22.6370   -9.9380  120.9400 N.am  189  VAL189     -0.1966
    104  CA       -23.7060   -9.3460  121.7300 C.3   189  VAL189      0.1727
    105  C        -23.2190   -8.0190  122.2960 C.2   189  VAL189      0.2616
    106  O        -22.1580   -7.9550  122.9140 O.2   189  VAL189     -0.2715
    107  CB       -24.1290  -10.2620  122.9030 C.3   189  VAL189      0.0290
    108  CG1      -25.1210   -9.5450  123.8120 C.3   189  VAL189      0.0023
    109  CG2      -24.7180  -11.5640  122.3880 C.3   189  VAL189      0.0023
    110  N        -23.9860   -6.9580  122.0740 N.am  190  GLY190     -0.1955
    111  CA       -23.6500   -5.6550  122.6190 C.3   190  GLY190      0.1869
    112  C        -24.6620   -5.1760  123.6430 C.2   190  GLY190      0.2309
    113  O        -25.8110   -5.6220  123.6490 O.2   190  GLY190     -0.2863
    114  N        -27.2420   -7.7660  129.0360 N.3   205  ARG205     -0.1245
    115  CA       -28.6140   -7.5760  128.5790 C.3   205  ARG205      0.1563
    116  C        -29.5360   -8.3600  129.5050 C.2   205  ARG205      0.2260
    117  O        -29.4730   -9.5880  129.5600 O.2   205  ARG205     -0.2867
    118  CB       -28.7920   -8.0340  127.1280 C.3   205  ARG205      0.0307
    119  CG       -28.0490   -7.1880  126.1060 C.3   205  ARG205      0.0489
    120  CD       -28.6330   -7.3530  124.7050 C.3   205  ARG205      0.2205
    121  NE       -29.2580   -6.1190  124.2340 N.pl3 205  ARG205     -0.0865
    122  CZ       -30.5690   -5.9120  124.1720 C.cat 205  ARG205      0.5346
    123  NH1      -31.0340   -4.7490  123.7370 N.pl3 205  ARG205      0.1354
    124  NH2      -31.4160   -6.8650  124.5380 N.pl3 205  ARG205      0.1354
    125  N        -32.9580   -9.8570  130.8470 N.3   207  TYR207     -0.1241
    126  CA       -34.3010  -10.3140  130.5110 C.3   207  TYR207      0.1605
    127  C        -34.9620  -10.8920  131.7630 C.2   207  TYR207      0.2264
    128  O        -34.2760  -11.2010  132.7360 O.2   207  TYR207     -0.2867
    129  CB       -34.2320  -11.3770  129.4110 C.3   207  TYR207      0.0534
    130  CG       -33.6270  -10.8940  128.1110 C.ar  207  TYR207     -0.0201
    131  CD1      -34.4110  -10.2800  127.1430 C.ar  207  TYR207     -0.0009
    132  CD2      -32.2730  -11.0620  127.8480 C.ar  207  TYR207     -0.0009
    133  CE1      -33.8640   -9.8410  125.9520 C.ar  207  TYR207      0.0417
    134  CE2      -31.7160  -10.6260  126.6590 C.ar  207  TYR207      0.0417
    135  CZ       -32.5170  -10.0160  125.7150 C.ar  207  TYR207      0.1957
    136  OH       -31.9710   -9.5800  124.5300 O.3   207  TYR207     -0.2866
@<TRIPOS>BOND
     1    71    70    2
     2    70    69    1
     3    65    64    2
     4    69    68    1
     5    61    59    1
     6    64    68   am
     7    64    63    1
     8    59    56    1
     9    59    60    1
    10    62    63    1
    11    62    57   am
    12    63    66    1
    13    66    67    1
    14    56    57    1
    15    56    55    1
    16    57    58    2
    17    55    48   am
    18    49    48    2
    19     6     5    1
    20    48    47    1
    21     1     2    1
    22     5     2    1
    23     5     7    1
    24    47    46    1
    25    47    50    1
    26     2     3    1
    27    30    31    1
    28    30    29    1
    29    31    32    1
    30    50    51    1
    31     4     3    2
    32     3     8   am
    33    17    19    1
    34    17    16    1
    35    18    16    1
    36    16    13    1
    37    29    28    1
    38     8     9    1
    39    51    52    1
    40    54    52   ar
    41    12    13    1
    42    12    10   am
    43    13    14    1
    44    28    25    1
    45    52    53   ar
    46     9    10    1
    47    10    11    2
    48    14    15    2
    49    14    20   am
    50    25    24    1
    51    25    26    1
    52    24    22   am
    53    20    21    1
    54    26    33   am
    55    26    27    2
    56    22    21    1
    57    22    23    2
    58    38    37    1
    59    33    34    1
    60    80    79    1
    61   102   100    1
    62    72    73    1
    63    79    78    1
    64    78    77    1
    65    34    37    1
    66    34    35    1
    67   101   100    1
    68    77    76    1
    69    76    73    1
    70    94    93    1
    71    96    97    1
    72   100    97    1
    73    73    74    1
    74    75    74    2
    75    92    91    2
    76    35    39   am
    77    35    36    2
    78    97    98    1
    79    93    95    1
    80    93    90    1
    81    39    40    1
    82    99    98    2
    83    91    90    1
    84    98   103   am
    85    90    89    1
    86    89    83   am
    87    40    41    1
    88    40    43    1
    89    44    43    1
    90    41    42    2
    91    43    45    1
    92   103   104    1
    93    81    82    1
    94    87    86   ar
    95   104   105    1
    96   104   107    1
    97    83    82    1
    98    83    84    2
    99   110   105   am
   100   110   111    1
   101    82    85    1
   102   105   106    2
   103   109   107    1
   104   111   112    1
   105    86    85    1
   106    86    88   ar
   107   107   108    1
   108   112   113    2
   109   123   122    1
   110   122   121    2
   111   122   124    1
   112   121   120    1
   113   136   135    1
   114   120   119    1
   115   135   133   ar
   116   135   134   ar
   117   133   131   ar
   118   119   118    1
   119   134   132   ar
   120   118   115    1
   121   131   130   ar
   122   132   130   ar
   123   130   129    1
   124   115   114    1
   125   115   116    1
   126   129   126    1
   127   116   117    2
   128   126   125    1
   129   126   127    1
   130   127   128    2
