@<TRIPOS>MOLECULE
tmp/4kviC01.pdb
 157 149 0 0 0
SMALL
GASTEIGER

@<TRIPOS>ATOM
      1  N         83.6020  -24.9950   21.3200 N.3    50  VAL50      -0.1245
      2  CA        84.0010  -23.5910   21.3840 C.3    50  VAL50       0.1561
      3  C         84.6610  -23.3220   22.7180 C.2    50  VAL50       0.2260
      4  O         85.7650  -22.7820   22.7900 O.2    50  VAL50      -0.2867
      5  CB        82.7920  -22.6440   21.3340 C.3    50  VAL50       0.0252
      6  CG1       83.1590  -21.3550   20.6150 C.3    50  VAL50       0.0019
      7  CG2       81.6070  -23.3130   20.6840 C.3    50  VAL50       0.0019
      8  N         88.1810  -21.8990   23.6430 N.3    54  TYR54      -0.1241
      9  CA        88.3220  -20.6200   24.3300 C.3    54  TYR54       0.1605
     10  C         89.1880  -20.7480   25.5770 C.2    54  TYR54       0.2264
     11  O         90.0550  -19.9120   25.8300 O.2    54  TYR54      -0.2867
     12  CB        86.9510  -20.0660   24.7210 C.3    54  TYR54       0.0534
     13  CG        86.3870  -19.0430   23.7610 C.ar   54  TYR54      -0.0201
     14  CD1       86.3440  -17.6950   24.1000 C.ar   54  TYR54      -0.0009
     15  CD2       85.8940  -19.4230   22.5210 C.ar   54  TYR54      -0.0009
     16  CE1       85.8250  -16.7550   23.2290 C.ar   54  TYR54       0.0417
     17  CE2       85.3740  -18.4900   21.6430 C.ar   54  TYR54       0.0417
     18  CZ        85.3430  -17.1590   22.0020 C.ar   54  TYR54       0.1957
     19  OH        84.8250  -16.2290   21.1310 O.3    54  TYR54      -0.2866
     20  N         78.1030  -21.3530   28.5910 N.3    70  LEU70      -0.1245
     21  CA        78.1420  -20.8730   27.2150 C.3    70  LEU70       0.1561
     22  C         77.0680  -21.5310   26.3540 C.2    70  LEU70       0.2260
     23  O         76.4910  -20.8920   25.4750 O.2    70  LEU70      -0.2867
     24  CB        79.5310  -21.0880   26.6090 C.3    70  LEU70       0.0270
     25  CG        80.4330  -19.8530   26.5300 C.3    70  LEU70       0.0019
     26  CD1       80.1600  -18.8880   27.6730 C.3    70  LEU70       0.0001
     27  CD2       81.8920  -20.2690   26.5310 C.3    70  LEU70       0.0001
     28  N         73.6170  -19.9640   27.1710 N.3    73  LEU73      -0.1231
     29  CA        73.5820  -18.5920   26.6770 C.3    73  LEU73       0.1693
     30  C         73.4580  -18.5750   25.1560 C.2    73  LEU73       0.2592
     31  O         72.7740  -17.7220   24.5920 O.2    73  LEU73      -0.2718
     32  CB        74.8190  -17.8130   27.1310 C.3    73  LEU73       0.0284
     33  CG        74.9160  -17.5140   28.6300 C.3    73  LEU73       0.0019
     34  CD1       76.1480  -16.6760   28.9350 C.3    73  LEU73       0.0001
     35  CD2       73.6570  -16.8230   29.1330 C.3    73  LEU73       0.0001
     36  N         74.1180  -19.5260   24.5020 N.am   74  PHE74      -0.1976
     37  CA        74.0140  -19.6830   23.0560 C.3    74  PHE74       0.1639
     38  C         72.5770  -19.9960   22.6560 C.2    74  PHE74       0.2290
     39  O         72.0470  -19.4210   21.7050 O.2    74  PHE74      -0.2864
     40  CB        74.9340  -20.8040   22.5710 C.3    74  PHE74       0.0560
     41  CG        76.2050  -20.3200   21.9300 C.ar   74  PHE74      -0.0200
     42  CD1       77.4340  -20.6000   22.5020 C.ar   74  PHE74      -0.0042
     43  CD2       76.1700  -19.5960   20.7480 C.ar   74  PHE74      -0.0042
     44  CE1       78.6050  -20.1640   21.9090 C.ar   74  PHE74      -0.0003
     45  CE2       77.3380  -19.1570   20.1500 C.ar   74  PHE74      -0.0003
     46  CZ        78.5570  -19.4420   20.7320 C.ar   74  PHE74      -0.0000
     47  N         70.5190  -16.9540   23.1090 N.3    77  ASP77      -0.1239
     48  CA        70.9210  -16.0240   22.0610 C.3    77  ASP77       0.1674
     49  C         70.1350  -16.2490   20.7690 C.2    77  ASP77       0.2266
     50  O         69.7780  -15.2960   20.0780 O.2    77  ASP77      -0.2867
     51  CB        72.4240  -16.1490   21.7980 C.3    77  ASP77       0.1410
     52  CG        72.9210  -15.1580   20.7670 C.2    77  ASP77       0.3668
     53  OD1       73.1170  -13.9780   21.1220 O.co2  77  ASP77      -0.2456
     54  OD2       73.1220  -15.5620   19.6030 O.co2  77  ASP77      -0.2456
     55  N         76.0000   -8.4520   29.6730 N.3   140  PHE140     -0.1241
     56  CA        75.8890   -9.0760   28.3630 C.3   140  PHE140      0.1605
     57  C         74.4310   -9.2780   27.9620 C.2   140  PHE140      0.2264
     58  O         74.0390   -8.9630   26.8390 O.2   140  PHE140     -0.2867
     59  CB        76.6430  -10.4090   28.3640 C.3   140  PHE140      0.0534
     60  CG        76.1550  -11.3910   27.3360 C.ar  140  PHE140     -0.0203
     61  CD1       76.5920  -11.3180   26.0260 C.ar  140  PHE140     -0.0042
     62  CD2       75.2750  -12.4010   27.6890 C.ar  140  PHE140     -0.0042
     63  CE1       76.1490  -12.2250   25.0820 C.ar  140  PHE140     -0.0003
     64  CE2       74.8280  -13.3080   26.7490 C.ar  140  PHE140     -0.0003
     65  CZ        75.2660  -13.2200   25.4440 C.ar  140  PHE140     -0.0000
     66  N         79.5590   -3.6600   21.1410 N.3   162  ARG162     -0.1245
     67  CA        79.7940   -5.0730   20.8720 C.3   162  ARG162      0.1563
     68  C         80.5270   -5.7420   22.0280 C.2   162  ARG162      0.2260
     69  O         80.2890   -6.9230   22.2990 O.2   162  ARG162     -0.2867
     70  CB        80.5830   -5.2760   19.5700 C.3   162  ARG162      0.0307
     71  CG        79.9340   -6.2550   18.6070 C.3   162  ARG162      0.0489
     72  CD        79.5530   -7.5570   19.2870 C.3   162  ARG162      0.2205
     73  NE        79.4550   -8.6250   18.2970 N.pl3 162  ARG162     -0.0865
     74  CZ        78.8790   -9.8100   18.4820 C.cat 162  ARG162      0.5346
     75  NH1       78.3150  -10.1310   19.6390 N.pl3 162  ARG162      0.1354
     76  NH2       78.8750  -10.6850   17.4850 N.pl3 162  ARG162      0.1354
     77  N         77.8250   -6.9660   24.0700 N.3   165  ASP165     -0.1225
     78  CA        76.9910   -7.9310   23.3520 C.3   165  ASP165      0.1805
     79  C         77.7250   -9.2330   23.0270 C.2   165  ASP165      0.2597
     80  O         77.0990  -10.2780   22.8470 O.2   165  ASP165     -0.2718
     81  CB        76.4040   -7.3110   22.0780 C.3   165  ASP165      0.1424
     82  CG        75.5040   -8.2770   21.3170 C.2   165  ASP165      0.3668
     83  OD1       74.3540   -8.4930   21.7540 O.co2 165  ASP165     -0.2456
     84  OD2       75.9450   -8.8160   20.2800 O.co2 165  ASP165     -0.2456
     85  N         79.0510   -9.1680   22.9550 N.am  166  VAL166     -0.1980
     86  CA        79.8540  -10.3610   22.7130 C.3   166  VAL166      0.1595
     87  C         80.2560  -10.9960   24.0420 C.2   166  VAL166      0.2287
     88  O         80.7530  -12.1220   24.0800 O.2   166  VAL166     -0.2864
     89  CB        81.1100  -10.0460   21.8750 C.3   166  VAL166      0.0276
     90  CG1       82.2370   -9.5370   22.7630 C.3   166  VAL166      0.0022
     91  CG2       81.5530  -11.2790   21.1050 C.3   166  VAL166      0.0022
     92  N         82.2790  -11.3550   30.6570 N.3   170  LEU170     -0.1231
     93  CA        81.8600  -12.6440   31.1960 C.3   170  LEU170      0.1693
     94  C         82.8600  -13.7330   30.8190 C.2   170  LEU170      0.2591
     95  O         83.1440  -14.6220   31.6170 O.2   170  LEU170     -0.2718
     96  CB        80.4320  -13.0080   30.7610 C.3   170  LEU170      0.0284
     97  CG        80.1290  -13.6120   29.3850 C.3   170  LEU170      0.0019
     98  CD1       80.2650  -15.1310   29.3840 C.3   170  LEU170      0.0001
     99  CD2       78.7370  -13.2140   28.9380 C.3   170  LEU170      0.0001
    100  N         83.3950  -13.6460   29.6040 N.am  171  LEU171     -0.1980
    101  CA        84.4020  -14.5920   29.1380 C.3   171  LEU171      0.1596
    102  C         85.6650  -14.4810   29.9780 C.2   171  LEU171      0.2287
    103  O         86.3050  -15.4840   30.2900 O.2   171  LEU171     -0.2864
    104  CB        84.7390  -14.3360   27.6700 C.3   171  LEU171      0.0297
    105  CG        83.6340  -14.5710   26.6420 C.3   171  LEU171      0.0022
    106  CD1       84.0200  -13.9370   25.3170 C.3   171  LEU171      0.0001
    107  CD2       83.3590  -16.0590   26.4720 C.3   171  LEU171      0.0001
    108  N         87.6320  -10.6800   19.0300 N.3   202  LEU202     -0.1245
    109  CA        86.5760  -11.6740   19.1890 C.3   202  LEU202      0.1561
    110  C         85.3060  -11.2630   18.4540 C.2   202  LEU202      0.2260
    111  O         84.6600  -12.0860   17.8060 O.2   202  LEU202     -0.2867
    112  CB        86.2600  -11.8890   20.6710 C.3   202  LEU202      0.0270
    113  CG        87.3740  -12.4520   21.5540 C.3   202  LEU202      0.0019
    114  CD1       86.9470  -12.4320   23.0140 C.3   202  LEU202      0.0001
    115  CD2       87.7440  -13.8620   21.1190 C.3   202  LEU202      0.0001
    116  N         83.9350  -13.1500   14.8030 N.3   206  ASN206     -0.1240
    117  CA        82.5980  -13.7290   14.7970 C.3   206  ASN206      0.1653
    118  C         81.7170  -13.1120   13.7210 C.2   206  ASN206      0.2266
    119  O         81.0320  -13.8250   12.9900 O.2   206  ASN206     -0.2867
    120  CB        81.9180  -13.5780   16.1570 C.3   206  ASN206      0.1155
    121  CG        80.4650  -14.0100   16.1250 C.2   206  ASN206      0.2627
    122  OD1       79.5680  -13.1950   15.9120 O.2   206  ASN206     -0.2716
    123  ND2       80.2280  -15.3010   16.3190 N.am  206  ASN206     -0.0877
    124  N         88.5200  -18.8550   19.0870 N.3   292  ASN292     -0.1240
    125  CA        87.3040  -18.3180   18.4850 C.3   292  ASN292      0.1653
    126  C         87.3470  -18.3870   16.9650 C.2   292  ASN292      0.2266
    127  O         86.3320  -18.6470   16.3180 O.2   292  ASN292     -0.2867
    128  CB        87.0730  -16.8740   18.9390 C.3   292  ASN292      0.1155
    129  CG        85.8640  -16.2400   18.2800 C.2   292  ASN292      0.2627
    130  OD1       84.7380  -16.7090   18.4410 O.2   292  ASN292     -0.2716
    131  ND2       86.0900  -15.1570   17.5490 N.am  292  ASN292     -0.0877
    132  N         87.2020  -22.2460   15.7520 N.3   295  TRP295     -0.1241
    133  CA        85.8370  -22.7480   15.8540 C.3   295  TRP295      0.1605
    134  C         84.9410  -22.1440   14.7810 C.2   295  TRP295      0.2264
    135  O         84.1620  -22.8520   14.1470 O.2   295  TRP295     -0.2867
    136  CB        85.2450  -22.4820   17.2390 C.3   295  TRP295      0.0550
    137  CG        83.8200  -22.9300   17.3430 C.ar  295  TRP295      0.0003
    138  CD1       83.3740  -24.2130   17.4620 C.ar  295  TRP295      0.0946
    139  CD2       82.6530  -22.0990   17.3230 C.ar  295  TRP295      0.0152
    140  NE1       82.0030  -24.2340   17.5220 N.ar  295  TRP295     -0.2442
    141  CE2       81.5350  -22.9480   17.4370 C.ar  295  TRP295      0.0810
    142  CE3       82.4440  -20.7200   17.2240 C.ar  295  TRP295      0.0012
    143  CZ2       80.2290  -22.4660   17.4600 C.ar  295  TRP295      0.0191
    144  CZ3       81.1470  -20.2430   17.2450 C.ar  295  TRP295      0.0001
    145  CH2       80.0560  -21.1140   17.3610 C.ar  295  TRP295      0.0015
    146  N         77.8780  -21.8670   11.3800 N.3   302  TYR302     -0.1241
    147  CA        78.1190  -20.8030   10.4120 C.3   302  TYR302      0.1605
    148  C         78.2450  -21.3670    9.0000 C.2   302  TYR302      0.2264
    149  O         78.0220  -20.6600    8.0170 O.2   302  TYR302     -0.2867
    150  CB        79.3780  -20.0140   10.7820 C.3   302  TYR302      0.0534
    151  CG        79.3680  -19.4590   12.1920 C.ar  302  TYR302     -0.0201
    152  CD1       78.1760  -19.1090   12.8170 C.ar  302  TYR302     -0.0009
    153  CD2       80.5510  -19.2900   12.8980 C.ar  302  TYR302     -0.0009
    154  CE1       78.1650  -18.6070   14.1050 C.ar  302  TYR302      0.0417
    155  CE2       80.5490  -18.7900   14.1850 C.ar  302  TYR302      0.0417
    156  CZ        79.3550  -18.4500   14.7840 C.ar  302  TYR302      0.1957
    157  OH        79.3530  -17.9520   16.0660 O.3   302  TYR302     -0.2866
@<TRIPOS>BOND
     1   149   148    2
     2   148   147    1
     3   147   150    1
     4   147   146    1
     5   150   151    1
     6   151   152   ar
     7   151   153   ar
     8   152   154   ar
     9   153   155   ar
    10   119   118    2
    11   118   117    1
    12   154   156   ar
    13   135   134    2
    14   155   156   ar
    15   134   133    1
    16   156   157    1
    17   117   116    1
    18   117   120    1
    19   132   133    1
    20   133   136    1
    21   122   121    2
    22   121   120    1
    23   121   123   am
    24   127   126    2
    25   126   125    1
    26   142   144   ar
    27   142   139   ar
    28   136   137    1
    29   144   145   ar
    30   139   137   ar
    31   139   141   ar
    32   137   138   ar
    33   145   143   ar
    34   141   143   ar
    35   141   140   ar
    36   138   140   ar
    37    76    74    1
    38   131   129   am
    39   111   110    2
    40   129   130    2
    41   129   128    1
    42    73    74    2
    43    73    72    1
    44   110   109    1
    45    74    75    1
    46   125   128    1
    47   125   124    1
    48    71    72    1
    49    71    70    1
    50   108   109    1
    51   109   112    1
    52    70    67    1
    53    54    52   ar
    54    50    49    2
    55    45    46   ar
    56    45    43   ar
    57    84    82   ar
    58     6     5    1
    59   112   113    1
    60     7     5    1
    61    46    44   ar
    62    43    41   ar
    63    52    53   ar
    64    52    51    1
    65    49    48    1
    66    67    66    1
    67    67    68    1
    68    91    89    1
    69   115   113    1
    70    19    18    1
    71    82    83   ar
    72    82    81    1
    73     1     2    1
    74     5     2    1
    75     2     3    1
    76   113   114    1
    77    17    18   ar
    78    17    15   ar
    79    39    38    2
    80    51    48    1
    81    89    86    1
    82    89    90    1
    83    44    42   ar
    84    41    42   ar
    85    41    40    1
    86    18    16   ar
    87    68    69    2
    88    48    47    1
    89    81    78    1
    90    15    13   ar
    91    40    37    1
    92    38    37    1
    93    86    85    1
    94    86    87    1
    95     3     4    2
    96    80    79    2
    97    85    79   am
    98    79    78    1
    99    37    36    1
   100    16    14   ar
   101    78    77    1
   102     8     9    1
   103    13    14   ar
   104    13    12    1
   105    87    88    2
   106     9    12    1
   107     9    10    1
   108    36    30   am
   109    31    30    2
   110    63    65   ar
   111    63    61   ar
   112    30    29    1
   113   106   105    1
   114    65    64   ar
   115    23    22    2
   116    10    11    2
   117    61    60   ar
   118    22    21    1
   119   107   105    1
   120    25    27    1
   121    25    24    1
   122    25    26    1
   123    24    21    1
   124   105   104    1
   125    29    32    1
   126    29    28    1
   127    64    62   ar
   128    58    57    2
   129    32    33    1
   130    21    20    1
   131    60    62   ar
   132    60    59    1
   133   104   101    1
   134    57    56    1
   135    56    59    1
   136    56    55    1
   137    33    34    1
   138    33    35    1
   139    99    97    1
   140   101   100    1
   141   101   102    1
   142    98    97    1
   143    97    96    1
   144   100    94   am
   145   102   103    2
   146    92    93    1
   147    96    93    1
   148    94    93    1
   149    94    95    2
