@<TRIPOS>MOLECULE
tmp/4kvjA04.pdb
 170 165 0 0 0
SMALL
GASTEIGER

@<TRIPOS>ATOM
      1  N         17.9680   64.3190   79.9130 N.3    29  ASP29      -0.1225
      2  CA        16.8630   63.6010   79.2390 C.3    29  ASP29       0.1805
      3  C         15.5800   64.4000   79.1000 C.2    29  ASP29       0.2598
      4  O         14.9090   64.3200   78.0740 O.2    29  ASP29      -0.2718
      5  CB        16.5680   62.2990   79.9650 C.3    29  ASP29       0.1424
      6  CG        17.7470   61.3110   79.9050 C.2    29  ASP29       0.3668
      7  OD1       18.6440   61.4800   79.0410 O.co2  29  ASP29      -0.2456
      8  OD2       17.7730   60.3820   80.7390 O.co2  29  ASP29      -0.2456
      9  N         15.2530   65.1930   80.1160 N.am   30  LYS30      -0.1966
     10  CA        14.0540   66.0160   80.0740 C.3    30  LYS30       0.1728
     11  C         14.1170   67.0400   78.9620 C.2    30  LYS30       0.2616
     12  O         13.0880   67.5460   78.5500 O.2    30  LYS30      -0.2715
     13  CB        13.8570   66.7560   81.3880 C.3    30  LYS30       0.0311
     14  CG        13.3900   65.8830   82.5290 C.3    30  LYS30       0.0038
     15  CD        13.1030   66.7260   83.7710 C.3    30  LYS30       0.0206
     16  CE        14.3600   67.3270   84.3750 C.3    30  LYS30       0.1093
     17  NZ        14.0580   68.0890   85.6300 N.3    30  LYS30      -0.1314
     18  N         15.3220   67.3700   78.5030 N.am   31  ARG31      -0.1963
     19  CA        15.4910   68.3510   77.4330 C.3    31  ARG31       0.1729
     20  C         16.1670   67.7430   76.1990 C.2    31  ARG31       0.2616
     21  O         16.5610   68.4550   75.2810 O.2    31  ARG31      -0.2715
     22  CB        16.2850   69.5240   77.9580 C.3    31  ARG31       0.0348
     23  CG        15.6940   70.1080   79.2290 C.3    31  ARG31       0.0492
     24  CD        16.6450   71.0970   79.8640 C.3    31  ARG31       0.2205
     25  NE        16.0780   71.7470   81.0480 N.pl3  31  ARG31      -0.0865
     26  CZ        16.1640   71.2900   82.3040 C.cat  31  ARG31       0.5346
     27  NH1       16.7850   70.1470   82.6030 N.pl3  31  ARG31       0.1354
     28  NH2       15.6160   71.9960   83.2790 N.pl3  31  ARG31       0.1354
     29  N         16.2750   66.4220   76.1680 N.am   32  ASN32      -0.1972
     30  CA        16.8500   65.7230   75.0270 C.3    32  ASN32       0.1688
     31  C         18.2150   66.2840   74.6390 C.2    32  ASN32       0.2292
     32  O         18.4590   66.5900   73.4680 O.2    32  ASN32      -0.2864
     33  CB        15.8760   65.7890   73.8380 C.3    32  ASN32       0.1181
     34  CG        16.3020   64.9020   72.6810 C.2    32  ASN32       0.2629
     35  OD1       16.9510   63.8680   72.8780 O.2    32  ASN32      -0.2716
     36  ND2       15.9540   65.3090   71.4660 N.am   32  ASN32      -0.0877
     37  N         23.1300   64.0890   73.7180 N.3    35  HIS35      -0.1226
     38  CA        23.8400   63.9220   72.4470 C.3    35  HIS35       0.1752
     39  C         24.0900   65.2370   71.7180 C.2    35  HIS35       0.2595
     40  O         24.6180   65.2350   70.6050 O.2    35  HIS35      -0.2718
     41  CB        23.0700   62.9810   71.5210 C.3    35  HIS35       0.0759
     42  CG        21.6360   63.3520   71.3430 C.ar   35  HIS35       0.0818
     43  ND1       21.2260   64.3200   70.4540 N.ar   35  HIS35      -0.2268
     44  CD2       20.5170   62.9080   71.9650 C.ar   35  HIS35       0.1154
     45  CE1       19.9140   64.4520   70.5290 C.ar   35  HIS35       0.1986
     46  NE2       19.4600   63.6040   71.4360 N.ar   35  HIS35      -0.2212
     47  N         23.7170   66.3440   72.3510 N.am   36  LYS36      -0.1980
     48  CA        23.8890   67.6780   71.7890 C.3    36  LYS36       0.1596
     49  C         24.9570   68.4630   72.5490 C.2    36  LYS36       0.2287
     50  O         25.0960   69.6850   72.3570 O.2    36  LYS36      -0.2864
     51  CB        22.5650   68.4440   71.8580 C.3    36  LYS36       0.0298
     52  CG        21.4480   67.8010   71.0680 C.3    36  LYS36       0.0038
     53  CD        20.1970   68.6500   71.0940 C.3    36  LYS36       0.0206
     54  CE        19.0540   67.9330   70.4060 C.3    36  LYS36       0.1093
     55  NZ        17.9280   68.8630   70.1600 N.3    36  LYS36      -0.1314
     56  N          6.7370   48.5770   74.4580 N.3   481  TYR481     -0.1241
     57  CA         7.6180   49.7260   74.2420 C.3   481  TYR481      0.1605
     58  C          7.7250   50.6940   75.4340 C.2   481  TYR481      0.2264
     59  O          8.8250   50.9540   75.9410 O.2   481  TYR481     -0.2867
     60  CB         7.1680   50.4950   72.9940 C.3   481  TYR481      0.0534
     61  CG         7.9760   51.7340   72.7120 C.ar  481  TYR481     -0.0201
     62  CD1        9.2450   51.6430   72.1350 C.ar  481  TYR481     -0.0009
     63  CD2        7.4840   53.0010   73.0270 C.ar  481  TYR481     -0.0009
     64  CE1        9.9980   52.7740   71.8750 C.ar  481  TYR481      0.0417
     65  CE2        8.2330   54.1390   72.7650 C.ar  481  TYR481      0.0417
     66  CZ         9.4910   54.0150   72.1930 C.ar  481  TYR481      0.1957
     67  OH        10.2390   55.1330   71.9270 O.3   481  TYR481     -0.2866
     68  N         10.9160   51.4650   78.0680 N.3   485  ARG485     -0.1245
     69  CA        11.5890   52.7300   78.3170 C.3   485  ARG485      0.1563
     70  C         11.6390   53.0480   79.8230 C.2   485  ARG485      0.2260
     71  O         12.7140   53.2970   80.3520 O.2   485  ARG485     -0.2867
     72  CB        10.9230   53.8460   77.5260 C.3   485  ARG485      0.0307
     73  CG        11.2520   53.7730   76.0560 C.3   485  ARG485      0.0489
     74  CD        10.6640   54.9300   75.2740 C.3   485  ARG485      0.2205
     75  NE        11.1110   56.2250   75.7720 N.pl3 485  ARG485     -0.0865
     76  CZ        12.2540   56.8290   75.4470 C.cat 485  ARG485      0.5346
     77  NH1       13.1220   56.2610   74.6330 N.pl3 485  ARG485      0.1354
     78  NH2       12.5390   58.0180   75.9690 N.pl3 485  ARG485      0.1354
     79  N         12.2410   58.5370   79.6190 N.3   491  ILE491     -0.1231
     80  CA        10.9430   59.1960   79.6860 C.3   491  ILE491      0.1678
     81  C          9.9470   58.5560   78.7100 C.2   491  ILE491      0.2434
     82  O         10.1430   58.6080   77.4970 O.2   491  ILE491     -0.2733
     83  CB        11.0800   60.7040   79.4200 C.3   491  ILE491      0.0265
     84  CG1       11.8650   61.3460   80.5710 C.3   491  ILE491      0.0019
     85  CG2        9.7120   61.3690   79.3050 C.3   491  ILE491      0.0020
     86  CD1       12.5500   62.6290   80.1860 C.3   491  ILE491      0.0001
     87  N          8.8680   57.9550   79.2370 N.am  492  PRO492     -0.2718
     88  CA         7.8790   57.3340   78.3520 C.3   492  PRO492      0.1535
     89  C          7.1580   58.3530   77.4560 C.2   492  PRO492      0.2598
     90  O          7.1830   59.5610   77.7250 O.2   492  PRO492     -0.2715
     91  CB         6.9040   56.6750   79.3290 C.3   492  PRO492      0.0310
     92  CG         7.0110   57.4880   80.5770 C.3   492  PRO492      0.0237
     93  CD         8.4540   57.9030   80.6520 C.3   492  PRO492      0.0939
     94  N          6.5520   57.8710   76.3790 N.am  493  ILE493     -0.1978
     95  CA         5.7130   58.7360   75.5460 C.3   493  ILE493      0.1596
     96  C          4.3460   58.9250   76.2120 C.2   493  ILE493      0.2287
     97  O          3.8570   58.0110   76.8710 O.2   493  ILE493     -0.2864
     98  CB         5.5420   58.1740   74.1170 C.3   493  ILE493      0.0276
     99  CG1        4.8170   56.8230   74.1320 C.3   493  ILE493      0.0022
    100  CG2        6.9050   58.0430   73.4410 C.3   493  ILE493      0.0022
    101  CD1        4.4800   56.2960   72.7570 C.3   493  ILE493      0.0001
    102  N          4.9420   62.1400   70.5550 N.3   498  ASP498     -0.1225
    103  CA         6.2210   62.0720   71.2760 C.3   498  ASP498      0.1805
    104  C          7.1700   61.0330   70.6910 C.2   498  ASP498      0.2597
    105  O          8.3740   61.1010   70.9160 O.2   498  ASP498     -0.2718
    106  CB         6.0070   61.7230   72.7490 C.3   498  ASP498      0.1424
    107  CG         5.2620   62.8020   73.5100 C.2   498  ASP498      0.3668
    108  OD1        5.3040   63.9760   73.0830 O.co2 498  ASP498     -0.2456
    109  OD2        4.6360   62.4650   74.5390 O.co2 498  ASP498     -0.2456
    110  N          6.6190   60.0590   69.9780 N.am  499  LEU499     -0.1979
    111  CA         7.3970   58.9610   69.4150 C.3   499  LEU499      0.1596
    112  C          8.0170   59.3760   68.0940 C.2   499  LEU499      0.2287
    113  O          9.1900   59.0910   67.8220 O.2   499  LEU499     -0.2864
    114  CB         6.4790   57.7540   69.2100 C.3   499  LEU499      0.0297
    115  CG         7.0400   56.4970   68.5520 C.3   499  LEU499      0.0022
    116  CD1        8.0570   55.8390   69.4630 C.3   499  LEU499      0.0001
    117  CD2        5.8980   55.5470   68.1890 C.3   499  LEU499      0.0001
    118  N         10.7090   55.0860   66.4490 N.3   529  GLU529     -0.1231
    119  CA        11.2860   56.1450   67.2780 C.3   529  GLU529      0.1699
    120  C         12.1830   57.0950   66.4680 C.2   529  GLU529      0.2592
    121  O         13.0660   56.6610   65.7160 O.2   529  GLU529     -0.2718
    122  CB        12.0620   55.5160   68.4390 C.3   529  GLU529      0.0402
    123  CG        12.4410   56.4570   69.5600 C.3   529  GLU529      0.1161
    124  CD        13.2320   55.7460   70.6320 C.2   529  GLU529      0.3649
    125  OE1       12.6960   54.8020   71.2720 O.co2 529  GLU529     -0.2457
    126  OE2       14.4040   56.1250   70.8190 O.co2 529  GLU529     -0.2457
    127  N         11.9430   58.3900   66.6220 N.am  530  LYS530     -0.1966
    128  CA        12.7410   59.4110   65.9630 C.3   530  LYS530      0.1728
    129  C         14.2000   59.2600   66.4070 C.2   530  LYS530      0.2616
    130  O         14.4870   59.1230   67.5920 O.2   530  LYS530     -0.2715
    131  CB        12.2230   60.8000   66.3240 C.3   530  LYS530      0.0311
    132  CG        12.8710   61.9400   65.5510 C.3   530  LYS530      0.0038
    133  CD        12.8470   63.2210   66.3820 C.3   530  LYS530      0.0206
    134  CE        13.3600   64.4310   65.6100 C.3   530  LYS530      0.1093
    135  NZ        12.2560   65.1780   64.9460 N.3   530  LYS530     -0.1314
    136  N         15.1170   59.2960   65.4550 N.am  531  LYS531     -0.1963
    137  CA        16.5000   58.9420   65.7390 C.3   531  LYS531      0.1728
    138  C         17.4290   60.1260   66.0060 C.2   531  LYS531      0.2616
    139  O         17.2960   61.1860   65.4260 O.2   531  LYS531     -0.2715
    140  CB        17.0310   58.0390   64.6360 C.3   531  LYS531      0.0311
    141  CG        16.4880   56.6410   64.8610 C.3   531  LYS531      0.0038
    142  CD        16.6680   55.7190   63.6960 C.3   531  LYS531      0.0206
    143  CE        15.9170   54.4290   63.9840 C.3   531  LYS531      0.1093
    144  NZ        14.4350   54.6240   64.0560 N.3   531  LYS531     -0.1314
    145  N         18.3530   59.9060   66.9280 N.am  532  ILE532     -0.1963
    146  CA        19.4800   60.7960   67.1420 C.3   532  ILE532      0.1727
    147  C         20.2550   60.9090   65.8310 C.2   532  ILE532      0.2616
    148  O         20.4760   59.9110   65.1510 O.2   532  ILE532     -0.2715
    149  CB        20.3750   60.2340   68.2670 C.3   532  ILE532      0.0290
    150  CG1       19.6400   60.3540   69.6070 C.3   532  ILE532      0.0022
    151  CG2       21.7260   60.9460   68.3380 C.3   532  ILE532      0.0023
    152  CD1       20.3000   59.5870   70.7220 C.3   532  ILE532      0.0001
    153  N         20.6540   62.1210   65.4780 N.am  533  LYS533     -0.1977
    154  CA        21.4550   62.3540   64.2860 C.3   533  LYS533      0.1596
    155  C         22.6980   61.4630   64.3250 C.2   533  LYS533      0.2287
    156  O         23.4080   61.4330   65.3350 O.2   533  LYS533     -0.2864
    157  CB        21.8680   63.8140   64.2350 C.3   533  LYS533      0.0298
    158  CG        22.6120   64.2310   62.9850 C.3   533  LYS533      0.0038
    159  CD        23.0720   65.6740   63.1460 C.3   533  LYS533      0.0206
    160  CE        23.1750   66.4080   61.8200 C.3   533  LYS533      0.1093
    161  NZ        24.3010   65.8950   60.9980 N.3   533  LYS533     -0.1314
    162  N         17.2390   55.2450   70.4930 N.3   539  GLU539     -0.1245
    163  CA        17.8430   55.4990   71.7950 C.3   539  GLU539      0.1567
    164  C         17.4530   54.3970   72.7860 C.2   539  GLU539      0.2260
    165  O         18.2560   53.9750   73.6180 O.2   539  GLU539     -0.2867
    166  CB        17.3880   56.8590   72.3230 C.3   539  GLU539      0.0388
    167  CG        18.0660   57.2720   73.6170 C.3   539  GLU539      0.1160
    168  CD        17.5740   58.6150   74.1260 C.2   539  GLU539      0.3649
    169  OE1       16.3290   58.7860   74.2750 O.co2 539  GLU539     -0.2457
    170  OE2       18.4360   59.4820   74.3840 O.co2 539  GLU539     -0.2457
@<TRIPOS>BOND
     1   161   160    1
     2   160   159    1
     3   158   159    1
     4   158   157    1
     5   142   143    1
     6   142   141    1
     7   143   144    1
     8   157   154    1
     9   154   155    1
    10   154   153    1
    11   155   156    2
    12   140   141    1
    13   140   137    1
    14   135   134    1
    15   148   147    2
    16   139   138    2
    17   136   137    1
    18   136   129   am
    19   153   147   am
    20   132   131    1
    21   132   133    1
    22   134   133    1
    23   121   120    2
    24   137   138    1
    25   147   146    1
    26   128   131    1
    27   128   129    1
    28   128   127    1
    29   138   145   am
    30   129   130    2
    31   118   119    1
    32   120   127   am
    33   120   119    1
    34   145   146    1
    35   146   149    1
    36   119   122    1
    37   113   112    2
    38   112   111    1
    39   117   115    1
    40   149   151    1
    41   149   150    1
    42   122   123    1
    43   115   114    1
    44   115   116    1
    45   114   111    1
    46   111   110    1
    47   123   124    1
    48   150   152    1
    49   110   104   am
    50    55    54    1
    51    54    53    1
    52    43    45   ar
    53    43    42   ar
    54   162   163    1
    55    45    46   ar
    56   102   103    1
    57    40    39    2
    58   124   126   ar
    59   124   125   ar
    60   104   105    2
    61   104   103    1
    62    52    53    1
    63    52    51    1
    64   103   106    1
    65    42    41    1
    66    42    44   ar
    67    46    44   ar
    68    36    34   am
    69    41    38    1
    70    39    47   am
    71    39    38    1
    72    48    51    1
    73    48    47    1
    74    48    49    1
    75   163   166    1
    76   163   164    1
    77    64    62   ar
    78    64    66   ar
    79    67    66    1
    80    62    61   ar
    81    66    65   ar
    82   166   167    1
    83    50    49    2
    84    38    37    1
    85    34    35    2
    86    34    33    1
    87    61    60    1
    88    61    63   ar
    89   106   107    1
    90   101    99    1
    91    65    63   ar
    92   164   165    2
    93    60    57    1
    94   108   107   ar
    95   100    98    1
    96    32    31    2
    97   107   109   ar
    98   167   168    1
    99    33    30    1
   100    98    99    1
   101    98    95    1
   102   168   169   ar
   103   168   170   ar
   104    57    56    1
   105    57    58    1
   106    77    76    1
   107    31    30    1
   108    30    29    1
   109    74    75    1
   110    74    73    1
   111    21    20    2
   112    58    59    2
   113    76    75    2
   114    76    78    1
   115    95    96    1
   116    95    94    1
   117    73    72    1
   118    29    20   am
   119    20    19    1
   120    96    97    2
   121    94    89   am
   122    19    22    1
   123    19    18    1
   124    89    90    2
   125    89    88    1
   126    82    81    2
   127    72    69    1
   128    22    23    1
   129    68    69    1
   130     4     3    2
   131    69    70    1
   132    88    87    1
   133    88    91    1
   134    18    11   am
   135    12    11    2
   136    81    87   am
   137    81    80    1
   138    11    10    1
   139     7     6   ar
   140     3     2    1
   141     3     9   am
   142    23    24    1
   143    87    93    1
   144     2     1    1
   145     2     5    1
   146    85    83    1
   147    91    92    1
   148    83    80    1
   149    83    84    1
   150    79    80    1
   151    70    71    2
   152    24    25    1
   153     6     5    1
   154     6     8   ar
   155    10     9    1
   156    10    13    1
   157    86    84    1
   158    92    93    1
   159    25    26    2
   160    13    14    1
   161    26    27    1
   162    26    28    1
   163    14    15    1
   164    15    16    1
   165    16    17    1
