@<TRIPOS>MOLECULE
tmp/4kvkA05.pdb
 110 104 0 0 0
SMALL
GASTEIGER

@<TRIPOS>ATOM
      1  N          6.5050   58.6770   86.8540 N.3     6  ASP6       -0.1225
      2  CA         6.6650   57.2300   86.7220 C.3     6  ASP6        0.1805
      3  C          7.9680   56.6960   87.3250 C.2     6  ASP6        0.2597
      4  O          8.1050   55.4900   87.5460 O.2     6  ASP6       -0.2718
      5  CB         6.5380   56.8170   85.2520 C.3     6  ASP6        0.1424
      6  CG         5.1350   57.0420   84.7020 C.2     6  ASP6        0.3668
      7  OD1        4.2970   57.6410   85.4150 O.co2   6  ASP6       -0.2456
      8  OD2        4.8690   56.6180   83.5600 O.co2   6  ASP6       -0.2456
      9  N          8.9070   57.5980   87.6030 N.am    7  LEU7       -0.1979
     10  CA        10.1970   57.2220   88.1840 C.3     7  LEU7        0.1596
     11  C         10.3490   57.6660   89.6490 C.2     7  LEU7        0.2287
     12  O         11.3650   57.3890   90.2830 O.2     7  LEU7       -0.2864
     13  CB        11.3520   57.7480   87.3180 C.3     7  LEU7        0.0297
     14  CG        11.3460   57.2570   85.8620 C.3     7  LEU7        0.0022
     15  CD1       12.4460   57.9090   85.0180 C.3     7  LEU7        0.0001
     16  CD2       11.4480   55.7380   85.8100 C.3     7  LEU7        0.0001
     17  N          8.7390   56.5990   92.3590 N.3     9  ASP9       -0.1225
     18  CA         8.7370   55.4750   93.2920 C.3     9  ASP9        0.1805
     19  C         10.1270   54.8470   93.4270 C.2     9  ASP9        0.2597
     20  O         10.6100   54.6400   94.5420 O.2     9  ASP9       -0.2718
     21  CB         7.6890   54.4280   92.8900 C.3     9  ASP9        0.1424
     22  CG         7.7130   53.1920   93.7870 C.2     9  ASP9        0.3668
     23  OD1        7.6240   53.3330   95.0270 O.co2   9  ASP9       -0.2456
     24  OD2        7.8110   52.0700   93.2440 O.co2   9  ASP9       -0.2456
     25  N         10.7760   54.5600   92.2990 N.am   10  VAL10      -0.1980
     26  CA        12.1100   53.9650   92.3410 C.3    10  VAL10       0.1595
     27  C         13.1370   54.9560   92.9040 C.2    10  VAL10       0.2287
     28  O         13.9930   54.5750   93.7030 O.2    10  VAL10      -0.2864
     29  CB        12.5580   53.3490   90.9710 C.3    10  VAL10       0.0276
     30  CG1       12.6850   54.4140   89.8680 C.3    10  VAL10       0.0022
     31  CG2       13.8630   52.5760   91.1380 C.3    10  VAL10       0.0022
     32  N         20.4120   47.9620   88.8900 N.3    56  TYR56      -0.1227
     33  CA        18.9700   47.7100   88.8550 C.3    56  TYR56       0.1736
     34  C         18.4820   46.7900   87.7360 C.2    56  TYR56       0.2595
     35  O         17.3300   46.3460   87.7610 O.2    56  TYR56      -0.2718
     36  CB        18.2130   49.0310   88.7720 C.3    56  TYR56       0.0548
     37  CG        18.1850   49.7760   90.0790 C.ar   56  TYR56      -0.0200
     38  CD1       19.2340   50.6230   90.4470 C.ar   56  TYR56      -0.0009
     39  CD2       17.1130   49.6210   90.9620 C.ar   56  TYR56      -0.0009
     40  CE1       19.2110   51.3060   91.6770 C.ar   56  TYR56       0.0417
     41  CE2       17.0780   50.2960   92.1810 C.ar   56  TYR56       0.0417
     42  CZ        18.1300   51.1310   92.5300 C.ar   56  TYR56       0.1957
     43  OH        18.0820   51.7910   93.7350 O.3    56  TYR56      -0.2866
     44  N         19.3340   46.5260   86.7480 N.am   57  ASN57      -0.1974
     45  CA        18.8780   45.8370   85.5410 C.3    57  ASN57       0.1688
     46  C         19.6520   44.5740   85.1960 C.2    57  ASN57       0.2292
     47  O         19.7950   44.2210   84.0220 O.2    57  ASN57      -0.2864
     48  CB        18.8000   46.8050   84.3500 C.3    57  ASN57       0.1181
     49  CG        17.8370   47.9510   84.6010 C.2    57  ASN57       0.2629
     50  OD1       18.1890   48.9370   85.2430 O.2    57  ASN57      -0.2716
     51  ND2       16.6120   47.8130   84.1230 N.am   57  ASN57      -0.0877
     52  N         19.1690   40.7120   86.4040 N.3    59  LEU59      -0.1245
     53  CA        18.3510   39.7850   87.1810 C.3    59  LEU59       0.1561
     54  C         18.6920   38.3470   86.8360 C.2    59  LEU59       0.2260
     55  O         18.6910   37.9590   85.6590 O.2    59  LEU59      -0.2867
     56  CB        16.8550   40.0500   86.9590 C.3    59  LEU59       0.0270
     57  CG        16.2860   41.4580   87.2150 C.3    59  LEU59       0.0019
     58  CD1       14.7730   41.4510   87.0150 C.3    59  LEU59       0.0001
     59  CD2       16.6340   41.9810   88.6090 C.3    59  LEU59       0.0001
     60  N         12.0120   42.7520   85.2770 N.3   104  GLU104     -0.1245
     61  CA        11.0040   41.7900   85.7250 C.3   104  GLU104      0.1567
     62  C         10.0490   41.4690   84.5720 C.2   104  GLU104      0.2260
     63  O          9.6150   42.3770   83.8620 O.2   104  GLU104     -0.2867
     64  CB        10.2150   42.3350   86.9200 C.3   104  GLU104      0.0388
     65  CG        11.0450   42.5730   88.1770 C.3   104  GLU104      0.1160
     66  CD        11.4860   41.2870   88.8770 C.2   104  GLU104      0.3649
     67  OE1       10.9470   40.1960   88.5650 O.co2 104  GLU104     -0.2457
     68  OE2       12.3780   41.3740   89.7540 O.co2 104  GLU104     -0.2457
     69  N          6.6510   50.4110   78.9550 N.3   483  GLU483     -0.1245
     70  CA         7.1220   49.8440   80.2140 C.3   483  GLU483      0.1567
     71  C          8.6090   49.5070   80.1400 C.2   483  GLU483      0.2260
     72  O          9.3440   49.7270   81.0940 O.2   483  GLU483     -0.2867
     73  CB         6.3060   48.6060   80.5970 C.3   483  GLU483      0.0388
     74  CG         6.6270   48.0460   81.9820 C.3   483  GLU483      0.1160
     75  CD         6.3040   49.0250   83.1160 C.2   483  GLU483      0.3649
     76  OE1        5.5530   50.0120   82.9000 O.co2 483  GLU483     -0.2457
     77  OE2        6.8020   48.7930   84.2330 O.co2 483  GLU483     -0.2457
     78  N         10.4750   52.6650   80.8520 N.3   486  ARG486     -0.1231
     79  CA        10.4060   52.9540   82.3040 C.3   486  ARG486      0.1694
     80  C         11.4200   52.1520   83.1030 C.2   486  ARG486      0.2591
     81  O         12.0770   52.6880   84.0040 O.2   486  ARG486     -0.2718
     82  CB         9.0090   52.6460   82.8780 C.3   486  ARG486      0.0321
     83  CG         7.9370   53.6260   82.5160 C.3   486  ARG486      0.0489
     84  CD         6.6400   53.3330   83.2960 C.3   486  ARG486      0.2205
     85  NE         5.5370   54.0980   82.7330 N.pl3 486  ARG486     -0.0865
     86  CZ         4.7490   53.6910   81.7390 C.cat 486  ARG486      0.5346
     87  NH1        4.9090   52.4950   81.1860 N.pl3 486  ARG486      0.1354
     88  NH2        3.7850   54.4900   81.3040 N.pl3 486  ARG486      0.1354
     89  N         11.5330   50.8620   82.7790 N.am  487  ARG487     -0.1980
     90  CA        12.4200   49.9500   83.5110 C.3   487  ARG487      0.1597
     91  C         13.8940   50.2680   83.2970 C.2   487  ARG487      0.2287
     92  O         14.7360   49.8620   84.0860 O.2   487  ARG487     -0.2864
     93  CB        12.1450   48.4880   83.1390 C.3   487  ARG487      0.0334
     94  CG        10.6980   48.0430   83.3200 C.3   487  ARG487      0.0492
     95  CD        10.3050   47.7530   84.7590 C.3   487  ARG487      0.2205
     96  NE         8.9480   47.1950   84.7820 N.pl3 487  ARG487     -0.0865
     97  CZ         8.6660   45.8950   84.7120 C.cat 487  ARG487      0.5346
     98  NH1        9.6440   44.9950   84.6500 N.pl3 487  ARG487      0.1354
     99  NH2        7.4020   45.4910   84.7140 N.pl3 487  ARG487      0.1354
    100  N         14.8980   53.3970   83.2490 N.3   489  PHE489     -0.1241
    101  CA        14.9580   54.7770   83.7630 C.3   489  PHE489      0.1605
    102  C         14.9060   55.8110   82.6260 C.2   489  PHE489      0.2264
    103  O         15.5700   56.8620   82.6760 O.2   489  PHE489     -0.2867
    104  CB        16.2150   54.9860   84.6220 C.3   489  PHE489      0.0534
    105  CG        16.3510   54.0130   85.7720 C.ar  489  PHE489     -0.0203
    106  CD1       15.7400   54.2740   87.0020 C.ar  489  PHE489     -0.0042
    107  CD2       17.1270   52.8610   85.6440 C.ar  489  PHE489     -0.0042
    108  CE1       15.8840   53.3890   88.0760 C.ar  489  PHE489     -0.0003
    109  CE2       17.2740   51.9700   86.7150 C.ar  489  PHE489     -0.0003
    110  CZ        16.6510   52.2380   87.9330 C.ar  489  PHE489     -0.0000
@<TRIPOS>BOND
     1    69    70    1
     2    71    70    1
     3    71    72    2
     4    70    73    1
     5    73    74    1
     6    78    79    1
     7    87    86    1
     8    88    86    1
     9    86    85    2
    10    74    75    1
    11    79    82    1
    12    79    80    1
    13    83    82    1
    14    83    84    1
    15   102   103    2
    16   102   101    1
    17    85    84    1
    18    89    80   am
    19    89    90    1
    20    76    75   ar
    21    80    81    2
    22    75    77   ar
    23    93    94    1
    24    93    90    1
    25   100   101    1
    26    91    90    1
    27    91    92    2
    28    94    95    1
    29     8     6   ar
    30   101   104    1
    31    63    62    2
    32    47    46    2
    33    51    49   am
    34    48    49    1
    35    48    45    1
    36    62    61    1
    37    49    50    2
    38   104   105    1
    39    98    97    1
    40     6     5    1
    41     6     7   ar
    42    97    99    1
    43    97    96    2
    44    95    96    1
    45    15    14    1
    46    46    45    1
    47     5     2    1
    48    60    61    1
    49    45    44    1
    50   107   105   ar
    51   107   109   ar
    52    55    54    2
    53    61    64    1
    54   105   106   ar
    55    16    14    1
    56    14    13    1
    57    52    53    1
    58   109   110   ar
    59     2     1    1
    60     2     3    1
    61    44    34   am
    62    54    53    1
    63    64    65    1
    64    56    53    1
    65    56    57    1
    66   106   108   ar
    67    58    57    1
    68    57    59    1
    69    13    10    1
    70     3     4    2
    71     3     9   am
    72     9    10    1
    73    34    35    2
    74    34    33    1
    75   110   108   ar
    76    65    66    1
    77    10    11    1
    78    67    66   ar
    79    36    33    1
    80    36    37    1
    81    33    32    1
    82    66    68   ar
    83    11    12    2
    84    30    29    1
    85    37    38   ar
    86    37    39   ar
    87    38    40   ar
    88    39    41   ar
    89    29    31    1
    90    29    26    1
    91    40    42   ar
    92    41    42   ar
    93    25    26    1
    94    25    19   am
    95    26    27    1
    96    17    18    1
    97    42    43    1
    98    21    18    1
    99    21    22    1
   100    27    28    2
   101    24    22   ar
   102    18    19    1
   103    19    20    2
   104    22    23   ar
