@<TRIPOS>MOLECULE
tmp/4kvkA02.pdb
 125 115 0 0 0
SMALL
GASTEIGER

@<TRIPOS>ATOM
      1  N         33.3000   64.8350   76.8180 N.3    40  PRO40      -0.2116
      2  CA        33.5670   64.5100   78.2240 C.3    40  PRO40       0.1372
      3  C         32.3050   64.4060   79.0840 C.2    40  PRO40       0.2244
      4  O         32.2140   63.5070   79.9230 O.2    40  PRO40      -0.2868
      5  CB        34.4360   65.6800   78.7030 C.3    40  PRO40       0.0268
      6  CG        35.1340   66.1410   77.4760 C.3    40  PRO40       0.0207
      7  CD        34.1340   65.9650   76.3640 C.3    40  PRO40       0.0892
      8  N         30.2890   61.2790   78.0820 N.3    43  LEU43      -0.1231
      9  CA        30.8900   60.0870   78.6760 C.3    43  LEU43       0.1693
     10  C         30.5290   59.9540   80.1580 C.2    43  LEU43       0.2591
     11  O         30.2400   58.8630   80.6280 O.2    43  LEU43      -0.2718
     12  CB        32.4220   60.0900   78.4800 C.3    43  LEU43       0.0284
     13  CG        32.9740   59.9710   77.0470 C.3    43  LEU43       0.0019
     14  CD1       34.5100   59.9970   77.0520 C.3    43  LEU43       0.0001
     15  CD2       32.4620   58.7120   76.3380 C.3    43  LEU43       0.0001
     16  N         30.5410   61.0680   80.8870 N.am   44  LEU44      -0.1980
     17  CA        30.1490   61.0580   82.2900 C.3    44  LEU44       0.1596
     18  C         28.6940   60.5920   82.4050 C.2    44  LEU44       0.2287
     19  O         28.3600   59.7600   83.2460 O.2    44  LEU44      -0.2864
     20  CB        30.3220   62.4550   82.9170 C.3    44  LEU44       0.0297
     21  CG        29.9840   62.5970   84.4090 C.3    44  LEU44       0.0022
     22  CD1       30.7730   61.5970   85.2620 C.3    44  LEU44       0.0001
     23  CD2       30.2360   64.0350   84.8940 C.3    44  LEU44       0.0001
     24  N         27.0630   58.6530   80.2640 N.3    46  LEU46      -0.1231
     25  CA        26.9880   57.2340   79.9170 C.3    46  LEU46       0.1693
     26  C         27.4790   56.3470   81.0490 C.2    46  LEU46       0.2592
     27  O         26.8570   55.3390   81.3420 O.2    46  LEU46      -0.2718
     28  CB        27.7510   56.9150   78.6180 C.3    46  LEU46       0.0284
     29  CG        27.1150   57.4930   77.3400 C.3    46  LEU46       0.0019
     30  CD1       27.9920   57.1880   76.1330 C.3    46  LEU46       0.0001
     31  CD2       25.7010   56.9450   77.1320 C.3    46  LEU46       0.0001
     32  N         28.5900   56.7190   81.6860 N.am   47  ASN47      -0.1974
     33  CA        29.1120   55.9140   82.7930 C.3    47  ASN47       0.1688
     34  C         28.1540   55.8970   83.9880 C.2    47  ASN47       0.2292
     35  O         27.9800   54.8730   84.6530 O.2    47  ASN47      -0.2864
     36  CB        30.4930   56.4020   83.2280 C.3    47  ASN47       0.1181
     37  CG        31.1170   55.4980   84.2750 C.2    47  ASN47       0.2629
     38  OD1       31.5450   54.3830   83.9690 O.2    47  ASN47      -0.2716
     39  ND2       31.1660   55.9760   85.5250 N.am   47  ASN47      -0.0877
     40  N         25.2390   53.7630   83.0150 N.3    50  ARG50      -0.1245
     41  CA        25.6890   52.3590   83.0900 C.3    50  ARG50       0.1563
     42  C         25.7300   51.7960   84.5250 C.2    50  ARG50       0.2260
     43  O         25.3010   50.6650   84.7780 O.2    50  ARG50      -0.2867
     44  CB        27.0670   52.1720   82.4210 C.3    50  ARG50       0.0307
     45  CG        27.5100   50.7040   82.3970 C.3    50  ARG50       0.0489
     46  CD        28.7800   50.4740   81.6210 C.3    50  ARG50       0.2205
     47  NE        29.9000   51.2640   82.1370 N.pl3  50  ARG50      -0.0865
     48  CZ        31.0740   51.3660   81.5220 C.cat  50  ARG50       0.5346
     49  NH1       31.2800   50.7260   80.3670 N.pl3  50  ARG50       0.1354
     50  NH2       32.0390   52.1070   82.0530 N.pl3  50  ARG50       0.1354
     51  N         30.1830   58.4570   70.9730 N.3   318  MET318     -0.1245
     52  CA        30.1880   57.0050   70.9320 C.3   318  MET318      0.1570
     53  C         31.5100   56.3990   70.4550 C.2   318  MET318      0.2261
     54  O         31.8730   55.3160   70.9030 O.2   318  MET318     -0.2867
     55  CB        28.9970   56.4630   70.1500 C.3   318  MET318      0.0387
     56  CG        27.6670   56.6530   70.8970 C.3   318  MET318      0.0595
     57  SD        27.7430   56.3190   72.6800 S.3   318  MET318     -0.1393
     58  CE        28.2670   54.5940   72.7070 C.3   318  MET318      0.0692
     59  N         33.4050   56.4800   73.6240 N.3   321  ALA321     -0.1231
     60  CA        32.8880   55.5210   74.6010 C.3   321  ALA321      0.1694
     61  C         33.3340   54.0940   74.2970 C.2   321  ALA321      0.2591
     62  O         33.7890   53.3750   75.1920 O.2   321  ALA321     -0.2718
     63  CB        31.3270   55.5970   74.6990 C.3   321  ALA321      0.0304
     64  N         33.2070   53.6860   73.0370 N.am  322  MET322     -0.1979
     65  CA        33.5410   52.3150   72.6690 C.3   322  MET322      0.1605
     66  C         35.0380   52.0740   72.7750 C.2   322  MET322      0.2287
     67  O         35.4680   51.0170   73.2310 O.2   322  MET322     -0.2864
     68  CB        33.0320   51.9670   71.2690 C.3   322  MET322      0.0413
     69  CG        31.5060   52.1380   71.1000 C.3   322  MET322      0.0598
     70  SD        30.5400   51.3780   72.4140 S.3   322  MET322     -0.1393
     71  CE        31.1250   49.6810   72.2940 C.3   322  MET322      0.0692
     72  N         37.0060   53.6400   74.7740 N.3   324  ALA324     -0.1231
     73  CA        37.2860   53.6440   76.2180 C.3   324  ALA324      0.1694
     74  C         37.0090   52.2880   76.8530 C.2   324  ALA324      0.2592
     75  O         37.7450   51.8660   77.7360 O.2   324  ALA324     -0.2718
     76  CB        36.4840   54.7530   76.9420 C.3   324  ALA324      0.0304
     77  N         35.9390   51.6150   76.4180 N.am  325  ASN325     -0.1974
     78  CA        35.6400   50.2590   76.8990 C.3   325  ASN325      0.1688
     79  C         36.7610   49.2700   76.5900 C.2   325  ASN325      0.2292
     80  O         37.0730   48.4000   77.4080 O.2   325  ASN325     -0.2864
     81  CB        34.3260   49.7330   76.3010 C.3   325  ASN325      0.1181
     82  CG        33.1190   50.0570   77.1660 C.2   325  ASN325      0.2629
     83  OD1       33.2260   50.7910   78.1530 O.2   325  ASN325     -0.2716
     84  ND2       31.9590   49.5000   76.8040 N.am  325  ASN325     -0.0877
     85  N         40.1600   55.0730   78.8460 N.3   329  LEU329     -0.1245
     86  CA        40.2120   56.5030   78.6110 C.3   329  LEU329      0.1561
     87  C         41.6250   57.0530   78.4880 C.2   329  LEU329      0.2260
     88  O         41.8130   58.1300   77.9350 O.2   329  LEU329     -0.2867
     89  CB        39.4810   57.2670   79.7100 C.3   329  LEU329      0.0270
     90  CG        38.1720   57.9780   79.3880 C.3   329  LEU329      0.0019
     91  CD1       37.9620   59.0780   80.4330 C.3   329  LEU329      0.0001
     92  CD2       38.1210   58.5400   77.9640 C.3   329  LEU329      0.0001
     93  N         37.5790   52.5520   83.9560 N.3   345  ILE345     -0.1245
     94  CA        37.4720   53.7570   83.1280 C.3   345  ILE345      0.1561
     95  C         38.8020   54.1200   82.4570 C.2   345  ILE345      0.2260
     96  O         38.8720   54.2490   81.2280 O.2   345  ILE345     -0.2867
     97  CB        36.8920   54.9690   83.9120 C.3   345  ILE345      0.0252
     98  CG1       35.4410   54.6980   84.3270 C.3   345  ILE345      0.0019
     99  CG2       36.9870   56.2550   83.0800 C.3   345  ILE345      0.0019
    100  CD1       34.8970   55.7070   85.3370 C.3   345  ILE345      0.0001
    101  N         19.6700   51.1070   72.5670 N.3   542  PHE542     -0.1241
    102  CA        21.0160   51.5080   72.9740 C.3   542  PHE542      0.1605
    103  C         21.2330   51.3250   74.4850 C.2   542  PHE542      0.2264
    104  O         22.3160   50.9490   74.9110 O.2   542  PHE542     -0.2867
    105  CB        21.2520   52.9660   72.5600 C.3   542  PHE542      0.0534
    106  CG        22.5010   53.5780   73.1330 C.ar  542  PHE542     -0.0203
    107  CD1       23.7660   53.0840   72.7920 C.ar  542  PHE542     -0.0042
    108  CD2       22.4120   54.6720   73.9980 C.ar  542  PHE542     -0.0042
    109  CE1       24.9220   53.6600   73.3210 C.ar  542  PHE542     -0.0003
    110  CE2       23.5620   55.2560   74.5310 C.ar  542  PHE542     -0.0003
    111  CZ        24.8200   54.7570   74.1900 C.ar  542  PHE542     -0.0000
    112  N         24.4390   49.6490   76.3050 N.3   546  ILE546     -0.1245
    113  CA        25.2560   50.2810   77.3700 C.3   546  ILE546      0.1561
    114  C         25.6320   49.2370   78.4290 C.2   546  ILE546      0.2260
    115  O         26.8050   49.0620   78.7780 O.2   546  ILE546     -0.2867
    116  CB        24.4850   51.4570   78.0690 C.3   546  ILE546      0.0252
    117  CG1       24.3800   52.6810   77.1560 C.3   546  ILE546      0.0019
    118  CG2       25.1540   51.8590   79.3840 C.3   546  ILE546      0.0019
    119  CD1       23.4730   53.8220   77.7230 C.3   546  ILE546      0.0001
    120  N         29.1460   46.1630   77.6070 N.3   550  SER550     -0.1217
    121  CA        30.1810   46.2890   78.6210 C.3   550  SER550      0.1889
    122  C         30.3380   44.9710   79.3650 C.2   550  SER550      0.2288
    123  O         31.4580   44.5010   79.6050 O.2   550  SER550     -0.2866
    124  CB        29.8290   47.4060   79.6180 C.3   550  SER550      0.2089
    125  OG        29.7120   48.6430   78.9450 O.3   550  SER550     -0.2183
@<TRIPOS>BOND
     1    55    56    1
     2    55    52    1
     3    53    54    2
     4    53    52    1
     5    56    57    1
     6    52    51    1
     7    69    68    1
     8    69    70    1
     9    68    65    1
    10    71    70    1
    11   105   102    1
    12   105   106    1
    13   101   102    1
    14    65    66    1
    15    65    64    1
    16    57    58    1
    17    66    67    2
    18   107   106   ar
    19   107   109   ar
    20   102   103    1
    21    64    61   am
    22   106   108   ar
    23   109   111   ar
    24    59    60    1
    25   108   110   ar
    26   111   110   ar
    27    61    60    1
    28    61    62    2
    29   103   104    2
    30    60    63    1
    31    72    73    1
    32    30    29    1
    33    73    74    1
    34    73    76    1
    35    81    78    1
    36    81    82    1
    37   112   113    1
    38    15    13    1
    39     7     1    1
    40     7     6    1
    41    77    74   am
    42    77    78    1
    43    79    78    1
    44    79    80    2
    45    84    82   am
    46     1     2    1
    47    74    75    2
    48    13    14    1
    49    13    12    1
    50    31    29    1
    51   117   119    1
    52   117   116    1
    53    82    83    2
    54    29    28    1
    55   113   116    1
    56   113   114    1
    57     6     5    1
    58   120   121    1
    59    88    87    2
    60    92    90    1
    61   116   118    1
    62     8     9    1
    63     2     5    1
    64     2     3    1
    65   114   115    2
    66    12     9    1
    67    87    86    1
    68    86    85    1
    69    86    89    1
    70    28    25    1
    71   121   122    1
    72   121   124    1
    73     9    10    1
    74   125   124    1
    75     3     4    2
    76   122   123    2
    77    90    89    1
    78    90    91    1
    79    25    24    1
    80    25    26    1
    81    10    11    2
    82    10    16   am
    83    49    48    1
    84    16    17    1
    85    26    27    2
    86    26    32   am
    87    96    95    2
    88    48    50    1
    89    48    47    2
    90    46    47    1
    91    46    45    1
    92    32    33    1
    93    17    18    1
    94    17    20    1
    95    45    44    1
    96    18    19    2
    97    44    41    1
    98    95    94    1
    99    33    36    1
   100    33    34    1
   101    20    21    1
   102    40    41    1
   103    99    97    1
   104    41    42    1
   105    94    97    1
   106    94    93    1
   107    36    37    1
   108    97    98    1
   109    38    37    2
   110    34    35    2
   111    37    39   am
   112    98   100    1
   113    21    23    1
   114    21    22    1
   115    42    43    2
