@<TRIPOS>MOLECULE
tmp/4kvkA04.pdb
 150 144 0 0 0
SMALL
GASTEIGER

@<TRIPOS>ATOM
      1  N         18.0590   63.9100   80.3710 N.3    29  ASP29      -0.1239
      2  CA        16.9660   63.1780   79.7020 C.3    29  ASP29       0.1674
      3  C         15.6840   63.9820   79.5410 C.2    29  ASP29       0.2266
      4  O         15.0260   63.8950   78.5040 O.2    29  ASP29      -0.2867
      5  CB        16.6800   61.8550   80.4220 C.3    29  ASP29       0.1410
      6  CG        17.8560   60.8800   80.3440 C.2    29  ASP29       0.3668
      7  OD1       18.7320   61.0490   79.4590 O.co2  29  ASP29      -0.2456
      8  OD2       17.9060   59.9490   81.1770 O.co2  29  ASP29      -0.2456
      9  N         16.3680   66.0130   76.6690 N.3    32  ASN32      -0.1240
     10  CA        16.9210   65.3040   75.5050 C.3    32  ASN32       0.1653
     11  C         18.3070   65.8470   75.1270 C.2    32  ASN32       0.2266
     12  O         18.5480   66.2260   73.9720 O.2    32  ASN32      -0.2867
     13  CB        15.9480   65.3650   74.3040 C.3    32  ASN32       0.1155
     14  CG        16.4000   64.4970   73.1260 C.2    32  ASN32       0.2627
     15  OD1       17.0540   63.4650   73.3080 O.2    32  ASN32      -0.2716
     16  ND2       16.0580   64.9240   71.9100 N.am   32  ASN32      -0.0877
     17  N         23.2300   63.5790   74.1860 N.3    35  HIS35      -0.1226
     18  CA        23.9240   63.4080   72.9090 C.3    35  HIS35       0.1752
     19  C         24.2150   64.7480   72.2300 C.2    35  HIS35       0.2595
     20  O         24.8000   64.7760   71.1490 O.2    35  HIS35      -0.2718
     21  CB        23.1130   62.4890   71.9870 C.3    35  HIS35       0.0759
     22  CG        21.6690   62.8710   71.8840 C.ar   35  HIS35       0.0818
     23  ND1       21.2100   63.7890   70.9670 N.ar   35  HIS35      -0.2268
     24  CD2       20.5900   62.4910   72.6090 C.ar   35  HIS35       0.1154
     25  CE1       19.9060   63.9460   71.1170 C.ar   35  HIS35       0.1986
     26  NE2       19.5050   63.1670   72.1050 N.ar   35  HIS35      -0.2212
     27  N         23.8460   65.8480   72.8900 N.am   36  LYS36      -0.1980
     28  CA        24.0130   67.1960   72.3390 C.3    36  LYS36       0.1596
     29  C         25.0910   68.0030   73.0710 C.2    36  LYS36       0.2287
     30  O         25.2030   69.2180   72.8760 O.2    36  LYS36      -0.2864
     31  CB        22.6850   67.9700   72.4060 C.3    36  LYS36       0.0298
     32  CG        21.5630   67.4190   71.5290 C.3    36  LYS36       0.0038
     33  CD        20.3800   68.3780   71.5320 C.3    36  LYS36       0.0206
     34  CE        19.2760   67.9310   70.5810 C.3    36  LYS36       0.1093
     35  NZ        18.1290   67.3250   71.2970 N.3    36  LYS36      -0.1314
     36  N          6.8240   48.3210   74.7410 N.3   481  TYR481     -0.1241
     37  CA         7.6860   49.4850   74.5280 C.3   481  TYR481      0.1605
     38  C          7.7600   50.4650   75.7040 C.2   481  TYR481      0.2264
     39  O          8.8590   50.7760   76.1800 O.2   481  TYR481     -0.2867
     40  CB         7.2870   50.2360   73.2490 C.3   481  TYR481      0.0534
     41  CG         8.0920   51.4950   73.0000 C.ar  481  TYR481     -0.0201
     42  CD1        9.3970   51.4290   72.4830 C.ar  481  TYR481     -0.0009
     43  CD2        7.5640   52.7510   73.2950 C.ar  481  TYR481     -0.0009
     44  CE1       10.1410   52.5890   72.2500 C.ar  481  TYR481      0.0417
     45  CE2        8.2970   53.9090   73.0710 C.ar  481  TYR481      0.0417
     46  CZ         9.5850   53.8230   72.5540 C.ar  481  TYR481      0.1957
     47  OH        10.3030   54.9770   72.3330 O.3   481  TYR481     -0.2866
     48  N         10.8720   51.0870   78.4070 N.3   485  ARG485     -0.1245
     49  CA        11.5410   52.3660   78.6560 C.3   485  ARG485      0.1563
     50  C         11.6160   52.7230   80.1560 C.2   485  ARG485      0.2260
     51  O         12.7030   53.0160   80.6650 O.2   485  ARG485     -0.2867
     52  CB        10.8720   53.4970   77.8680 C.3   485  ARG485      0.0307
     53  CG        11.2290   53.5150   76.3970 C.3   485  ARG485      0.0489
     54  CD        10.6980   54.7590   75.6920 C.3   485  ARG485      0.2205
     55  NE        11.1870   56.0250   76.2570 N.pl3 485  ARG485     -0.0865
     56  CZ        12.3410   56.6090   75.9340 C.cat 485  ARG485      0.5346
     57  NH1       13.1650   56.0480   75.0550 N.pl3 485  ARG485      0.1354
     58  NH2       12.6810   57.7620   76.5000 N.pl3 485  ARG485      0.1354
     59  N         12.2920   58.1670   80.0940 N.3   491  ILE491     -0.1231
     60  CA        10.9890   58.8280   80.1380 C.3   491  ILE491      0.1678
     61  C         10.0200   58.1770   79.1340 C.2   491  ILE491      0.2434
     62  O         10.3170   58.1130   77.9380 O.2   491  ILE491     -0.2733
     63  CB        11.1380   60.3380   79.8850 C.3   491  ILE491      0.0265
     64  CG1       12.0240   60.9560   80.9850 C.3   491  ILE491      0.0019
     65  CG2        9.7700   61.0300   79.8460 C.3   491  ILE491      0.0020
     66  CD1       12.4090   62.3920   80.7230 C.3   491  ILE491      0.0001
     67  N          8.8660   57.6830   79.6250 N.am  492  PRO492     -0.2718
     68  CA         7.8630   57.0740   78.7370 C.3   492  PRO492      0.1535
     69  C          7.1840   58.1040   77.8310 C.2   492  PRO492      0.2598
     70  O          7.2100   59.3090   78.1200 O.2   492  PRO492     -0.2715
     71  CB         6.8410   56.4820   79.7170 C.3   492  PRO492      0.0310
     72  CG         6.9670   57.3600   80.9630 C.3   492  PRO492      0.0237
     73  CD         8.4430   57.6580   81.0420 C.3   492  PRO492      0.0939
     74  N          6.5890   57.6300   76.7380 N.am  493  ILE493     -0.1978
     75  CA         5.7850   58.4850   75.8760 C.3   493  ILE493      0.1596
     76  C          4.4040   58.7020   76.5180 C.2   493  ILE493      0.2287
     77  O          3.9000   57.8280   77.2190 O.2   493  ILE493     -0.2864
     78  CB         5.6290   57.9060   74.4280 C.3   493  ILE493      0.0276
     79  CG1        4.8750   56.5720   74.4320 C.3   493  ILE493      0.0022
     80  CG2        7.0030   57.7530   73.7410 C.3   493  ILE493      0.0022
     81  CD1        4.4850   56.0750   73.0310 C.3   493  ILE493      0.0001
     82  N          5.1230   61.8660   70.8930 N.3   498  ASP498     -0.1225
     83  CA         6.3800   61.7390   71.6320 C.3   498  ASP498      0.1805
     84  C          7.3080   60.6850   71.0190 C.2   498  ASP498      0.2597
     85  O          8.5210   60.7220   71.2260 O.2   498  ASP498     -0.2718
     86  CB         6.1200   61.3550   73.0910 C.3   498  ASP498      0.1424
     87  CG         5.3700   62.4290   73.8720 C.2   498  ASP498      0.3668
     88  OD1        5.4340   63.6170   73.4920 O.co2 498  ASP498     -0.2456
     89  OD2        4.7190   62.0710   74.8750 O.co2 498  ASP498     -0.2456
     90  N          6.7300   59.7360   70.2930 N.am  499  LEU499     -0.1979
     91  CA         7.4840   58.6220   69.7210 C.3   499  LEU499      0.1596
     92  C          8.1660   59.0280   68.4160 C.2   499  LEU499      0.2287
     93  O          9.3470   58.7220   68.1910 O.2   499  LEU499     -0.2864
     94  CB         6.5520   57.4180   69.4940 C.3   499  LEU499      0.0297
     95  CG         7.0970   56.1360   68.8530 C.3   499  LEU499      0.0022
     96  CD1        8.1000   55.4520   69.7540 C.3   499  LEU499      0.0001
     97  CD2        5.9450   55.1870   68.5120 C.3   499  LEU499      0.0001
     98  N         10.8070   54.7560   66.7850 N.3   529  GLU529     -0.1231
     99  CA        11.3870   55.7990   67.6470 C.3   529  GLU529      0.1699
    100  C         12.3080   56.7500   66.8700 C.2   529  GLU529      0.2592
    101  O         13.2190   56.3100   66.1730 O.2   529  GLU529     -0.2718
    102  CB        12.1480   55.1590   68.8140 C.3   529  GLU529      0.0402
    103  CG        12.5770   56.1520   69.8940 C.3   529  GLU529      0.1161
    104  CD        13.3430   55.4830   71.0150 C.2   529  GLU529      0.3649
    105  OE1       12.7690   54.6090   71.7060 O.co2 529  GLU529     -0.2457
    106  OE2       14.5200   55.8360   71.2090 O.co2 529  GLU529     -0.2457
    107  N         12.0500   58.0480   66.9880 N.am  530  LYS530     -0.1966
    108  CA        12.8980   59.0910   66.3960 C.3   530  LYS530      0.1728
    109  C         14.3500   58.8910   66.8370 C.2   530  LYS530      0.2616
    110  O         14.6220   58.7140   68.0230 O.2   530  LYS530     -0.2715
    111  CB        12.4000   60.4690   66.8340 C.3   530  LYS530      0.0311
    112  CG        13.0940   61.6720   66.1850 C.3   530  LYS530      0.0038
    113  CD        12.2990   62.9660   66.4680 C.3   530  LYS530      0.0206
    114  CE        13.1330   64.2320   66.2600 C.3   530  LYS530      0.1093
    115  NZ        13.5490   64.4550   64.8420 N.3   530  LYS530     -0.1314
    116  N         15.2760   58.9330   65.8840 N.am  531  LYS531     -0.1963
    117  CA        16.6630   58.5960   66.1700 C.3   531  LYS531      0.1728
    118  C         17.5910   59.7760   66.4670 C.2   531  LYS531      0.2616
    119  O         17.4500   60.8580   65.9120 O.2   531  LYS531     -0.2715
    120  CB        17.2220   57.7130   65.0550 C.3   531  LYS531      0.0311
    121  CG        16.6390   56.2990   65.1310 C.3   531  LYS531      0.0038
    122  CD        16.8740   55.5180   63.8850 C.3   531  LYS531      0.0206
    123  CE        16.0710   54.2270   63.9350 C.3   531  LYS531      0.1093
    124  NZ        14.5830   54.4680   64.0630 N.3   531  LYS531     -0.1314
    125  N         18.5310   59.5440   67.3730 N.am  532  ILE532     -0.1963
    126  CA        19.6420   60.4550   67.6020 C.3   532  ILE532      0.1727
    127  C         20.4130   60.5890   66.2820 C.2   532  ILE532      0.2616
    128  O         20.6100   59.5940   65.5660 O.2   532  ILE532     -0.2715
    129  CB        20.5470   59.9130   68.7480 C.3   532  ILE532      0.0290
    130  CG1       19.8030   60.0200   70.0920 C.3   532  ILE532      0.0022
    131  CG2       21.8940   60.6420   68.7990 C.3   532  ILE532      0.0023
    132  CD1       20.3260   59.0840   71.1990 C.3   532  ILE532      0.0001
    133  N         20.8080   61.8130   65.9430 N.am  533  LYS533     -0.1977
    134  CA        21.6490   62.0570   64.7690 C.3   533  LYS533      0.1596
    135  C         22.8790   61.1360   64.7920 C.2   533  LYS533      0.2287
    136  O         23.6320   61.1120   65.7710 O.2   533  LYS533     -0.2864
    137  CB        22.0860   63.5240   64.7330 C.3   533  LYS533      0.0298
    138  CG        22.4980   64.0370   63.3590 C.3   533  LYS533      0.0038
    139  CD        23.9910   63.9600   63.1560 C.3   533  LYS533      0.0206
    140  CE        24.4390   64.7750   61.9470 C.3   533  LYS533      0.1093
    141  NZ        24.4380   66.2350   62.2420 N.3   533  LYS533     -0.1314
    142  N         17.3410   54.9570   70.8970 N.3   539  GLU539     -0.1245
    143  CA        17.9320   55.1810   72.2020 C.3   539  GLU539      0.1567
    144  C         17.5190   54.0810   73.1930 C.2   539  GLU539      0.2260
    145  O         18.3170   53.6620   74.0330 O.2   539  GLU539     -0.2867
    146  CB        17.5140   56.5580   72.7280 C.3   539  GLU539      0.0388
    147  CG        18.1610   56.9140   74.0520 C.3   539  GLU539      0.1160
    148  CD        17.6680   58.2330   74.6080 C.2   539  GLU539      0.3649
    149  OE1       16.4390   58.3870   74.8120 O.co2 539  GLU539     -0.2457
    150  OE2       18.5230   59.1050   74.8460 O.co2 539  GLU539     -0.2457
@<TRIPOS>BOND
     1   140   141    1
     2   140   139    1
     3   139   138    1
     4   138   137    1
     5   122   123    1
     6   122   121    1
     7   123   124    1
     8   137   134    1
     9   134   135    1
    10   134   133    1
    11   135   136    2
    12   115   114    1
    13   120   121    1
    14   120   117    1
    15   128   127    2
    16   116   117    1
    17   116   109   am
    18   119   118    2
    19   133   127   am
    20   117   118    1
    21   101   100    2
    22   112   113    1
    23   112   111    1
    24   114   113    1
    25   127   126    1
    26   108   111    1
    27   108   109    1
    28   108   107    1
    29   118   125   am
    30    98    99    1
    31   109   110    2
    32   100   107   am
    33   100    99    1
    34   125   126    1
    35   126   129    1
    36    99   102    1
    37    93    92    2
    38    92    91    1
    39    97    95    1
    40   129   131    1
    41   129   130    1
    42   102   103    1
    43    95    94    1
    44    95    96    1
    45    94    91    1
    46    91    90    1
    47   103   104    1
    48   130   132    1
    49    90    84   am
    50    34    35    1
    51    34    33    1
    52    82    83    1
    53   142   143    1
    54    23    25   ar
    55    23    22   ar
    56   104   106   ar
    57   104   105   ar
    58    84    85    2
    59    84    83    1
    60    25    26   ar
    61    20    19    2
    62    32    33    1
    63    32    31    1
    64    83    86    1
    65    22    21    1
    66    22    24   ar
    67    16    14   am
    68    21    18    1
    69    26    24   ar
    70   143   146    1
    71   143   144    1
    72    19    27   am
    73    19    18    1
    74    44    42   ar
    75    44    46   ar
    76    47    46    1
    77    28    31    1
    78    28    27    1
    79    28    29    1
    80    42    41   ar
    81    46    45   ar
    82   146   147    1
    83    30    29    2
    84    18    17    1
    85    41    40    1
    86    41    43   ar
    87    81    79    1
    88    45    43   ar
    89    86    87    1
    90    14    15    2
    91    14    13    1
    92   144   145    2
    93    40    37    1
    94    88    87   ar
    95    80    78    1
    96    87    89   ar
    97    12    11    2
    98   147   148    1
    99    13    10    1
   100    78    79    1
   101    78    75    1
   102    37    36    1
   103    37    38    1
   104   148   149   ar
   105   148   150   ar
   106    57    56    1
   107    11    10    1
   108    10     9    1
   109    54    55    1
   110    54    53    1
   111    38    39    2
   112    75    76    1
   113    75    74    1
   114    56    55    2
   115    56    58    1
   116    53    52    1
   117    76    77    2
   118    74    69   am
   119    69    70    2
   120    69    68    1
   121    52    49    1
   122    62    61    2
   123    48    49    1
   124     4     3    2
   125    49    50    1
   126    68    67    1
   127    68    71    1
   128    61    67   am
   129    61    60    1
   130     7     6   ar
   131     3     2    1
   132    67    73    1
   133     2     1    1
   134     2     5    1
   135    71    72    1
   136    65    63    1
   137    63    60    1
   138    63    64    1
   139    59    60    1
   140    50    51    2
   141     6     5    1
   142     6     8   ar
   143    66    64    1
   144    72    73    1
