@<TRIPOS>MOLECULE
tmp/4kvlA11.pdb
 89 85 0 0 0
SMALL
GASTEIGER

@<TRIPOS>ATOM
      1  N         38.7720   25.2620   55.1090 N.3   231  ILE231     -0.1231
      2  CA        38.2730   26.2990   54.1910 C.3   231  ILE231      0.1692
      3  C         38.4280   25.7890   52.7520 C.2   231  ILE231      0.2593
      4  O         39.3270   24.9960   52.4810 O.2   231  ILE231     -0.2718
      5  CB        39.0430   27.6380   54.3820 C.3   231  ILE231      0.0266
      6  CG1       38.4130   28.7690   53.5460 C.3   231  ILE231      0.0019
      7  CG2       40.5410   27.4800   54.0680 C.3   231  ILE231      0.0020
      8  CD1       37.2040   29.3990   54.1850 C.3   231  ILE231      0.0001
      9  N         37.5720   26.2370   51.8360 N.am  232  GLY232     -0.1942
     10  CA        37.7020   25.8260   50.4310 C.3   232  GLY232      0.2014
     11  C         38.8070   26.5540   49.7000 C.2   232  GLY232      0.2639
     12  O         39.2730   27.6140   50.1400 O.2   232  GLY232     -0.2714
     13  N         39.2180   25.9830   48.5690 N.am  233  ASP233     -0.1957
     14  CA        40.2520   26.5630   47.7110 C.3   233  ASP233      0.1840
     15  C         39.8130   27.8540   47.0150 C.2   233  ASP233      0.2622
     16  O         40.6450   28.5890   46.4810 O.2   233  ASP233     -0.2715
     17  CB        40.7220   25.5280   46.6740 C.3   233  ASP233      0.1450
     18  CG        41.7270   24.5310   47.2550 C.2   233  ASP233      0.3671
     19  OD1       42.0140   24.5930   48.4720 O.co2 233  ASP233     -0.2456
     20  OD2       42.2280   23.6790   46.4890 O.co2 233  ASP233     -0.2456
     21  N         38.5100   28.1390   47.0190 N.am  234  ASP234     -0.1957
     22  CA        38.0270   29.4180   46.5140 C.3   234  ASP234      0.1840
     23  C         37.9650   30.4980   47.6200 C.2   234  ASP234      0.2622
     24  O         37.4740   31.6050   47.3860 O.2   234  ASP234     -0.2715
     25  CB        36.6610   29.2650   45.8120 C.3   234  ASP234      0.1450
     26  CG        35.6120   28.5400   46.6760 C.2   234  ASP234      0.3671
     27  OD1       35.9030   28.1690   47.8450 O.co2 234  ASP234     -0.2456
     28  OD2       34.4760   28.3460   46.1740 O.co2 234  ASP234     -0.2456
     29  N         38.4540   30.1720   48.8160 N.am  235  GLY235     -0.1954
     30  CA        38.3680   31.0970   49.9720 C.3   235  GLY235      0.1869
     31  C         36.9490   31.1870   50.5450 C.2   235  GLY235      0.2309
     32  O         36.6360   32.1020   51.3180 O.2   235  GLY235     -0.2863
     33  N         40.1970   32.3430   57.5180 N.3   266  LYS266     -0.1245
     34  CA        41.5230   32.6880   57.0010 C.3   266  LYS266      0.1561
     35  C         42.3310   33.4850   58.0010 C.2   266  LYS266      0.2260
     36  O         43.5580   33.3250   58.0820 O.2   266  LYS266     -0.2867
     37  CB        41.4130   33.4460   55.6820 C.3   266  LYS266      0.0271
     38  CG        41.0340   32.5170   54.5280 C.3   266  LYS266      0.0035
     39  CD        40.4960   33.2720   53.3470 C.3   266  LYS266      0.0206
     40  CE        41.5830   33.9740   52.6050 C.3   266  LYS266      0.1093
     41  NZ        41.9990   33.1720   51.4290 N.3   266  LYS266     -0.1314
     42  N         43.6540   30.9800   60.5880 N.3   269  ASN269     -0.1240
     43  CA        44.7360   30.1980   59.9950 C.3   269  ASN269      0.1653
     44  C         46.0270   31.0060   59.8490 C.2   269  ASN269      0.2266
     45  O         47.1230   30.4750   60.0510 O.2   269  ASN269     -0.2867
     46  CB        44.2890   29.5860   58.6550 C.3   269  ASN269      0.1155
     47  CG        43.2270   28.4980   58.8250 C.2   269  ASN269      0.2627
     48  OD1       43.0250   27.9830   59.9180 O.2   269  ASN269     -0.2716
     49  ND2       42.5560   28.1370   57.7280 N.am  269  ASN269     -0.0877
     50  N         35.5360   37.8260   46.3560 N.3   422  GLU422     -0.1245
     51  CA        35.8610   39.1970   45.9820 C.3   422  GLU422      0.1567
     52  C         34.6750   39.9850   45.4420 C.2   422  GLU422      0.2260
     53  O         34.4020   41.0900   45.9100 O.2   422  GLU422     -0.2867
     54  CB        37.0160   39.2400   44.9830 C.3   422  GLU422      0.0388
     55  CG        38.3670   39.1340   45.6430 C.3   422  GLU422      0.1160
     56  CD        39.4510   38.7970   44.6290 C.2   422  GLU422      0.3649
     57  OE1       39.2550   37.8260   43.8680 O.co2 422  GLU422     -0.2457
     58  OE2       40.4790   39.5040   44.5790 O.co2 422  GLU422     -0.2457
     59  N         44.0450   39.6620   53.6770 N.3   588  HIS588     -0.1226
     60  CA        43.7320   38.4890   52.8530 C.3   588  HIS588      0.1752
     61  C         43.3680   38.8470   51.4140 C.2   588  HIS588      0.2596
     62  O         43.5370   38.0320   50.5040 O.2   588  HIS588     -0.2718
     63  CB        42.6230   37.6760   53.5380 C.3   588  HIS588      0.0759
     64  CG        42.9570   37.3130   54.9530 C.ar  588  HIS588      0.0818
     65  ND1       43.8990   36.3560   55.2690 N.ar  588  HIS588     -0.2268
     66  CD2       42.5130   37.8090   56.1360 C.ar  588  HIS588      0.1154
     67  CE1       44.0170   36.2720   56.5850 C.ar  588  HIS588      0.1986
     68  NE2       43.1750   37.1330   57.1360 N.ar  588  HIS588     -0.2212
     69  N         42.8890   40.0750   51.2200 N.am  589  TYR589     -0.1976
     70  CA        42.4590   40.5940   49.9210 C.3   589  TYR589      0.1639
     71  C         42.9830   42.0130   49.6680 C.2   589  TYR589      0.2290
     72  O         42.1890   42.9480   49.5100 O.2   589  TYR589     -0.2864
     73  CB        40.9190   40.5280   49.8130 C.3   589  TYR589      0.0560
     74  CG        40.4190   39.1050   49.8930 C.ar  589  TYR589     -0.0198
     75  CD1       40.4270   38.2840   48.7520 C.ar  589  TYR589     -0.0009
     76  CD2       40.0150   38.5490   51.1120 C.ar  589  TYR589     -0.0009
     77  CE1       40.0070   36.9580   48.8150 C.ar  589  TYR589      0.0417
     78  CE2       39.6050   37.2220   51.1930 C.ar  589  TYR589      0.0417
     79  CZ        39.6030   36.4370   50.0290 C.ar  589  TYR589      0.1957
     80  OH        39.1700   35.1340   50.0760 O.3   589  TYR589     -0.2866
     81  N         44.3240   43.3890   47.0320 N.3   591  GLU591     -0.1245
     82  CA        44.0700   43.9360   45.6990 C.3   591  GLU591      0.1567
     83  C         42.7570   44.7340   45.6080 C.2   591  GLU591      0.2260
     84  O         42.7680   45.8930   45.1750 O.2   591  GLU591     -0.2867
     85  CB        44.1150   42.8260   44.6230 C.3   591  GLU591      0.0388
     86  CG        45.4210   42.0030   44.6180 C.3   591  GLU591      0.1160
     87  CD        45.3960   40.7670   45.5610 C.2   591  GLU591      0.3649
     88  OE1       44.4920   40.6400   46.4480 O.co2 591  GLU591     -0.2457
     89  OE2       46.2980   39.9060   45.3920 O.co2 591  GLU591     -0.2457
@<TRIPOS>BOND
     1    57    56   ar
     2    58    56   ar
     3    86    85    1
     4    86    87    1
     5    85    82    1
     6    56    55    1
     7    54    55    1
     8    54    51    1
     9    84    83    2
    10    89    87   ar
    11    52    53    2
    12    52    51    1
    13    87    88   ar
    14    83    82    1
    15    82    81    1
    16    25    22    1
    17    25    26    1
    18    51    50    1
    19    28    26   ar
    20    16    15    2
    21    20    18   ar
    22    22    21    1
    23    22    23    1
    24    17    18    1
    25    17    14    1
    26    26    27   ar
    27    15    21   am
    28    15    14    1
    29    18    19   ar
    30    24    23    2
    31    23    29   am
    32    14    13    1
    33    13    11   am
    34    75    77   ar
    35    75    74   ar
    36    77    79   ar
    37    29    30    1
    38    72    71    2
    39    71    70    1
    40    11    12    2
    41    11    10    1
    42    73    74    1
    43    73    70    1
    44    74    76   ar
    45    70    69    1
    46    30    31    1
    47    79    80    1
    48    79    78   ar
    49    10     9    1
    50    62    61    2
    51    31    32    2
    52    76    78   ar
    53    69    61   am
    54    61    60    1
    55    41    40    1
    56     9     3   am
    57     4     3    2
    58    40    39    1
    59     3     2    1
    60    60    63    1
    61    60    59    1
    62    39    38    1
    63    63    64    1
    64     6     8    1
    65     6     5    1
    66     7     5    1
    67     2     5    1
    68     2     1    1
    69    38    37    1
    70    64    65   ar
    71    64    66   ar
    72    65    67   ar
    73    37    34    1
    74    66    68   ar
    75    67    68   ar
    76    34    33    1
    77    34    35    1
    78    49    47   am
    79    35    36    2
    80    46    47    1
    81    46    43    1
    82    47    48    2
    83    44    43    1
    84    44    45    2
    85    43    42    1
