@<TRIPOS>MOLECULE
tmp/4kvlA03.pdb
 214 203 0 0 0
SMALL
GASTEIGER

@<TRIPOS>ATOM
      1  N         30.5210   61.9930   77.8250 N.3    42  LEU42      -0.1245
      2  CA        31.1000   60.7950   78.4400 C.3    42  LEU42       0.1561
      3  C         30.7220   60.6600   79.9200 C.2    42  LEU42       0.2260
      4  O         30.4260   59.5580   80.3900 O.2    42  LEU42      -0.2867
      5  CB        32.6290   60.7900   78.2830 C.3    42  LEU42       0.0270
      6  CG        33.1770   60.7720   76.8520 C.3    42  LEU42       0.0019
      7  CD1       34.7050   60.8150   76.8770 C.3    42  LEU42       0.0001
      8  CD2       32.6890   59.5320   76.0650 C.3    42  LEU42       0.0001
      9  N         27.2250   59.3650   79.9840 N.3    45  LEU45      -0.1231
     10  CA        27.1450   57.9350   79.6600 C.3    45  LEU45       0.1693
     11  C         27.6570   57.0630   80.7870 C.2    45  LEU45       0.2592
     12  O         27.0280   56.0490   81.1220 O.2    45  LEU45      -0.2718
     13  CB        27.8980   57.6050   78.3570 C.3    45  LEU45       0.0284
     14  CG        27.2940   58.2680   77.0970 C.3    45  LEU45       0.0019
     15  CD1       28.2790   58.0310   75.9540 C.3    45  LEU45       0.0001
     16  CD2       25.8890   57.6850   76.7430 C.3    45  LEU45       0.0001
     17  N         28.7900   57.4440   81.3750 N.am   46  ASN46      -0.1974
     18  CA        29.3140   56.6750   82.5120 C.3    46  ASN46       0.1688
     19  C         28.3470   56.6580   83.7120 C.2    46  ASN46       0.2292
     20  O         28.1500   55.6260   84.3740 O.2    46  ASN46      -0.2864
     21  CB        30.6870   57.1840   82.9530 C.3    46  ASN46       0.1181
     22  CG        31.3100   56.2640   83.9880 C.2    46  ASN46       0.2629
     23  OD1       31.7840   55.1930   83.6440 O.2    46  ASN46      -0.2716
     24  ND2       31.2510   56.6540   85.2680 N.am   46  ASN46      -0.0877
     25  N         25.4550   54.4420   82.8000 N.3    49  ARG49      -0.1245
     26  CA        25.9180   53.0380   82.8870 C.3    49  ARG49       0.1563
     27  C         25.9350   52.4960   84.3460 C.2    49  ARG49       0.2260
     28  O         25.4880   51.3600   84.6130 O.2    49  ARG49      -0.2867
     29  CB        27.2970   52.8730   82.2360 C.3    49  ARG49       0.0307
     30  CG        27.8080   51.4270   82.3150 C.3    49  ARG49       0.0489
     31  CD        29.0160   51.2100   81.4520 C.3    49  ARG49       0.2205
     32  NE        30.1600   52.0360   81.8820 N.pl3  49  ARG49      -0.0865
     33  CZ        31.3240   52.0500   81.2430 C.cat  49  ARG49       0.5346
     34  NH1       31.4790   51.2770   80.1610 N.pl3  49  ARG49       0.1354
     35  NH2       32.3230   52.8200   81.6820 N.pl3  49  ARG49       0.1354
     36  N         34.5070   45.0060   66.2360 N.3   303  HIS303     -0.1241
     37  CA        33.1320   45.3810   66.5850 C.3   303  HIS303      0.1621
     38  C         33.0940   46.6700   67.4170 C.2   303  HIS303      0.2264
     39  O         32.3120   47.5880   67.1470 O.2   303  HIS303     -0.2867
     40  CB        32.4610   44.2670   67.4190 C.3   303  HIS303      0.0745
     41  CG        31.0330   44.5660   67.7500 C.ar  303  HIS303      0.0817
     42  ND1       29.9960   44.2570   66.8960 N.ar  303  HIS303     -0.2268
     43  CD2       30.4760   45.2210   68.8020 C.ar  303  HIS303      0.1154
     44  CE1       28.8550   44.6730   67.4240 C.ar  303  HIS303      0.1986
     45  NE2       29.1210   45.2740   68.5730 N.ar  303  HIS303     -0.2212
     46  N         33.0590   48.8480   63.9360 N.3   307  TRP307     -0.1227
     47  CA        31.6190   48.6960   63.6240 C.3   307  TRP307      0.1737
     48  C         30.7100   49.6870   64.4080 C.2   307  TRP307      0.2596
     49  O         29.9190   50.4450   63.8160 O.2   307  TRP307     -0.2718
     50  CB        31.1600   47.2520   63.8410 C.3   307  TRP307      0.0564
     51  CG        29.7100   46.9960   63.3880 C.ar  307  TRP307      0.0003
     52  CD1       29.2880   46.6010   62.1360 C.ar  307  TRP307      0.0946
     53  CD2       28.5290   47.0870   64.2010 C.ar  307  TRP307      0.0152
     54  NE1       27.9150   46.4520   62.1290 N.ar  307  TRP307     -0.2442
     55  CE2       27.4240   46.7510   63.3770 C.ar  307  TRP307      0.0810
     56  CE3       28.2960   47.4300   65.5490 C.ar  307  TRP307      0.0012
     57  CZ2       26.0950   46.7480   63.8530 C.ar  307  TRP307      0.0191
     58  CZ3       26.9710   47.4210   66.0330 C.ar  307  TRP307      0.0001
     59  CH2       25.8880   47.0930   65.1760 C.ar  307  TRP307      0.0015
     60  N         30.8610   49.7000   65.7250 N.am  308  THR308     -0.1953
     61  CA        30.0190   50.5320   66.5860 C.3   308  THR308      0.1897
     62  C         30.2290   52.0130   66.3250 C.2   308  THR308      0.2313
     63  O         29.2990   52.8110   66.4260 O.2   308  THR308     -0.2863
     64  CB        30.2870   50.2210   68.0780 C.3   308  THR308      0.1794
     65  OG1       30.1560   48.8130   68.3080 O.3   308  THR308     -0.2208
     66  CG2       29.3080   50.9820   68.9820 C.3   308  THR308      0.0378
     67  N         28.2430   52.8350   63.2910 N.3   311  LEU311     -0.1231
     68  CA        26.8260   52.7290   63.6360 C.3   311  LEU311      0.1693
     69  C         26.3270   54.0080   64.3300 C.2   311  LEU311      0.2591
     70  O         25.2110   54.5010   64.0710 O.2   311  LEU311     -0.2718
     71  CB        26.6050   51.5340   64.5980 C.3   311  LEU311      0.0284
     72  CG        25.1530   51.2810   65.0090 C.3   311  LEU311      0.0019
     73  CD1       24.4130   50.4870   63.8940 C.3   311  LEU311      0.0001
     74  CD2       25.0880   50.5500   66.3820 C.3   311  LEU311      0.0001
     75  N         27.1440   54.5030   65.2560 N.am  312  LEU312     -0.1980
     76  CA        26.8140   55.6800   66.0650 C.3   312  LEU312      0.1596
     77  C         27.8070   56.7700   65.6950 C.2   312  LEU312      0.2287
     78  O         28.8540   56.9600   66.3530 O.2   312  LEU312     -0.2864
     79  CB        26.9180   55.3250   67.5500 C.3   312  LEU312      0.0297
     80  CG        26.2110   54.0220   67.9530 C.3   312  LEU312      0.0022
     81  CD1       26.4580   53.7100   69.4440 C.3   312  LEU312      0.0001
     82  CD2       24.6900   54.1260   67.6540 C.3   312  LEU312      0.0001
     83  N         30.4180   59.2780   70.6640 N.3   317  MET317     -0.1245
     84  CA        30.4430   57.8310   70.6080 C.3   317  MET317      0.1570
     85  C         31.7800   57.2320   70.1550 C.2   317  MET317      0.2261
     86  O         32.1540   56.1600   70.6160 O.2   317  MET317     -0.2867
     87  CB        29.2530   57.2930   69.8090 C.3   317  MET317      0.0387
     88  CG        27.9190   57.5490   70.5520 C.3   317  MET317      0.0595
     89  SD        27.9280   57.2000   72.3510 S.3   317  MET317     -0.1393
     90  CE        28.5190   55.5190   72.4280 C.3   317  MET317      0.0692
     91  N         33.6680   57.3610   73.3300 N.3   320  ALA320     -0.1231
     92  CA        33.1630   56.3740   74.2930 C.3   320  ALA320      0.1694
     93  C         33.6000   54.9460   73.9680 C.2   320  ALA320      0.2591
     94  O         34.0740   54.2150   74.8470 O.2   320  ALA320     -0.2718
     95  CB        31.5880   56.4520   74.4310 C.3   320  ALA320      0.0304
     96  N         33.4440   54.5270   72.7090 N.am  321  MET321     -0.1979
     97  CA        33.8000   53.1540   72.3660 C.3   321  MET321      0.1605
     98  C         35.2980   52.9380   72.4790 C.2   321  MET321      0.2287
     99  O         35.7440   51.8690   72.9150 O.2   321  MET321     -0.2864
    100  CB        33.3180   52.7570   70.9620 C.3   321  MET321      0.0413
    101  CG        31.8000   52.9110   70.7800 C.3   321  MET321      0.0598
    102  SD        30.8430   52.1910   72.1320 S.3   321  MET321     -0.1393
    103  CE        31.5000   50.5220   72.1380 C.3   321  MET321      0.0692
    104  N         37.2410   54.5010   74.5230 N.3   323  ALA323     -0.1231
    105  CA        37.5120   54.4600   75.9640 C.3   323  ALA323      0.1694
    106  C         37.2060   53.0760   76.5550 C.2   323  ALA323      0.2592
    107  O         37.9500   52.6010   77.4090 O.2   323  ALA323     -0.2718
    108  CB        36.7150   55.5700   76.7180 C.3   323  ALA323      0.0304
    109  N         36.1390   52.4140   76.0940 N.am  324  ASN324     -0.1974
    110  CA        35.8610   51.0360   76.5740 C.3   324  ASN324      0.1688
    111  C         36.9940   50.0600   76.2390 C.2   324  ASN324      0.2292
    112  O         37.2960   49.1370   77.0210 O.2   324  ASN324     -0.2864
    113  CB        34.5360   50.4860   76.0060 C.3   324  ASN324      0.1181
    114  CG        33.3280   50.7290   76.9340 C.2   324  ASN324      0.2629
    115  OD1       33.4270   51.4360   77.9450 O.2   324  ASN324     -0.2716
    116  ND2       32.1740   50.1070   76.5940 N.am  324  ASN324     -0.0877
    117  N         40.3930   55.9970   78.5430 N.3   328  LEU328     -0.1245
    118  CA        40.4810   57.4230   78.3090 C.3   328  LEU328      0.1561
    119  C         41.9090   57.9530   78.2360 C.2   328  LEU328      0.2260
    120  O         42.1400   59.0440   77.7220 O.2   328  LEU328     -0.2867
    121  CB        39.6980   58.1900   79.3650 C.3   328  LEU328      0.0270
    122  CG        38.3490   58.8160   79.0400 C.3   328  LEU328      0.0019
    123  CD1       38.1580   59.9400   80.0510 C.3   328  LEU328      0.0001
    124  CD2       38.2480   59.3360   77.5980 C.3   328  LEU328      0.0001
    125  N         37.6040   53.4320   83.4560 N.3   344  ILE344     -0.1245
    126  CA        37.5660   54.6610   82.6670 C.3   344  ILE344      0.1561
    127  C         38.9370   54.9950   82.0820 C.2   344  ILE344      0.2260
    128  O         39.0600   55.2030   80.8700 O.2   344  ILE344     -0.2867
    129  CB        37.0050   55.8550   83.4830 C.3   344  ILE344      0.0252
    130  CG1       35.5410   55.6000   83.8630 C.3   344  ILE344      0.0019
    131  CG2       37.1000   57.1630   82.6950 C.3   344  ILE344      0.0019
    132  CD1       35.0370   56.5460   84.9800 C.3   344  ILE344      0.0001
    133  N         18.2410   42.1830   75.4810 N.3   367  PHE367     -0.1241
    134  CA        19.3600   42.3260   74.5280 C.3   367  PHE367      0.1605
    135  C         18.9490   41.6490   73.2010 C.2   367  PHE367      0.2264
    136  O         19.2110   42.1650   72.1200 O.2   367  PHE367     -0.2867
    137  CB        20.6010   41.6390   75.1000 C.3   367  PHE367      0.0534
    138  CG        21.8270   41.7630   74.2480 C.ar  367  PHE367     -0.0203
    139  CD1       22.5230   42.9710   74.1820 C.ar  367  PHE367     -0.0042
    140  CD2       22.2880   40.6680   73.5150 C.ar  367  PHE367     -0.0042
    141  CE1       23.6830   43.0960   73.4060 C.ar  367  PHE367     -0.0003
    142  CE2       23.4470   40.7700   72.7170 C.ar  367  PHE367     -0.0003
    143  CZ        24.1480   41.9780   72.6660 C.ar  367  PHE367     -0.0000
    144  N         18.1180   43.8530   69.5240 N.3   371  PHE371     -0.1241
    145  CA        18.9270   43.4700   68.3740 C.3   371  PHE371      0.1605
    146  C         18.1360   42.9140   67.1900 C.2   371  PHE371      0.2264
    147  O         18.7290   42.4440   66.2350 O.2   371  PHE371     -0.2867
    148  CB        20.0990   42.5580   68.7570 C.3   371  PHE371      0.0534
    149  CG        21.4110   43.2770   68.7820 C.ar  371  PHE371     -0.0203
    150  CD1       21.7810   44.0770   67.7090 C.ar  371  PHE371     -0.0042
    151  CD2       22.2670   43.1620   69.8590 C.ar  371  PHE371     -0.0042
    152  CE1       22.9700   44.7720   67.7200 C.ar  371  PHE371     -0.0003
    153  CE2       23.4790   43.8540   69.8660 C.ar  371  PHE371     -0.0003
    154  CZ        23.8270   44.6420   68.8060 C.ar  371  PHE371     -0.0000
    155  N         20.5710   53.6160   65.2320 N.3   536  ILE536     -0.1245
    156  CA        19.6580   52.8830   66.1230 C.3   536  ILE536      0.1561
    157  C         18.8750   53.8670   67.0040 C.2   536  ILE536      0.2260
    158  O         19.2110   55.0620   67.0620 O.2   536  ILE536     -0.2867
    159  CB        20.4100   51.8430   67.0240 C.3   536  ILE536      0.0252
    160  CG1       21.3780   52.5670   67.9890 C.3   536  ILE536      0.0019
    161  CG2       21.1440   50.8020   66.1450 C.3   536  ILE536      0.0019
    162  CD1       22.0430   51.6630   69.0550 C.3   536  ILE536      0.0001
    163  N         19.8510   51.7150   72.3620 N.3   541  PHE541     -0.1241
    164  CA        21.1870   52.1510   72.7780 C.3   541  PHE541      0.1605
    165  C         21.3890   51.9900   74.3100 C.2   541  PHE541      0.2264
    166  O         22.4710   51.6390   74.7620 O.2   541  PHE541     -0.2867
    167  CB        21.3920   53.6140   72.3430 C.3   541  PHE541      0.0534
    168  CG        22.6470   54.2430   72.8660 C.ar  541  PHE541     -0.0203
    169  CD1       23.9100   53.7660   72.4680 C.ar  541  PHE541     -0.0042
    170  CD2       22.5710   55.3530   73.7110 C.ar  541  PHE541     -0.0042
    171  CE1       25.0720   54.3650   72.9520 C.ar  541  PHE541     -0.0003
    172  CE2       23.7290   55.9690   74.1930 C.ar  541  PHE541     -0.0003
    173  CZ        24.9760   55.4820   73.8200 C.ar  541  PHE541     -0.0000
    174  N         22.3210   48.6490   75.2700 N.3   544  PHE544     -0.1227
    175  CA        23.6820   48.4350   74.7980 C.3   544  PHE544      0.1736
    176  C         24.7550   49.1080   75.6590 C.2   544  PHE544      0.2595
    177  O         25.8420   48.5480   75.8320 O.2   544  PHE544     -0.2718
    178  CB        23.8100   48.8970   73.3420 C.3   544  PHE544      0.0547
    179  CG        22.9030   48.1510   72.3770 C.ar  544  PHE544     -0.0202
    180  CD1       22.5770   46.8180   72.5840 C.ar  544  PHE544     -0.0042
    181  CD2       22.3810   48.8030   71.2700 C.ar  544  PHE544     -0.0042
    182  CE1       21.7570   46.1440   71.6860 C.ar  544  PHE544     -0.0003
    183  CE2       21.5710   48.1330   70.3540 C.ar  544  PHE544     -0.0003
    184  CZ        21.2530   46.8150   70.5650 C.ar  544  PHE544     -0.0000
    185  N         24.4680   50.2890   76.2060 N.am  545  ILE545     -0.1980
    186  CA        25.4110   50.9360   77.1700 C.3   545  ILE545      0.1595
    187  C         25.8550   49.9020   78.2270 C.2   545  ILE545      0.2287
    188  O         27.0410   49.7530   78.5460 O.2   545  ILE545     -0.2864
    189  CB        24.7410   52.1250   77.9120 C.3   545  ILE545      0.0276
    190  CG1       24.4820   53.2940   76.9330 C.3   545  ILE545      0.0022
    191  CG2       25.6290   52.5900   79.1140 C.3   545  ILE545      0.0022
    192  CD1       23.6270   54.4710   77.5370 C.3   545  ILE545      0.0001
    193  N         27.0110   45.8720   76.1160 N.3   548  ALA548     -0.1231
    194  CA        28.2740   45.8730   75.3700 C.3   548  ALA548      0.1694
    195  C         29.4720   46.0310   76.3270 C.2   548  ALA548      0.2592
    196  O         30.5250   45.4210   76.1320 O.2   548  ALA548     -0.2718
    197  CB        28.2850   46.9940   74.2600 C.3   548  ALA548      0.0304
    198  N         29.3160   46.8570   77.3600 N.am  549  SER549     -0.1952
    199  CA        30.3680   47.0210   78.3560 C.3   549  SER549      0.1924
    200  C         30.5380   45.6780   79.0750 C.2   549  SER549      0.2314
    201  O         31.6450   45.2120   79.2980 O.2   549  SER549     -0.2863
    202  CB        29.9830   48.1210   79.3840 C.3   549  SER549      0.2116
    203  OG        29.8420   49.3810   78.7430 O.3   549  SER549     -0.2180
    204  N         29.8780   42.5570   78.0480 N.3   551  ARG551     -0.1245
    205  CA        30.5340   41.5080   77.2230 C.3   551  ARG551      0.1563
    206  C         32.0560   41.5050   77.3770 C.2   551  ARG551      0.2260
    207  O         32.6970   40.4520   77.2910 O.2   551  ARG551     -0.2867
    208  CB        30.2130   41.6720   75.7210 C.3   551  ARG551      0.0307
    209  CG        28.7900   41.2810   75.3230 C.3   551  ARG551      0.0489
    210  CD        28.6280   41.1600   73.7730 C.3   551  ARG551      0.2205
    211  NE        29.1950   42.3230   73.0680 N.pl3 551  ARG551     -0.0865
    212  CZ        28.4970   43.3800   72.6650 C.cat 551  ARG551      0.5346
    213  NH1       29.1160   44.3900   72.0660 N.pl3 551  ARG551      0.1354
    214  NH2       27.1880   43.4480   72.8820 N.pl3 551  ARG551      0.1354
@<TRIPOS>BOND
     1    54    52   ar
     2    54    55   ar
     3    52    51   ar
     4    67    68    1
     5    55    57   ar
     6    55    53   ar
     7    51    50    1
     8    51    53   ar
     9    47    50    1
    10    47    46    1
    11    47    48    1
    12    68    69    1
    13    68    71    1
    14    49    48    2
    15    57    59   ar
    16    73    72    1
    17    70    69    2
    18    53    56   ar
    19    69    75   am
    20    48    60   am
    21    71    72    1
    22    72    74    1
    23    59    58   ar
    24   155   156    1
    25    75    76    1
    26    56    58   ar
    27    77    76    1
    28    77    78    2
    29    60    61    1
    30    76    79    1
    31   156   157    1
    32   156   159    1
    33   161   159    1
    34   147   146    2
    35    36    37    1
    36    62    63    2
    37    62    61    1
    38    37    38    1
    39    37    40    1
    40    61    64    1
    41    42    44   ar
    42    42    41   ar
    43   157   158    2
    44   159   160    1
    45    39    38    2
    46   146   145    1
    47    40    41    1
    48    44    45   ar
    49    79    80    1
    50    82    80    1
    51   150   152   ar
    52   150   149   ar
    53   152   154   ar
    54    41    43   ar
    55    80    81    1
    56   160   162    1
    57    64    65    1
    58    64    66    1
    59   145   148    1
    60   145   144    1
    61    45    43   ar
    62   148   149    1
    63   149   151   ar
    64   154   153   ar
    65    87    88    1
    66    87    84    1
    67   151   153   ar
    68    85    84    1
    69    85    86    2
    70   183   184   ar
    71   183   181   ar
    72    88    89    1
    73   184   182   ar
    74    84    83    1
    75   101   100    1
    76   101   102    1
    77   100    97    1
    78   181   179   ar
    79   182   180   ar
    80   213   212    1
    81   136   135    2
    82   102   103    1
    83   167   164    1
    84   167   168    1
    85    89    90    1
    86   163   164    1
    87    97    98    1
    88    97    96    1
    89   179   180   ar
    90   179   178    1
    91   169   168   ar
    92   169   171   ar
    93    98    99    2
    94   212   214    1
    95   212   211    2
    96   143   142   ar
    97   143   141   ar
    98    96    93   am
    99   142   140   ar
   100   164   165    1
   101   168   170   ar
   102   171   173   ar
   103   211   210    1
   104   135   134    1
   105    91    92    1
   106   178   175    1
   107   141   139   ar
   108   140   138   ar
   109   170   172   ar
   110   210   209    1
   111   173   172   ar
   112    93    92    1
   113    93    94    2
   114   139   138   ar
   115   138   137    1
   116   197   194    1
   117    92    95    1
   118   165   166    2
   119   104   105    1
   120   134   137    1
   121   134   133    1
   122   175   174    1
   123   175   176    1
   124   209   208    1
   125   194   193    1
   126   194   195    1
   127   176   177    2
   128   176   185   am
   129   208   205    1
   130    15    14    1
   131   105   106    1
   132   105   108    1
   133   113   110    1
   134   113   114    1
   135     8     6    1
   136   109   106   am
   137   109   110    1
   138   196   195    2
   139   185   186    1
   140   111   110    1
   141   111   112    2
   142   195   198   am
   143   106   107    2
   144   116   114   am
   145    16    14    1
   146     6     7    1
   147     6     5    1
   148   190   192    1
   149   190   189    1
   150   114   115    2
   151    14    13    1
   152   186   189    1
   153   186   187    1
   154   205   206    1
   155   205   204    1
   156   207   206    2
   157   198   199    1
   158   124   122    1
   159   120   119    2
   160     1     2    1
   161   189   191    1
   162   187   188    2
   163   119   118    1
   164     5     2    1
   165   118   117    1
   166   118   121    1
   167   199   200    1
   168   199   202    1
   169    13    10    1
   170     2     3    1
   171   203   202    1
   172   122   121    1
   173   122   123    1
   174   200   201    2
   175    10     9    1
   176    10    11    1
   177     3     4    2
   178    34    33    1
   179    11    12    2
   180    11    17   am
   181   128   127    2
   182    33    35    1
   183    33    32    2
   184    17    18    1
   185    31    32    1
   186    31    30    1
   187   127   126    1
   188    29    30    1
   189    29    26    1
   190    18    21    1
   191    18    19    1
   192   126   125    1
   193   126   129    1
   194   131   129    1
   195    25    26    1
   196    26    27    1
   197    21    22    1
   198   129   130    1
   199    23    22    2
   200    19    20    2
   201   130   132    1
   202    22    24   am
   203    27    28    2
