@<TRIPOS>MOLECULE
tmp/4kvlA05.pdb
 91 86 0 0 0
SMALL
GASTEIGER

@<TRIPOS>ATOM
      1  N         23.8590   58.4960   96.7290 N.3    16  PHE16      -0.1227
      2  CA        24.7880   58.5440   95.5980 C.3    16  PHE16       0.1736
      3  C         24.0910   58.2740   94.2550 C.2    16  PHE16       0.2595
      4  O         24.3880   58.9350   93.2570 O.2    16  PHE16      -0.2718
      5  CB        25.9950   57.6310   95.8300 C.3    16  PHE16       0.0547
      6  CG        26.7950   58.0070   97.0560 C.ar   16  PHE16      -0.0202
      7  CD1       27.6240   59.1300   97.0420 C.ar   16  PHE16      -0.0042
      8  CD2       26.6850   57.2600   98.2330 C.ar   16  PHE16      -0.0042
      9  CE1       28.3590   59.4950   98.1780 C.ar   16  PHE16      -0.0003
     10  CE2       27.4150   57.6110   99.3810 C.ar   16  PHE16      -0.0003
     11  CZ        28.2540   58.7310   99.3500 C.ar   16  PHE16      -0.0000
     12  N         23.1410   57.3430   94.2470 N.am   17  ASP17      -0.1974
     13  CA        22.3540   57.0860   93.0370 C.3    17  ASP17       0.1709
     14  C         21.3850   58.2140   92.7080 C.2    17  ASP17       0.2293
     15  O         21.1870   58.5130   91.5290 O.2    17  ASP17      -0.2864
     16  CB        21.6270   55.7480   93.0940 C.3    17  ASP17       0.1436
     17  CG        22.5930   54.5630   93.1790 C.2    17  ASP17       0.3671
     18  OD1       23.7380   54.6510   92.6600 O.co2  17  ASP17      -0.2456
     19  OD2       22.1980   53.5520   93.7850 O.co2  17  ASP17      -0.2456
     20  N         22.0260   61.3180   93.1240 N.3    19  ILE19      -0.1231
     21  CA        22.8980   62.3060   92.4810 C.3    19  ILE19       0.1692
     22  C         23.1070   61.9630   90.9940 C.2    19  ILE19       0.2592
     23  O         22.9710   62.8160   90.1270 O.2    19  ILE19      -0.2718
     24  CB        24.2930   62.3980   93.1790 C.3    19  ILE19       0.0266
     25  CG1       24.1920   62.9400   94.6160 C.3    19  ILE19       0.0019
     26  CG2       25.2640   63.2840   92.3800 C.3    19  ILE19       0.0020
     27  CD1       22.9340   63.7660   94.9260 C.3    19  ILE19       0.0001
     28  N         23.4390   60.7090   90.7250 N.am   20  GLY20      -0.1957
     29  CA        23.6420   60.2510   89.3500 C.3    20  GLY20       0.1869
     30  C         22.3690   60.4040   88.5290 C.2    20  GLY20       0.2309
     31  O         22.4040   60.8970   87.3910 O.2    20  GLY20      -0.2863
     32  N         21.5490   64.0180   87.6810 N.3    23  PHE23      -0.1241
     33  CA        22.4760   64.4800   86.6410 C.3    23  PHE23       0.1605
     34  C         21.9970   64.0720   85.2500 C.2    23  PHE23       0.2264
     35  O         21.8600   64.9170   84.3660 O.2    23  PHE23      -0.2867
     36  CB        23.9090   63.9900   86.9020 C.3    23  PHE23       0.0534
     37  CG        24.9220   64.4430   85.8630 C.ar   23  PHE23      -0.0203
     38  CD1       25.4840   65.7230   85.9250 C.ar   23  PHE23      -0.0042
     39  CD2       25.3510   63.5670   84.8510 C.ar   23  PHE23      -0.0042
     40  CE1       26.4320   66.1410   84.9890 C.ar   23  PHE23      -0.0003
     41  CE2       26.3020   63.9740   83.9070 C.ar   23  PHE23      -0.0003
     42  CZ        26.8370   65.2640   83.9700 C.ar   23  PHE23      -0.0000
     43  N         19.6940   66.3160   81.7500 N.3    27  PHE27      -0.1241
     44  CA        19.8890   66.2820   80.2940 C.3    27  PHE27       0.1605
     45  C         18.6890   65.7100   79.5710 C.2    27  PHE27       0.2264
     46  O         18.2350   66.2740   78.5720 O.2    27  PHE27      -0.2867
     47  CB        21.1630   65.5000   79.8920 C.3    27  PHE27       0.0534
     48  CG        22.4220   66.1580   80.3680 C.ar   27  PHE27      -0.0203
     49  CD1       23.0700   67.0960   79.5780 C.ar   27  PHE27      -0.0042
     50  CD2       22.9240   65.8910   81.6370 C.ar   27  PHE27      -0.0042
     51  CE1       24.2340   67.7510   80.0360 C.ar   27  PHE27      -0.0003
     52  CE2       24.0830   66.5250   82.0990 C.ar   27  PHE27      -0.0003
     53  CZ        24.7400   67.4610   81.2880 C.ar   27  PHE27      -0.0000
     54  N         31.4990   66.0690   78.7020 N.3    40  ILE40      -0.1245
     55  CA        30.2260   66.0300   79.4400 C.3    40  ILE40       0.1561
     56  C         29.3730   64.8510   78.9620 C.2    40  ILE40       0.2260
     57  O         28.6860   64.1870   79.7610 O.2    40  ILE40      -0.2867
     58  CB        29.4200   67.3520   79.2890 C.3    40  ILE40       0.0252
     59  CG1       30.2890   68.5610   79.6380 C.3    40  ILE40       0.0019
     60  CG2       28.1630   67.3380   80.1830 C.3    40  ILE40       0.0019
     61  CD1       30.7800   68.5910   81.0510 C.3    40  ILE40       0.0001
     62  N         30.7140   61.7780   80.6500 N.3    43  LEU43      -0.1245
     63  CA        30.2960   61.7420   82.0540 C.3    43  LEU43       0.1561
     64  C         28.8520   61.2890   82.1530 C.2    43  LEU43       0.2260
     65  O         28.5160   60.4550   82.9930 O.2    43  LEU43      -0.2867
     66  CB        30.4700   63.1130   82.7260 C.3    43  LEU43       0.0270
     67  CG        30.1170   63.2190   84.2140 C.3    43  LEU43       0.0019
     68  CD1       30.8870   62.1930   85.0640 C.3    43  LEU43       0.0001
     69  CD2       30.4060   64.6450   84.7330 C.3    43  LEU43       0.0001
     70  N         28.7900   57.4440   81.3750 N.3    46  ASN46      -0.1225
     71  CA        29.3140   56.6750   82.5120 C.3    46  ASN46       0.1785
     72  C         28.3470   56.6580   83.7120 C.2    46  ASN46       0.2597
     73  O         28.1500   55.6260   84.3740 O.2    46  ASN46      -0.2718
     74  CB        30.6870   57.1840   82.9530 C.3    46  ASN46       0.1169
     75  CG        31.3100   56.2640   83.9880 C.2    46  ASN46       0.2627
     76  OD1       31.7840   55.1930   83.6440 O.2    46  ASN46      -0.2716
     77  ND2       31.2510   56.6540   85.2680 N.am   46  ASN46      -0.0877
     78  N         27.7270   57.7980   83.9730 N.am   47  THR47      -0.1953
     79  CA        26.7410   57.9110   85.0600 C.3    47  THR47       0.1897
     80  C         25.5190   57.0290   84.7880 C.2    47  THR47       0.2313
     81  O         25.0580   56.2840   85.6660 O.2    47  THR47      -0.2863
     82  CB        26.3610   59.3960   85.2790 C.3    47  THR47       0.1794
     83  OG1       27.5640   60.1360   85.5100 O.3    47  THR47      -0.2208
     84  CG2       25.4400   59.5600   86.5000 C.3    47  THR47       0.0378
     85  N         26.4390   53.3020   85.2870 N.3    50  THR50      -0.1218
     86  CA        26.5020   52.8830   86.6820 C.3    50  THR50       0.1862
     87  C         25.1040   52.5950   87.2580 C.2    50  THR50       0.2287
     88  O         24.9210   51.6210   88.0050 O.2    50  THR50      -0.2866
     89  CB        27.3150   53.8950   87.5250 C.3    50  THR50       0.1770
     90  OG1       28.6390   53.9800   86.9830 O.3    50  THR50      -0.2211
     91  CG2       27.3940   53.4700   88.9800 C.3    50  THR50       0.0375
@<TRIPOS>BOND
     1    46    45    2
     2    54    55    1
     3    56    55    1
     4    56    57    2
     5    58    55    1
     6    58    59    1
     7    58    60    1
     8    45    44    1
     9    49    51   ar
    10    49    48   ar
    11    59    61    1
    12    47    44    1
    13    47    48    1
    14    51    53   ar
    15    44    43    1
    16    48    50   ar
    17    62    63    1
    18    53    52   ar
    19    70    71    1
    20    50    52   ar
    21    63    64    1
    22    63    66    1
    23    64    65    2
    24    71    74    1
    25    71    72    1
    26    66    67    1
    27    74    75    1
    28    76    75    2
    29    72    78   am
    30    72    73    2
    31    41    42   ar
    32    41    39   ar
    33    42    40   ar
    34    78    79    1
    35    75    77   am
    36    67    69    1
    37    67    68    1
    38    35    34    2
    39    80    79    1
    40    80    81    2
    41    39    37   ar
    42    40    38   ar
    43    79    82    1
    44    34    33    1
    45    82    83    1
    46    82    84    1
    47    85    86    1
    48    37    38   ar
    49    37    36    1
    50    33    36    1
    51    33    32    1
    52    86    87    1
    53    86    89    1
    54    90    89    1
    55    87    88    2
    56    31    30    2
    57    89    91    1
    58    30    29    1
    59    29    28    1
    60    23    22    2
    61    28    22   am
    62    22    21    1
    63    15    14    2
    64    26    24    1
    65    21    20    1
    66    21    24    1
    67    18    17   ar
    68    14    13    1
    69    13    16    1
    70    13    12    1
    71    16    17    1
    72    24    25    1
    73    17    19   ar
    74     4     3    2
    75    12     3   am
    76     3     2    1
    77    25    27    1
    78     2     5    1
    79     2     1    1
    80     5     6    1
    81     7     6   ar
    82     7     9   ar
    83     6     8   ar
    84     9    11   ar
    85     8    10   ar
    86    11    10   ar
