@<TRIPOS>MOLECULE
tmp/4kvlA10.pdb
 132 129 0 0 0
SMALL
GASTEIGER

@<TRIPOS>ATOM
      1  N         19.2580   38.2200   87.6970 N.3    59  ALA59      -0.1231
      2  CA        19.5660   36.7980   87.5510 C.3    59  ALA59       0.1694
      3  C         18.3240   35.9980   87.1810 C.2    59  ALA59       0.2592
      4  O         17.2210   36.2860   87.6600 O.2    59  ALA59      -0.2718
      5  CB        20.1750   36.2400   88.8510 C.3    59  ALA59       0.0304
      6  N         18.5110   34.9920   86.3290 N.am   60  VAL60      -0.1966
      7  CA        17.4640   34.0080   86.0400 C.3    60  VAL60       0.1727
      8  C         18.0520   32.6490   86.3920 C.2    60  VAL60       0.2617
      9  O         19.0880   32.2520   85.8510 O.2    60  VAL60      -0.2715
     10  CB        16.9630   34.0830   84.5750 C.3    60  VAL60       0.0290
     11  CG1       15.9900   32.9050   84.2330 C.3    60  VAL60       0.0023
     12  CG2       16.3020   35.4330   84.3220 C.3    60  VAL60       0.0023
     13  N         17.4140   31.9670   87.3400 N.am   61  GLY61      -0.1940
     14  CA        17.9600   30.7290   87.9110 C.3    61  GLY61       0.2014
     15  C         18.8530   31.0130   89.1100 C.2    61  GLY61       0.2638
     16  O         19.3110   32.1410   89.2940 O.2    61  GLY61      -0.2714
     17  N         19.1150   29.9900   89.9210 N.am   62  ARG62      -0.1977
     18  CA        19.9050   30.1420   91.1530 C.3    62  ARG62       0.1597
     19  C         21.3780   30.5170   90.9200 C.2    62  ARG62       0.2287
     20  O         22.0480   29.9450   90.0550 O.2    62  ARG62      -0.2864
     21  CB        19.8010   28.8770   92.0060 C.3    62  ARG62       0.0334
     22  CG        18.3970   28.6240   92.5530 C.3    62  ARG62       0.0492
     23  CD        18.3880   27.4510   93.5180 C.3    62  ARG62       0.2205
     24  NE        18.2740   26.1820   92.8030 N.pl3  62  ARG62      -0.0865
     25  CZ        18.8580   25.0490   93.1830 C.cat  62  ARG62       0.5346
     26  NH1       19.6180   25.0200   94.2720 N.pl3  62  ARG62       0.1354
     27  NH2       18.6900   23.9460   92.4640 N.pl3  62  ARG62       0.1354
     28  N         23.9730   30.8590   93.4520 N.3    64  SER64      -0.1202
     29  CA        24.9810   30.2840   94.3370 C.3    64  SER64       0.2020
     30  C         25.4000   28.8850   93.8980 C.2    64  SER64       0.2619
     31  O         24.7130   28.2380   93.0950 O.2    64  SER64      -0.2717
     32  CB        24.4710   30.2490   95.7860 C.3    64  SER64       0.2103
     33  OG        24.5260   31.5370   96.3860 O.3    64  SER64      -0.2182
     34  N         26.5390   28.4380   94.4300 N.am   65  HIS65      -0.1961
     35  CA        26.9700   27.0380   94.3400 C.3    65  HIS65       0.1787
     36  C         27.3880   26.6250   92.9190 C.2    65  HIS65       0.2621
     37  O         27.0610   25.5280   92.4630 O.2    65  HIS65      -0.2715
     38  CB        25.8820   26.1030   94.9210 C.3    65  HIS65       0.0785
     39  CG        26.3470   24.7020   95.1870 C.ar   65  HIS65       0.0821
     40  ND1       26.1120   23.6610   94.3120 N.ar   65  HIS65      -0.2267
     41  CD2       27.0230   24.1680   96.2320 C.ar   65  HIS65       0.1154
     42  CE1       26.6250   22.5480   94.8050 C.ar   65  HIS65       0.1986
     43  NE2       27.1840   22.8280   95.9700 N.ar   65  HIS65      -0.2212
     44  N         28.1190   27.5020   92.2280 N.am   66  GLY66      -0.1940
     45  CA        28.7220   27.1480   90.9360 C.3    66  GLY66       0.2014
     46  C         29.7620   26.0440   91.0970 C.2    66  GLY66       0.2638
     47  O         30.3390   25.8780   92.1840 O.2    66  GLY66      -0.2714
     48  N         29.9990   25.2860   90.0230 N.am   67  ALA67      -0.1977
     49  CA        30.9440   24.1570   90.0390 C.3    67  ALA67       0.1597
     50  C         32.3880   24.6020   90.3160 C.2    67  ALA67       0.2287
     51  O         32.8400   25.6290   89.8030 O.2    67  ALA67      -0.2864
     52  CB        30.8600   23.3690   88.7350 C.3    67  ALA67       0.0319
     53  N         31.4280   30.4440   88.8360 N.3    88  ASN88      -0.1240
     54  CA        30.2980   29.8700   88.1270 C.3    88  ASN88       0.1653
     55  C         30.7820   29.2640   86.8190 C.2    88  ASN88       0.2266
     56  O         30.8210   29.9380   85.7790 O.2    88  ASN88      -0.2867
     57  CB        29.2220   30.9370   87.8920 C.3    88  ASN88       0.1155
     58  CG        27.8210   30.3580   87.8680 C.2    88  ASN88       0.2627
     59  OD1       27.5610   29.3420   87.2140 O.2    88  ASN88      -0.2716
     60  ND2       26.9100   30.9950   88.6010 N.am   88  ASN88      -0.0877
     61  N         29.4980   27.3970   84.7880 N.3    90  GLU90      -0.1231
     62  CA        28.5090   27.3020   83.7200 C.3    90  GLU90       0.1699
     63  C         28.1530   28.6470   83.0850 C.2    90  GLU90       0.2592
     64  O         27.5690   28.6650   81.9980 O.2    90  GLU90      -0.2718
     65  CB        27.2270   26.6410   84.2330 C.3    90  GLU90       0.0402
     66  CG        27.3890   25.2160   84.7690 C.3    90  GLU90       0.1161
     67  CD        26.6380   24.1800   83.9450 C.2    90  GLU90       0.3649
     68  OE1       25.7100   24.5580   83.1850 O.co2  90  GLU90      -0.2457
     69  OE2       26.9690   22.9800   84.0650 O.co2  90  GLU90      -0.2457
     70  N         28.4630   29.7560   83.7640 N.am   91  ALA91      -0.1966
     71  CA        28.1140   31.1020   83.2560 C.3    91  ALA91       0.1728
     72  C         28.6580   31.2980   81.8470 C.2    91  ALA91       0.2616
     73  O         29.8240   30.9650   81.5830 O.2    91  ALA91      -0.2715
     74  CB        28.6480   32.2000   84.1840 C.3    91  ALA91       0.0334
     75  N         27.7990   31.8130   80.9570 N.am   92  GLY92      -0.1955
     76  CA        28.1510   32.0930   79.5660 C.3    92  GLY92       0.1869
     77  C         28.2540   30.8830   78.6500 C.2    92  GLY92       0.2309
     78  O         28.5480   31.0410   77.4620 O.2    92  GLY92      -0.2863
     79  N         22.2620   27.7020   78.8540 N.3    96  THR96      -0.1203
     80  CA        22.0730   28.3680   80.1440 C.3    96  THR96       0.1994
     81  C         20.9930   29.4340   79.9870 C.2    96  THR96       0.2617
     82  O         20.7430   29.9020   78.8750 O.2    96  THR96      -0.2717
     83  CB        23.3870   29.0080   80.6860 C.3    96  THR96       0.1784
     84  OG1       24.0020   29.8250   79.6700 O.3    96  THR96      -0.2211
     85  CG2       24.3670   27.9170   81.1450 C.3    96  THR96       0.0376
     86  N         20.3480   29.8150   81.0850 N.am   97  PHE97      -0.1975
     87  CA        19.2880   30.8290   81.0460 C.3    97  PHE97       0.1639
     88  C         19.7480   32.1840   80.5070 C.2    97  PHE97       0.2290
     89  O         20.8300   32.6830   80.8740 O.2    97  PHE97      -0.2864
     90  CB        18.7280   31.0720   82.4490 C.3    97  PHE97       0.0560
     91  CG        17.7850   29.9920   82.9320 C.ar   97  PHE97      -0.0200
     92  CD1       16.5890   29.7360   82.2620 C.ar   97  PHE97      -0.0042
     93  CD2       18.0900   29.2500   84.0720 C.ar   97  PHE97      -0.0042
     94  CE1       15.7090   28.7370   82.7140 C.ar   97  PHE97      -0.0003
     95  CE2       17.2170   28.2570   84.5390 C.ar   97  PHE97      -0.0003
     96  CZ        16.0200   27.9980   83.8580 C.ar   97  PHE97      -0.0000
     97  N         19.4940   35.9150   81.1680 N.3    99  GLY99      -0.1225
     98  CA        19.1320   36.8310   82.2530 C.3    99  GLY99       0.1811
     99  C         18.0740   37.8330   81.8110 C.2    99  GLY99       0.2280
    100  O         17.5250   37.7250   80.7110 O.2    99  GLY99      -0.2866
    101  N         26.1320   39.8910   89.5130 N.3   359  VAL359     -0.1231
    102  CA        25.1420   39.0420   88.8160 C.3   359  VAL359      0.1678
    103  C         25.8550   38.1850   87.7630 C.2   359  VAL359      0.2434
    104  O         26.5390   38.7270   86.9080 O.2   359  VAL359     -0.2733
    105  CB        24.0090   39.8840   88.1330 C.3   359  VAL359      0.0265
    106  CG1       22.9850   38.9820   87.4130 C.3   359  VAL359      0.0020
    107  CG2       23.2970   40.7880   89.1450 C.3   359  VAL359      0.0020
    108  N         25.7010   36.8420   87.8260 N.am  360  PRO360     -0.2718
    109  CA        26.4310   35.9740   86.8750 C.3   360  PRO360      0.1535
    110  C         26.2360   36.4220   85.4300 C.2   360  PRO360      0.2599
    111  O         25.1290   36.7990   85.0490 O.2   360  PRO360     -0.2715
    112  CB        25.7760   34.5990   87.0610 C.3   360  PRO360      0.0310
    113  CG        25.1260   34.6450   88.4050 C.3   360  PRO360      0.0237
    114  CD        24.7890   36.0790   88.7020 C.3   360  PRO360      0.0939
    115  N         27.3010   36.3760   84.6370 N.am  361  TYR361     -0.1960
    116  CA        27.2250   36.8030   83.2390 C.3   361  TYR361      0.1771
    117  C         26.2010   35.9970   82.4430 C.2   361  TYR361      0.2620
    118  O         26.1760   34.7760   82.5220 O.2   361  TYR361     -0.2715
    119  CB        28.5750   36.6550   82.5400 C.3   361  TYR361      0.0574
    120  CG        28.5260   37.0350   81.0560 C.ar  361  TYR361     -0.0198
    121  CD1       28.4850   38.3710   80.6720 C.ar  361  TYR361     -0.0009
    122  CD2       28.5060   36.0530   80.0530 C.ar  361  TYR361     -0.0009
    123  CE1       28.4380   38.7380   79.3130 C.ar  361  TYR361      0.0417
    124  CE2       28.4610   36.4040   78.6950 C.ar  361  TYR361      0.0417
    125  CZ        28.4330   37.7460   78.3410 C.ar  361  TYR361      0.1957
    126  OH        28.3840   38.1070   77.0270 O.3   361  TYR361     -0.2866
    127  N         25.3830   36.7080   81.6750 N.am  362  SER362     -0.1950
    128  CA        24.5780   36.1350   80.6060 C.3   362  SER362      0.1924
    129  C         24.2370   37.2680   79.6450 C.2   362  SER362      0.2314
    130  O         24.3560   38.4520   79.9850 O.2   362  SER362     -0.2863
    131  CB        23.2680   35.5660   81.1580 C.3   362  SER362      0.2116
    132  OG        22.4370   36.6450   81.5660 O.3   362  SER362     -0.2180
@<TRIPOS>BOND
     1   126   125    1
     2    78    77    2
     3   125   124   ar
     4   125   123   ar
     5    77    76    1
     6   124   122   ar
     7    79    80    1
     8    82    81    2
     9   123   121   ar
    10    76    75    1
    11   129   130    2
    12   129   128    1
    13    84    83    1
    14    81    80    1
    15    81    86   am
    16   122   120   ar
    17    80    83    1
    18    88    89    2
    19    88    87    1
    20   128   131    1
    21   128   127    1
    22   121   120   ar
    23    83    85    1
    24   100    99    2
    25    75    72   am
    26    87    86    1
    27    87    90    1
    28   120   119    1
    29   131   132    1
    30    97    98    1
    31    73    72    2
    32   127   117   am
    33    99    98    1
    34    72    71    1
    35    64    63    2
    36    92    94   ar
    37    92    91   ar
    38   117   118    2
    39   117   116    1
    40    90    91    1
    41   119   116    1
    42    94    96   ar
    43    91    93   ar
    44    63    62    1
    45    63    70   am
    46    68    67   ar
    47   116   115    1
    48    71    70    1
    49    71    74    1
    50    62    65    1
    51    62    61    1
    52    96    95   ar
    53    67    69   ar
    54    67    66    1
    55    93    95   ar
    56    11    10    1
    57    65    66    1
    58    12    10    1
    59    10     7    1
    60   115   110   am
    61   111   110    2
    62   110   109    1
    63    56    55    2
    64     9     8    2
    65     7     6    1
    66     7     8    1
    67     6     3   am
    68     8    13   am
    69    55    54    1
    70   109   112    1
    71   109   108    1
    72   104   103    2
    73   112   113    1
    74     3     2    1
    75     3     4    2
    76    59    58    2
    77    13    14    1
    78   106   105    1
    79     2     1    1
    80     2     5    1
    81   103   108   am
    82   103   102    1
    83   108   114    1
    84    58    57    1
    85    58    60   am
    86    57    54    1
    87    14    15    1
    88    54    53    1
    89   105   102    1
    90   105   107    1
    91   113   114    1
    92    52    49    1
    93   102   101    1
    94    15    16    2
    95    15    17   am
    96    51    50    2
    97    17    18    1
    98    48    49    1
    99    48    46   am
   100    49    50    1
   101    20    19    2
   102    19    18    1
   103    45    46    1
   104    45    44    1
   105    46    47    2
   106    18    21    1
   107    21    22    1
   108    44    36   am
   109    37    36    2
   110    27    25    1
   111    22    23    1
   112    24    25    2
   113    24    23    1
   114    36    35    1
   115    31    30    2
   116    25    26    1
   117    28    29    1
   118    30    29    1
   119    30    34   am
   120    40    42   ar
   121    40    39   ar
   122    29    32    1
   123    35    34    1
   124    35    38    1
   125    42    43   ar
   126    38    39    1
   127    39    41   ar
   128    32    33    1
   129    43    41   ar
