@<TRIPOS>MOLECULE
tmp/4kvmG01.pdb
 226 223 0 0 0
SMALL
GASTEIGER

@<TRIPOS>ATOM
      1  N        -36.7890  -14.8720 -136.9510 N.3    21  ASN21      -0.1225
      2  CA       -35.9770  -14.1020 -137.8950 C.3    21  ASN21       0.1785
      3  C        -36.4820  -13.9270 -139.3230 C.2    21  ASN21       0.2597
      4  O        -35.9570  -13.1030 -140.0580 O.2    21  ASN21      -0.2718
      5  CB       -34.5620  -14.6730 -137.9430 C.3    21  ASN21       0.1169
      6  CG       -33.9020  -14.6710 -136.5900 C.2    21  ASN21       0.2627
      7  OD1      -34.0860  -13.7470 -135.8020 O.2    21  ASN21      -0.2716
      8  ND2      -33.1410  -15.7110 -136.3000 N.am   21  ASN21      -0.0877
      9  N        -37.4760  -14.7000 -139.7350 N.am   22  LEU22      -0.1980
     10  CA       -37.8310  -14.7240 -141.1540 C.3    22  LEU22       0.1596
     11  C        -39.3350  -14.7040 -141.3210 C.2    22  LEU22       0.2287
     12  O        -40.0520  -15.2890 -140.5110 O.2    22  LEU22      -0.2864
     13  CB       -37.2120  -15.9520 -141.8490 C.3    22  LEU22       0.0297
     14  CG       -35.7430  -15.7860 -142.2400 C.3    22  LEU22       0.0022
     15  CD1      -35.1170  -17.0950 -142.6810 C.3    22  LEU22       0.0001
     16  CD2      -35.5660  -14.7100 -143.3370 C.3    22  LEU22       0.0001
     17  N        -30.3930  -24.1500 -150.6540 N.3    73  ILE73      -0.1231
     18  CA       -30.6000  -23.6670 -149.3030 C.3    73  ILE73       0.1692
     19  C        -32.0750  -23.3580 -149.2390 C.2    73  ILE73       0.2593
     20  O        -32.5910  -22.6850 -150.1220 O.2    73  ILE73      -0.2718
     21  CB       -29.8540  -22.3560 -149.0530 C.3    73  ILE73       0.0266
     22  CG1      -28.3440  -22.5670 -149.1370 C.3    73  ILE73       0.0019
     23  CG2      -30.2590  -21.7790 -147.6950 C.3    73  ILE73       0.0020
     24  CD1      -27.8680  -23.7100 -148.2340 C.3    73  ILE73       0.0001
     25  N        -32.7820  -23.8450 -148.2330 N.am   74  THR74      -0.1939
     26  CA       -34.1840  -23.4670 -148.1550 C.3    74  THR74       0.2028
     27  C        -34.3920  -22.4370 -147.0580 C.2    74  THR74       0.2643
     28  O        -35.4290  -21.7690 -147.0220 O.2    74  THR74      -0.2714
     29  CB       -35.1500  -24.6830 -148.0180 C.3    74  THR74       0.1808
     30  OG1      -35.7990  -24.6560 -146.7420 O.3    74  THR74      -0.2208
     31  CG2      -34.4130  -25.9740 -148.1990 C.3    74  THR74       0.0379
     32  N        -33.3900  -22.2930 -146.1900 N.am   75  SER75      -0.1935
     33  CA       -33.4410  -21.3030 -145.1190 C.3    75  SER75       0.2055
     34  C        -32.1320  -21.1580 -144.3610 C.2    75  SER75       0.2643
     35  O        -31.4630  -22.1390 -144.0850 O.2    75  SER75      -0.2714
     36  CB       -34.5390  -21.6540 -144.1220 C.3    75  SER75       0.2130
     37  OG       -34.7030  -20.6060 -143.1800 O.3    75  SER75      -0.2179
     38  N        -31.7820  -19.9240 -144.0030 N.am   76  VAL76      -0.1963
     39  CA       -30.6400  -19.6880 -143.1180 C.3    76  VAL76       0.1727
     40  C        -30.8870  -18.4290 -142.3360 C.2    76  VAL76       0.2617
     41  O        -31.3350  -17.4590 -142.9010 O.2    76  VAL76      -0.2715
     42  CB       -29.3060  -19.5650 -143.8930 C.3    76  VAL76       0.0290
     43  CG1      -29.4960  -18.7150 -145.0830 C.3    76  VAL76       0.0023
     44  CG2      -28.2080  -18.9970 -143.0120 C.3    76  VAL76       0.0023
     45  N        -30.6430  -18.4630 -141.0310 N.am   77  SER77      -0.1936
     46  CA       -30.7720  -17.2710 -140.1990 C.3    77  SER77       0.2055
     47  C        -30.0880  -17.4140 -138.8450 C.2    77  SER77       0.2642
     48  O        -29.7760  -18.5120 -138.4040 O.2    77  SER77      -0.2714
     49  CB       -32.2420  -16.8710 -140.0110 C.3    77  SER77       0.2130
     50  OG       -32.9740  -17.9030 -139.3680 O.3    77  SER77      -0.2179
     51  N        -29.8590  -16.2760 -138.2010 N.am   78  VAL78      -0.1977
     52  CA       -29.2170  -16.2170 -136.9010 C.3    78  VAL78       0.1596
     53  C        -30.0150  -15.2340 -136.0470 C.2    78  VAL78       0.2287
     54  O        -30.4180  -14.1770 -136.5410 O.2    78  VAL78      -0.2864
     55  CB       -27.7850  -15.6650 -137.0260 C.3    78  VAL78       0.0276
     56  CG1      -27.0420  -15.7730 -135.7000 C.3    78  VAL78       0.0022
     57  CG2      -27.0190  -16.3590 -138.1460 C.3    78  VAL78       0.0022
     58  N        -25.3880  -12.1070 -134.4650 N.3    83  ARG83      -0.1231
     59  CA       -25.0900  -11.7480 -135.8420 C.3    83  ARG83       0.1694
     60  C        -23.7370  -11.0550 -135.9480 C.2    83  ARG83       0.2592
     61  O        -23.2060  -10.5830 -134.9410 O.2    83  ARG83      -0.2718
     62  CB       -26.2020  -10.8670 -136.4330 C.3    83  ARG83       0.0321
     63  CG       -27.4870  -11.6210 -136.6800 C.3    83  ARG83       0.0489
     64  CD       -28.5980  -10.7530 -137.2010 C.3    83  ARG83       0.2205
     65  NE       -29.8560  -11.4930 -137.1670 N.pl3  83  ARG83      -0.0865
     66  CZ       -31.0610  -10.9600 -137.3590 C.cat  83  ARG83       0.5346
     67  NH1      -31.1940   -9.6510 -137.6080 N.pl3  83  ARG83       0.1354
     68  NH2      -32.1420  -11.7360 -137.2970 N.pl3  83  ARG83       0.1354
     69  N        -23.1960  -10.9950 -137.1660 N.am   84  HIS84      -0.1962
     70  CA       -21.9170  -10.3320 -137.4560 C.3    84  HIS84       0.1787
     71  C        -20.7320  -11.0400 -136.8180 C.2    84  HIS84       0.2620
     72  O        -19.7630  -10.3940 -136.4180 O.2    84  HIS84      -0.2715
     73  CB       -21.9100   -8.8600 -137.0130 C.3    84  HIS84       0.0785
     74  CG       -22.9800   -8.0240 -137.6390 C.ar   84  HIS84       0.0821
     75  ND1      -24.3130   -8.3750 -137.6190 N.ar   84  HIS84      -0.2267
     76  CD2      -22.9190   -6.8340 -138.2750 C.ar   84  HIS84       0.1154
     77  CE1      -25.0220   -7.4480 -138.2340 C.ar   84  HIS84       0.1986
     78  NE2      -24.2000   -6.5010 -138.6430 N.ar   84  HIS84      -0.2212
     79  N        -20.8010  -12.3610 -136.7270 N.am   85  LEU85      -0.1963
     80  CA       -19.7270  -13.1210 -136.1020 C.3    85  LEU85       0.1728
     81  C        -19.0420  -14.0420 -137.1070 C.2    85  LEU85       0.2617
     82  O        -17.8390  -14.3130 -137.0150 O.2    85  LEU85      -0.2715
     83  CB       -20.2670  -13.9090 -134.9030 C.3    85  LEU85       0.0311
     84  CG       -20.6980  -13.0100 -133.7320 C.3    85  LEU85       0.0022
     85  CD1      -21.5720  -13.7790 -132.7550 C.3    85  LEU85       0.0001
     86  CD2      -19.4880  -12.3950 -133.0150 C.3    85  LEU85       0.0001
     87  N        -19.8130  -14.4990 -138.0850 N.am   86  GLY86      -0.1940
     88  CA       -19.2980  -15.4250 -139.0760 C.3    86  GLY86       0.2014
     89  C        -20.0750  -16.7280 -139.0440 C.2    86  GLY86       0.2639
     90  O        -19.7470  -17.6800 -139.7520 O.2    86  GLY86      -0.2714
     91  N        -21.1140  -16.7450 -138.2130 N.am   87  LEU87      -0.1963
     92  CA       -21.9520  -17.9120 -138.0170 C.3    87  LEU87       0.1728
     93  C        -22.5480  -18.3910 -139.3320 C.2    87  LEU87       0.2616
     94  O        -22.4820  -19.5850 -139.6560 O.2    87  LEU87      -0.2715
     95  CB       -23.0620  -17.6060 -137.0060 C.3    87  LEU87       0.0311
     96  CG       -22.9880  -18.3760 -135.6830 C.3    87  LEU87       0.0022
     97  CD1      -21.6190  -18.2110 -135.0220 C.3    87  LEU87       0.0001
     98  CD2      -24.0990  -17.9420 -134.7450 C.3    87  LEU87       0.0001
     99  N        -23.1160  -17.4640 -140.0990 N.am   88  ALA88      -0.1963
    100  CA       -23.7870  -17.8630 -141.3340 C.3    88  ALA88       0.1728
    101  C        -22.8040  -18.3760 -142.3770 C.2    88  ALA88       0.2616
    102  O        -23.0430  -19.4220 -142.9830 O.2    88  ALA88      -0.2715
    103  CB       -24.6450  -16.7500 -141.8920 C.3    88  ALA88       0.0334
    104  N        -21.7050  -17.6520 -142.5690 N.am   89  LYS89      -0.1977
    105  CA       -20.6770  -18.0680 -143.5150 C.3    89  LYS89       0.1596
    106  C        -20.1920  -19.4900 -143.2110 C.2    89  LYS89       0.2287
    107  O        -20.0130  -20.2990 -144.1210 O.2    89  LYS89      -0.2864
    108  CB       -19.4930  -17.0920 -143.4970 C.3    89  LYS89       0.0298
    109  CG       -18.4420  -17.3810 -144.5690 C.3    89  LYS89       0.0038
    110  CD       -17.1490  -16.5870 -144.3630 C.3    89  LYS89       0.0206
    111  CE       -16.1430  -17.3040 -143.4520 C.3    89  LYS89       0.1093
    112  NZ       -15.6430  -18.5930 -144.0230 N.3    89  LYS89      -0.1314
    113  N        -30.2860  -20.6340 -154.2110 N.3   110  LEU110     -0.1231
    114  CA       -31.1440  -20.1070 -153.1500 C.3   110  LEU110      0.1693
    115  C        -31.9230  -18.8580 -153.5960 C.2   110  LEU110      0.2592
    116  O        -31.6490  -18.2610 -154.6500 O.2   110  LEU110     -0.2718
    117  CB       -30.3100  -19.7810 -151.9020 C.3   110  LEU110      0.0284
    118  CG       -29.1420  -18.8120 -152.1210 C.3   110  LEU110      0.0019
    119  CD1      -29.5730  -17.3240 -152.0200 C.3   110  LEU110      0.0001
    120  CD2      -27.9810  -19.0950 -151.1770 C.3   110  LEU110      0.0001
    121  N        -32.8660  -18.4350 -152.7660 N.am  111  HIS111     -0.1962
    122  CA       -33.6150  -17.2120 -153.0380 C.3   111  HIS111      0.1787
    123  C        -33.3540  -16.1440 -151.9720 C.2   111  HIS111      0.2620
    124  O        -33.3530  -16.4310 -150.7770 O.2   111  HIS111     -0.2715
    125  CB       -35.1170  -17.5060 -153.0950 C.3   111  HIS111      0.0785
    126  CG       -35.5210  -18.4270 -154.2080 C.ar  111  HIS111      0.0821
    127  ND1      -35.5290  -19.7980 -154.0800 N.ar  111  HIS111     -0.2267
    128  CD2      -35.9580  -18.1630 -155.4610 C.ar  111  HIS111      0.1154
    129  CE1      -35.9440  -20.3390 -155.2130 C.ar  111  HIS111      0.1986
    130  NE2      -36.2080  -19.3700 -156.0670 N.ar  111  HIS111     -0.2212
    131  N        -33.1360  -14.9090 -152.4090 N.am  112  VAL112     -0.1963
    132  CA       -33.0970  -13.7700 -151.4920 C.3   112  VAL112      0.1727
    133  C        -34.0080  -12.6740 -151.9980 C.2   112  VAL112      0.2616
    134  O        -34.0110  -12.3610 -153.1900 O.2   112  VAL112     -0.2715
    135  CB       -31.6780  -13.1970 -151.3270 C.3   112  VAL112      0.0290
    136  CG1      -30.8230  -14.1700 -150.5630 C.3   112  VAL112      0.0023
    137  CG2      -31.0540  -12.9170 -152.6770 C.3   112  VAL112      0.0023
    138  N        -34.7990  -12.0950 -151.1040 N.am  113  ARG113     -0.1977
    139  CA       -35.5930  -10.9480 -151.5180 C.3   113  ARG113      0.1597
    140  C        -34.6860   -9.7740 -151.9000 C.2   113  ARG113      0.2287
    141  O        -33.6450   -9.5620 -151.2790 O.2   113  ARG113     -0.2864
    142  CB       -36.6490  -10.5640 -150.4680 C.3   113  ARG113      0.0334
    143  CG       -36.1770  -10.5300 -149.0330 C.3   113  ARG113      0.0492
    144  CD       -37.2870  -10.0500 -148.1110 C.3   113  ARG113      0.2205
    145  NE       -38.3260  -11.0520 -147.8780 N.pl3 113  ARG113     -0.0865
    146  CZ       -39.6320  -10.8520 -148.0680 C.cat 113  ARG113      0.5346
    147  NH1      -40.0850   -9.6820 -148.5120 N.pl3 113  ARG113      0.1354
    148  NH2      -40.4980  -11.8230 -147.8070 N.pl3 113  ARG113      0.1354
    149  N        -33.0860   -7.4670 -149.1960 N.3   116  ASN116     -0.1225
    150  CA       -32.2860   -8.0330 -148.1180 C.3   116  ASN116      0.1785
    151  C        -30.8110   -7.7760 -148.3850 C.2   116  ASN116      0.2597
    152  O        -30.0950   -8.6660 -148.8680 O.2   116  ASN116     -0.2718
    153  CB       -32.5410   -9.5350 -147.9910 C.3   116  ASN116      0.1169
    154  CG       -32.1050  -10.0970 -146.6460 C.2   116  ASN116      0.2627
    155  OD1      -31.2390   -9.5330 -145.9730 O.2   116  ASN116     -0.2716
    156  ND2      -32.7030  -11.2270 -146.2520 N.am  116  ASN116     -0.0877
    157  N        -30.3690   -6.5570 -148.0760 N.am  117  ARG117     -0.1966
    158  CA       -28.9830   -6.1560 -148.2850 C.3   117  ARG117      0.1729
    159  C        -28.0090   -7.1380 -147.6220 C.2   117  ARG117      0.2616
    160  O        -27.0380   -7.5870 -148.2410 O.2   117  ARG117     -0.2715
    161  CB       -28.7690   -4.7440 -147.7440 C.3   117  ARG117      0.0348
    162  CG       -27.4540   -4.1010 -148.1390 C.3   117  ARG117      0.0492
    163  CD       -27.4120   -2.6430 -147.6800 C.3   117  ARG117      0.2205
    164  NE       -26.1810   -1.9620 -148.0760 N.pl3 117  ARG117     -0.0865
    165  CZ       -25.0290   -2.0510 -147.4150 C.cat 117  ARG117      0.5346
    166  NH1      -24.9410   -2.7980 -146.3210 N.pl3 117  ARG117      0.1354
    167  NH2      -23.9630   -1.3930 -147.8500 N.pl3 117  ARG117      0.1354
    168  N        -28.2990   -7.4790 -146.3690 N.am  118  ALA118     -0.1963
    169  CA       -27.4750   -8.3840 -145.5790 C.3   118  ALA118      0.1728
    170  C        -27.2060   -9.7010 -146.3060 C.2   118  ALA118      0.2616
    171  O        -26.0500  -10.0650 -146.5380 O.2   118  ALA118     -0.2715
    172  CB       -28.1370   -8.6460 -144.2240 C.3   118  ALA118      0.0334
    173  N        -28.2770  -10.4040 -146.6680 N.am  119  ALA119     -0.1977
    174  CA       -28.1650  -11.7070 -147.3060 C.3   119  ALA119      0.1597
    175  C        -27.3840  -11.6260 -148.6160 C.2   119  ALA119      0.2287
    176  O        -26.5460  -12.4810 -148.9020 O.2   119  ALA119     -0.2864
    177  CB       -29.5500  -12.3110 -147.5330 C.3   119  ALA119      0.0319
    178  N        -25.0900   -9.4360 -149.4860 N.3   121  HIS121     -0.1226
    179  CA       -23.6790   -9.1550 -149.2320 C.3   121  HIS121      0.1752
    180  C        -22.9590  -10.3810 -148.6940 C.2   121  HIS121      0.2596
    181  O        -21.7290  -10.4330 -148.6560 O.2   121  HIS121     -0.2718
    182  CB       -23.5290   -7.9960 -148.2500 C.3   121  HIS121      0.0759
    183  CG       -22.2470   -7.2340 -148.4100 C.ar  121  HIS121      0.0818
    184  ND1      -21.0730   -7.8340 -148.8060 N.ar  121  HIS121     -0.2268
    185  CD2      -21.9680   -5.9230 -148.2370 C.ar  121  HIS121      0.1154
    186  CE1      -20.1180   -6.9200 -148.8680 C.ar  121  HIS121      0.1986
    187  NE2      -20.6310   -5.7540 -148.5270 N.ar  121  HIS121     -0.2212
    188  N        -23.7470  -11.3650 -148.2800 N.am  122  LEU122     -0.1966
    189  CA       -23.2250  -12.6120 -147.7530 C.3   122  LEU122      0.1728
    190  C        -22.9870  -13.6340 -148.8630 C.2   122  LEU122      0.2616
    191  O        -21.9540  -14.3020 -148.8830 O.2   122  LEU122     -0.2715
    192  CB       -24.1870  -13.1770 -146.7150 C.3   122  LEU122      0.0311
    193  CG       -24.0440  -14.6680 -146.4140 C.3   122  LEU122      0.0022
    194  CD1      -22.7060  -14.9590 -145.7510 C.3   122  LEU122      0.0001
    195  CD2      -25.1960  -15.1540 -145.5510 C.3   122  LEU122      0.0001
    196  N        -23.9350  -13.7610 -149.7850 N.am  123  TYR123     -0.1974
    197  CA       -23.8010  -14.7570 -150.8460 C.3   123  TYR123      0.1639
    198  C        -22.9960  -14.2420 -152.0180 C.2   123  TYR123      0.2290
    199  O        -22.0940  -14.9170 -152.5060 O.2   123  TYR123     -0.2864
    200  CB       -25.1660  -15.2260 -151.3440 C.3   123  TYR123      0.0560
    201  CG       -26.0820  -15.7120 -150.2480 C.ar  123  TYR123     -0.0198
    202  CD1      -25.7320  -16.7880 -149.4480 C.ar  123  TYR123     -0.0009
    203  CD2      -27.3000  -15.0970 -150.0270 C.ar  123  TYR123     -0.0009
    204  CE1      -26.5690  -17.2240 -148.4520 C.ar  123  TYR123      0.0417
    205  CE2      -28.1310  -15.5140 -149.0420 C.ar  123  TYR123      0.0417
    206  CZ       -27.7690  -16.5740 -148.2590 C.ar  123  TYR123      0.1957
    207  OH       -28.6320  -16.9750 -147.2790 O.3   123  TYR123     -0.2866
    208  N        -19.1740  -12.6560 -150.3430 N.3   126  THR126     -0.1218
    209  CA       -18.3240  -13.3840 -149.4090 C.3   126  THR126      0.1862
    210  C        -18.5100  -14.9040 -149.4440 C.2   126  THR126      0.2287
    211  O        -17.8620  -15.6350 -148.6980 O.2   126  THR126     -0.2866
    212  CB       -18.5120  -12.8510 -147.9980 C.3   126  THR126      0.1770
    213  OG1      -19.7870  -13.2620 -147.4970 O.3   126  THR126     -0.2211
    214  CG2      -18.4610  -11.3460 -148.0350 C.3   126  THR126      0.0375
    215  N        -42.0220  -13.7750 -153.0970 N.3   139  TYR139     -0.1241
    216  CA       -42.4860  -13.7990 -151.7130 C.3   139  TYR139      0.1605
    217  C        -43.9490  -13.3890 -151.5840 C.2   139  TYR139      0.2264
    218  O        -44.4820  -12.6760 -152.4320 O.2   139  TYR139     -0.2867
    219  CB       -41.5840  -12.9350 -150.8340 C.3   139  TYR139      0.0534
    220  CG       -40.1760  -13.4700 -150.8090 C.ar  139  TYR139     -0.0201
    221  CD1      -39.8260  -14.5300 -149.9770 C.ar  139  TYR139     -0.0009
    222  CD2      -39.2020  -12.9430 -151.6440 C.ar  139  TYR139     -0.0009
    223  CE1      -38.5340  -15.0260 -149.9660 C.ar  139  TYR139      0.0417
    224  CE2      -37.9210  -13.4400 -151.6410 C.ar  139  TYR139      0.0417
    225  CZ       -37.5930  -14.4750 -150.7990 C.ar  139  TYR139      0.1957
    226  OH       -36.3150  -14.9490 -150.7940 O.3   139  TYR139     -0.2866
@<TRIPOS>BOND
     1   130   128   ar
     2   130   129   ar
     3   128   126   ar
     4   129   127   ar
     5   116   115    2
     6   113   114    1
     7   126   127   ar
     8   126   125    1
     9   115   114    1
    10   115   121   am
    11   134   133    2
    12   114   117    1
    13   215   216    1
    14   125   122    1
    15   122   121    1
    16   122   123    1
    17   137   135    1
    18   199   198    2
    19   218   217    2
    20   131   123   am
    21   131   132    1
    22   118   119    1
    23   118   117    1
    24   118   120    1
    25   198   197    1
    26   133   132    1
    27   133   138   am
    28   123   124    2
    29   140   139    1
    30   140   141    2
    31   216   217    1
    32   216   219    1
    33   222   224   ar
    34   222   220   ar
    35   224   225   ar
    36   139   138    1
    37   139   142    1
    38   132   135    1
    39   200   197    1
    40   200   201    1
    41   135   136    1
    42   197   196    1
    43   219   220    1
    44   220   221   ar
    45   225   226    1
    46   225   223   ar
    47    17    18    1
    48   142   143    1
    49   208   209    1
    50   201   203   ar
    51   201   202   ar
    52    20    19    2
    53   203   205   ar
    54   221   223   ar
    55   196   190   am
    56   178   179    1
    57   202   204   ar
    58   210   209    1
    59   210   211    2
    60   209   212    1
    61    18    19    1
    62    18    21    1
    63    19    25   am
    64   179   180    1
    65   179   182    1
    66   149   150    1
    67    22    21    1
    68    22    24    1
    69    21    23    1
    70   205   206   ar
    71   143   144    1
    72   176   175    2
    73   191   190    2
    74   186   184   ar
    75   186   187   ar
    76   152   151    2
    77   190   189    1
    78   184   183   ar
    79   180   181    2
    80   180   188   am
    81   175   174    1
    82   187   185   ar
    83   147   146    1
    84   204   206   ar
    85   183   182    1
    86   183   185   ar
    87   151   150    1
    88   151   157   am
    89   158   157    1
    90   158   161    1
    91   158   159    1
    92   188   189    1
    93   206   207    1
    94   160   159    2
    95    25    26    1
    96    31    29    1
    97    26    29    1
    98    26    27    1
    99   162   161    1
   100   162   163    1
   101   150   153    1
   102   144   145    1
   103   164   163    1
   104   164   165    2
   105   146   145    2
   106   146   148    1
   107   214   212    1
   108    29    30    1
   109   212   213    1
   110   153   154    1
   111   167   165    1
   112   189   192    1
   113   159   168   am
   114   177   174    1
   115   165   166    1
   116   174   173    1
   117    27    28    2
   118    27    32   am
   119   192   193    1
   120   173   170   am
   121   154   156   am
   122   154   155    2
   123   171   170    2
   124   193   194    1
   125   193   195    1
   126   168   169    1
   127   170   169    1
   128    32    33    1
   129   169   172    1
   130    33    34    1
   131    33    36    1
   132    43    42    1
   133   109   110    1
   134   109   108    1
   135   110   111    1
   136    34    35    2
   137    34    38   am
   138    36    37    1
   139   107   106    2
   140   112   111    1
   141    38    39    1
   142    42    39    1
   143    42    44    1
   144   105   108    1
   145   105   106    1
   146   105   104    1
   147    16    14    1
   148    39    40    1
   149   102   101    2
   150    41    40    2
   151    15    14    1
   152   104   101   am
   153   101   100    1
   154    40    45   am
   155    14    13    1
   156   103   100    1
   157    13    10    1
   158   100    99    1
   159    11    10    1
   160    11    12    2
   161    10     9    1
   162    45    46    1
   163    46    49    1
   164    46    47    1
   165    99    93   am
   166     4     3    2
   167    49    50    1
   168    90    89    2
   169     9     3   am
   170    94    93    2
   171    93    92    1
   172     3     2    1
   173    88    89    1
   174    88    87    1
   175    89    91   am
   176    47    48    2
   177    47    51   am
   178    78    76   ar
   179    78    77   ar
   180    76    74   ar
   181    77    75   ar
   182    91    92    1
   183    51    52    1
   184    57    55    1
   185    87    81   am
   186    92    95    1
   187     5     2    1
   188     5     6    1
   189     2     1    1
   190    74    75   ar
   191    74    73    1
   192    67    66    1
   193    70    69    1
   194    70    73    1
   195    70    71    1
   196    66    68    1
   197    66    65    2
   198    64    65    1
   199    64    63    1
   200    69    60   am
   201    81    82    2
   202    81    80    1
   203    55    52    1
   204    55    56    1
   205    95    96    1
   206    52    53    1
   207    71    79   am
   208    71    72    2
   209    79    80    1
   210    63    62    1
   211     6     8   am
   212     6     7    2
   213    54    53    2
   214    62    59    1
   215    80    83    1
   216    60    59    1
   217    60    61    2
   218    59    58    1
   219    96    97    1
   220    96    98    1
   221    83    84    1
   222    84    86    1
   223    84    85    1
