@<TRIPOS>MOLECULE
tmp/4kvmG00.pdb
 161 160 0 0 0
SMALL
GASTEIGER

@<TRIPOS>ATOM
      1  N        -36.0740  -19.7760 -137.0860 N.3    18  ASN18      -0.1240
      2  CA       -36.7420  -19.3120 -138.3030 C.3    18  ASN18       0.1653
      3  C        -37.8880  -18.3510 -138.0060 C.2    18  ASN18       0.2266
      4  O        -38.0360  -17.3320 -138.6720 O.2    18  ASN18      -0.2867
      5  CB       -37.2900  -20.5030 -139.0900 C.3    18  ASN18       0.1155
      6  CG       -38.0770  -20.0740 -140.3200 C.2    18  ASN18       0.2627
      7  OD1      -39.3050  -20.1180 -140.3290 O.2    18  ASN18      -0.2716
      8  ND2      -37.3640  -19.6660 -141.3720 N.am   18  ASN18      -0.0877
      9  N        -37.4760  -14.7000 -139.7350 N.3    22  LEU22      -0.1245
     10  CA       -37.8310  -14.7240 -141.1540 C.3    22  LEU22       0.1561
     11  C        -39.3350  -14.7040 -141.3210 C.2    22  LEU22       0.2260
     12  O        -40.0520  -15.2890 -140.5110 O.2    22  LEU22      -0.2867
     13  CB       -37.2120  -15.9520 -141.8490 C.3    22  LEU22       0.0270
     14  CG       -35.7430  -15.7860 -142.2400 C.3    22  LEU22       0.0019
     15  CD1      -35.1170  -17.0950 -142.6810 C.3    22  LEU22       0.0001
     16  CD2      -35.5660  -14.7100 -143.3370 C.3    22  LEU22       0.0001
     17  N        -40.8290  -16.0510 -143.8560 N.3    24  GLU24      -0.1231
     18  CA       -41.1810  -17.3050 -144.4970 C.3    24  GLU24       0.1699
     19  C        -40.9550  -18.5020 -143.5410 C.2    24  GLU24       0.2592
     20  O        -39.8180  -18.8180 -143.1510 O.2    24  GLU24      -0.2718
     21  CB       -40.4600  -17.4520 -145.8440 C.3    24  GLU24       0.0402
     22  CG       -39.2360  -16.5630 -146.0060 C.3    24  GLU24       0.1161
     23  CD       -39.6010  -15.0940 -146.3060 C.2    24  GLU24       0.3649
     24  OE1      -40.7790  -14.8400 -146.6980 O.co2  24  GLU24      -0.2457
     25  OE2      -38.7260  -14.1990 -146.1500 O.co2  24  GLU24      -0.2457
     26  N        -42.0580  -19.1400 -143.1490 N.am   25  ASN25      -0.1960
     27  CA       -42.0130  -20.1860 -142.1330 C.3    25  ASN25       0.1819
     28  C        -42.5760  -21.5240 -142.6220 C.2    25  ASN25       0.2621
     29  O        -43.2980  -21.5930 -143.6130 O.2    25  ASN25      -0.2715
     30  CB       -42.7710  -19.7090 -140.8840 C.3    25  ASN25       0.1195
     31  CG       -42.3860  -18.3130 -140.4870 C.2    25  ASN25       0.2630
     32  OD1      -43.2340  -17.4370 -140.3410 O.2    25  ASN25      -0.2716
     33  ND2      -41.0860  -18.0910 -140.3300 N.am   25  ASN25      -0.0877
     34  N        -42.2790  -22.5980 -141.9100 N.am   26  TYR26      -0.1974
     35  CA       -42.8100  -23.9270 -142.2890 C.3    26  TYR26       0.1639
     36  C        -43.2400  -24.6780 -141.0440 C.2    26  TYR26       0.2290
     37  O        -42.6810  -24.4680 -139.9630 O.2    26  TYR26      -0.2864
     38  CB       -41.7730  -24.7380 -143.0770 C.3    26  TYR26       0.0560
     39  CG       -40.8470  -23.8640 -143.8750 C.ar   26  TYR26      -0.0198
     40  CD1      -41.2440  -23.3300 -145.1050 C.ar   26  TYR26      -0.0009
     41  CD2      -39.5930  -23.5280 -143.3840 C.ar   26  TYR26      -0.0009
     42  CE1      -40.3980  -22.5100 -145.8350 C.ar   26  TYR26       0.0417
     43  CE2      -38.7370  -22.7180 -144.1000 C.ar   26  TYR26       0.0417
     44  CZ       -39.1430  -22.2000 -145.3250 C.ar   26  TYR26       0.1957
     45  OH       -38.2920  -21.3650 -146.0310 O.3    26  TYR26      -0.2866
     46  N        -42.0740  -30.1800 -142.2730 N.3    30  TYR30      -0.1241
     47  CA       -41.2500  -29.8500 -143.4250 C.3    30  TYR30       0.1605
     48  C        -39.7840  -29.9390 -143.0410 C.2    30  TYR30       0.2264
     49  O        -38.9440  -30.2890 -143.8680 O.2    30  TYR30      -0.2867
     50  CB       -41.6120  -28.4640 -143.9770 C.3    30  TYR30       0.0534
     51  CG       -40.9730  -28.1640 -145.3070 C.ar   30  TYR30      -0.0201
     52  CD1      -40.2420  -26.9990 -145.5030 C.ar   30  TYR30      -0.0009
     53  CD2      -41.0740  -29.0620 -146.3720 C.ar   30  TYR30      -0.0009
     54  CE1      -39.6450  -26.7140 -146.7310 C.ar   30  TYR30       0.0417
     55  CE2      -40.4710  -28.7910 -147.6140 C.ar   30  TYR30       0.0417
     56  CZ       -39.7560  -27.6100 -147.7840 C.ar   30  TYR30       0.1957
     57  OH       -39.1480  -27.3180 -148.9950 O.3    30  TYR30      -0.2866
     58  N        -29.9650  -26.8810 -152.6820 N.3    72  HIS72      -0.1226
     59  CA       -30.7970  -25.7130 -152.4690 C.3    72  HIS72       0.1752
     60  C        -30.7550  -25.3830 -150.9910 C.2    72  HIS72       0.2596
     61  O        -31.0220  -26.2500 -150.1590 O.2    72  HIS72      -0.2718
     62  CB       -32.2450  -26.0080 -152.8530 C.3    72  HIS72       0.0759
     63  CG       -32.6700  -25.4030 -154.1530 C.ar   72  HIS72       0.0818
     64  ND1      -33.4040  -24.2370 -154.2270 N.ar   72  HIS72      -0.2268
     65  CD2      -32.4790  -25.8100 -155.4310 C.ar   72  HIS72       0.1154
     66  CE1      -33.6420  -23.9490 -155.4950 C.ar   72  HIS72       0.1986
     67  NE2      -33.0900  -24.8870 -156.2460 N.ar   72  HIS72      -0.2212
     68  N        -30.3930  -24.1500 -150.6540 N.am   73  ILE73      -0.1966
     69  CA       -30.6000  -23.6670 -149.3030 C.3    73  ILE73       0.1727
     70  C        -32.0750  -23.3580 -149.2390 C.2    73  ILE73       0.2617
     71  O        -32.5910  -22.6850 -150.1220 O.2    73  ILE73      -0.2715
     72  CB       -29.8540  -22.3560 -149.0530 C.3    73  ILE73       0.0290
     73  CG1      -28.3440  -22.5670 -149.1370 C.3    73  ILE73       0.0022
     74  CG2      -30.2590  -21.7790 -147.6950 C.3    73  ILE73       0.0023
     75  CD1      -27.8680  -23.7100 -148.2340 C.3    73  ILE73       0.0001
     76  N        -32.7820  -23.8450 -148.2330 N.am   74  THR74      -0.1937
     77  CA       -34.1840  -23.4670 -148.1550 C.3    74  THR74       0.2028
     78  C        -34.3920  -22.4370 -147.0580 C.2    74  THR74       0.2643
     79  O        -35.4290  -21.7690 -147.0220 O.2    74  THR74      -0.2714
     80  CB       -35.1500  -24.6830 -148.0180 C.3    74  THR74       0.1808
     81  OG1      -35.7990  -24.6560 -146.7420 O.3    74  THR74      -0.2208
     82  CG2      -34.4130  -25.9740 -148.1990 C.3    74  THR74       0.0379
     83  N        -33.3900  -22.2930 -146.1900 N.am   75  SER75      -0.1935
     84  CA       -33.4410  -21.3030 -145.1190 C.3    75  SER75       0.2055
     85  C        -32.1320  -21.1580 -144.3610 C.2    75  SER75       0.2642
     86  O        -31.4630  -22.1390 -144.0850 O.2    75  SER75      -0.2714
     87  CB       -34.5390  -21.6540 -144.1220 C.3    75  SER75       0.2130
     88  OG       -34.7030  -20.6060 -143.1800 O.3    75  SER75      -0.2179
     89  N        -31.7820  -19.9240 -144.0030 N.am   76  VAL76      -0.1977
     90  CA       -30.6400  -19.6880 -143.1180 C.3    76  VAL76       0.1596
     91  C        -30.8870  -18.4290 -142.3360 C.2    76  VAL76       0.2287
     92  O        -31.3350  -17.4590 -142.9010 O.2    76  VAL76      -0.2864
     93  CB       -29.3060  -19.5650 -143.8930 C.3    76  VAL76       0.0276
     94  CG1      -29.4960  -18.7150 -145.0830 C.3    76  VAL76       0.0022
     95  CG2      -28.2080  -18.9970 -143.0120 C.3    76  VAL76       0.0022
     96  N        -30.2860  -20.6340 -154.2110 N.3   110  LEU110     -0.1231
     97  CA       -31.1440  -20.1070 -153.1500 C.3   110  LEU110      0.1693
     98  C        -31.9230  -18.8580 -153.5960 C.2   110  LEU110      0.2592
     99  O        -31.6490  -18.2610 -154.6500 O.2   110  LEU110     -0.2718
    100  CB       -30.3100  -19.7810 -151.9020 C.3   110  LEU110      0.0284
    101  CG       -29.1420  -18.8120 -152.1210 C.3   110  LEU110      0.0019
    102  CD1      -29.5730  -17.3240 -152.0200 C.3   110  LEU110      0.0001
    103  CD2      -27.9810  -19.0950 -151.1770 C.3   110  LEU110      0.0001
    104  N        -32.8660  -18.4350 -152.7660 N.am  111  HIS111     -0.1962
    105  CA       -33.6150  -17.2120 -153.0380 C.3   111  HIS111      0.1787
    106  C        -33.3540  -16.1440 -151.9720 C.2   111  HIS111      0.2620
    107  O        -33.3530  -16.4310 -150.7770 O.2   111  HIS111     -0.2715
    108  CB       -35.1170  -17.5060 -153.0950 C.3   111  HIS111      0.0785
    109  CG       -35.5210  -18.4270 -154.2080 C.ar  111  HIS111      0.0821
    110  ND1      -35.5290  -19.7980 -154.0800 N.ar  111  HIS111     -0.2267
    111  CD2      -35.9580  -18.1630 -155.4610 C.ar  111  HIS111      0.1154
    112  CE1      -35.9440  -20.3390 -155.2130 C.ar  111  HIS111      0.1986
    113  NE2      -36.2080  -19.3700 -156.0670 N.ar  111  HIS111     -0.2212
    114  N        -33.1360  -14.9090 -152.4090 N.am  112  VAL112     -0.1977
    115  CA       -33.0970  -13.7700 -151.4920 C.3   112  VAL112      0.1596
    116  C        -34.0080  -12.6740 -151.9980 C.2   112  VAL112      0.2287
    117  O        -34.0110  -12.3610 -153.1900 O.2   112  VAL112     -0.2864
    118  CB       -31.6780  -13.1970 -151.3270 C.3   112  VAL112      0.0276
    119  CG1      -30.8230  -14.1700 -150.5630 C.3   112  VAL112      0.0022
    120  CG2      -31.0540  -12.9170 -152.6770 C.3   112  VAL112      0.0022
    121  N        -23.9350  -13.7610 -149.7850 N.3   123  TYR123     -0.1241
    122  CA       -23.8010  -14.7570 -150.8460 C.3   123  TYR123      0.1605
    123  C        -22.9960  -14.2420 -152.0180 C.2   123  TYR123      0.2264
    124  O        -22.0940  -14.9170 -152.5060 O.2   123  TYR123     -0.2867
    125  CB       -25.1660  -15.2260 -151.3440 C.3   123  TYR123      0.0534
    126  CG       -26.0820  -15.7120 -150.2480 C.ar  123  TYR123     -0.0201
    127  CD1      -25.7320  -16.7880 -149.4480 C.ar  123  TYR123     -0.0009
    128  CD2      -27.3000  -15.0970 -150.0270 C.ar  123  TYR123     -0.0009
    129  CE1      -26.5690  -17.2240 -148.4520 C.ar  123  TYR123      0.0417
    130  CE2      -28.1310  -15.5140 -149.0420 C.ar  123  TYR123      0.0417
    131  CZ       -27.7690  -16.5740 -148.2590 C.ar  123  TYR123      0.1957
    132  OH       -28.6320  -16.9750 -147.2790 O.3   123  TYR123     -0.2866
    133  N        -42.0180  -13.3330 -155.8930 N.3   138  TYR138     -0.1227
    134  CA       -41.7360  -14.6600 -155.3490 C.3   138  TYR138      0.1736
    135  C        -42.2230  -14.8060 -153.9090 C.2   138  TYR138      0.2595
    136  O        -42.7790  -15.8310 -153.5440 O.2   138  TYR138     -0.2718
    137  CB       -40.2470  -14.9720 -155.4420 C.3   138  TYR138      0.0548
    138  CG       -39.8710  -16.2970 -154.8320 C.ar  138  TYR138     -0.0200
    139  CD1      -40.0570  -17.4840 -155.5330 C.ar  138  TYR138     -0.0009
    140  CD2      -39.3230  -16.3690 -153.5580 C.ar  138  TYR138     -0.0009
    141  CE1      -39.7070  -18.7150 -154.9830 C.ar  138  TYR138      0.0417
    142  CE2      -38.9700  -17.5960 -152.9940 C.ar  138  TYR138      0.0417
    143  CZ       -39.1670  -18.7730 -153.7110 C.ar  138  TYR138      0.1957
    144  OH       -38.8300  -20.0000 -153.1570 O.3   138  TYR138     -0.2866
    145  N        -42.0220  -13.7750 -153.0970 N.am  139  TYR139     -0.1962
    146  CA       -42.4860  -13.7990 -151.7130 C.3   139  TYR139      0.1771
    147  C        -43.9490  -13.3890 -151.5840 C.2   139  TYR139      0.2619
    148  O        -44.4820  -12.6760 -152.4320 O.2   139  TYR139     -0.2715
    149  CB       -41.5840  -12.9350 -150.8340 C.3   139  TYR139      0.0574
    150  CG       -40.1760  -13.4700 -150.8090 C.ar  139  TYR139     -0.0198
    151  CD1      -39.8260  -14.5300 -149.9770 C.ar  139  TYR139     -0.0009
    152  CD2      -39.2020  -12.9430 -151.6440 C.ar  139  TYR139     -0.0009
    153  CE1      -38.5340  -15.0260 -149.9660 C.ar  139  TYR139      0.0417
    154  CE2      -37.9210  -13.4400 -151.6410 C.ar  139  TYR139      0.0417
    155  CZ       -37.5930  -14.4750 -150.7990 C.ar  139  TYR139      0.1957
    156  OH       -36.3150  -14.9490 -150.7940 O.3   139  TYR139     -0.2866
    157  N        -44.5890  -13.8480 -150.5150 N.am  140  ALA140     -0.1977
    158  CA       -46.0330  -13.7230 -150.3710 C.3   140  ALA140      0.1597
    159  C        -46.5050  -12.2810 -150.4030 C.2   140  ALA140      0.2287
    160  O        -47.6230  -12.0010 -150.8260 O.2   140  ALA140     -0.2864
    161  CB       -46.4970  -14.4030 -149.1010 C.3   140  ALA140      0.0319
@<TRIPOS>BOND
     1    67    66   ar
     2    67    65   ar
     3   113   111   ar
     4   113   112   ar
     5   133   134    1
     6   139   141   ar
     7   139   138   ar
     8    66    64   ar
     9   111   109   ar
    10   137   134    1
    11   137   138    1
    12    65    63   ar
    13   134   135    1
    14   112   110   ar
    15   141   143   ar
    16   138   140   ar
    17    99    98    2
    18    64    63   ar
    19    96    97    1
    20   109   110   ar
    21   109   108    1
    22    63    62    1
    23   135   136    2
    24   135   145   am
    25   143   144    1
    26   143   142   ar
    27    98    97    1
    28    98   104   am
    29   140   142   ar
    30   117   116    2
    31    97   100    1
    32   145   146    1
    33   108   105    1
    34   105   104    1
    35   105   106    1
    36    62    59    1
    37    58    59    1
    38   120   118    1
    39   124   123    2
    40    59    60    1
    41   148   147    2
    42   114   106   am
    43   114   115    1
    44   101   102    1
    45   101   100    1
    46   101   103    1
    47   123   122    1
    48   116   115    1
    49   106   107    2
    50   146   147    1
    51   146   149    1
    52   152   154   ar
    53   152   150   ar
    54   154   155   ar
    55   147   157   am
    56   115   118    1
    57   125   122    1
    58   125   126    1
    59   118   119    1
    60    60    68   am
    61    60    61    2
    62   122   121    1
    63   149   150    1
    64   160   159    2
    65   150   151   ar
    66   155   156    1
    67   155   153   ar
    68    68    69    1
    69   157   158    1
    70   159   158    1
    71   158   161    1
    72   126   128   ar
    73   126   127   ar
    74    71    70    2
    75   128   130   ar
    76   151   153   ar
    77   127   129   ar
    78    69    70    1
    79    69    72    1
    80    70    76   am
    81    73    72    1
    82    73    75    1
    83    72    74    1
    84   130   131   ar
    85    57    56    1
    86   129   131   ar
    87   131   132    1
    88    76    77    1
    89    82    80    1
    90    77    80    1
    91    77    78    1
    92    80    81    1
    93    56    55   ar
    94    56    54   ar
    95    55    53   ar
    96    78    79    2
    97    78    83   am
    98    54    52   ar
    99    24    23   ar
   100    53    51   ar
   101    23    25   ar
   102    23    22    1
   103    83    84    1
   104    45    44    1
   105    22    21    1
   106    21    18    1
   107    42    44   ar
   108    42    40   ar
   109    52    51   ar
   110    44    43   ar
   111    51    50    1
   112    84    85    1
   113    84    87    1
   114    40    39   ar
   115    94    93    1
   116    18    17    1
   117    18    19    1
   118    85    86    2
   119    85    89   am
   120    87    88    1
   121    43    41   ar
   122    89    90    1
   123    50    47    1
   124    93    90    1
   125    93    95    1
   126    39    41   ar
   127    39    38    1
   128    49    48    2
   129    29    28    2
   130    19    20    2
   131    19    26   am
   132    47    48    1
   133    47    46    1
   134    16    14    1
   135    26    27    1
   136    90    91    1
   137    38    35    1
   138    92    91    2
   139    15    14    1
   140    28    27    1
   141    28    34   am
   142    35    34    1
   143    35    36    1
   144    14    13    1
   145    27    30    1
   146    13    10    1
   147     8     6   am
   148    11    10    1
   149    11    12    2
   150    10     9    1
   151    36    37    2
   152    30    31    1
   153    31    32    2
   154    31    33   am
   155     7     6    2
   156     6     5    1
   157     5     2    1
   158     4     3    2
   159     2     3    1
   160     2     1    1
