@<TRIPOS>MOLECULE
tmp/4kvqA00.pdb
 208 195 0 0 0
SMALL
GASTEIGER

@<TRIPOS>ATOM
      1  N        -25.3470    8.9910   -5.2180 N.3    16  TYR16      -0.1241
      2  CA       -25.3440    7.5250   -5.1810 C.3    16  TYR16       0.1605
      3  C        -26.6660    6.9680   -5.6790 C.2    16  TYR16       0.2264
      4  O        -26.7040    5.8960   -6.2780 O.2    16  TYR16      -0.2867
      5  CB       -25.0300    7.0060   -3.7720 C.3    16  TYR16       0.0534
      6  CG       -24.4020    5.6100   -3.7640 C.ar   16  TYR16      -0.0201
      7  CD1      -23.0450    5.4450   -3.9650 C.ar   16  TYR16      -0.0009
      8  CD2      -25.1780    4.4720   -3.5550 C.ar   16  TYR16      -0.0009
      9  CE1      -22.4590    4.1670   -3.9720 C.ar   16  TYR16       0.0417
     10  CE2      -24.6070    3.2040   -3.5500 C.ar   16  TYR16       0.0417
     11  CZ       -23.2510    3.0610   -3.7560 C.ar   16  TYR16       0.1957
     12  OH       -22.6690    1.8060   -3.7540 O.3    16  TYR16      -0.2866
     13  N        -26.1100    6.7950   -9.4570 N.3    19  ILE19      -0.1231
     14  CA       -25.0190    5.8890   -9.8430 C.3    19  ILE19       0.1692
     15  C        -25.3850    4.4340   -9.5220 C.2    19  ILE19       0.2592
     16  O        -25.1820    3.5260  -10.3420 O.2    19  ILE19      -0.2718
     17  CB       -23.7310    6.2400   -9.0960 C.3    19  ILE19       0.0266
     18  CG1      -23.2320    7.6140   -9.5280 C.3    19  ILE19       0.0019
     19  CG2      -22.6340    5.1850   -9.3490 C.3    19  ILE19       0.0020
     20  CD1      -22.9720    7.6940  -10.9660 C.3    19  ILE19       0.0001
     21  N        -25.9260    4.2240   -8.3280 N.am   20  ASN20      -0.1974
     22  CA       -26.4140    2.8920   -7.9300 C.3    20  ASN20       0.1688
     23  C        -27.4750    2.3590   -8.8920 C.2    20  ASN20       0.2292
     24  O        -27.4200    1.2020   -9.3140 O.2    20  ASN20      -0.2864
     25  CB       -26.9380    2.9250   -6.4890 C.3    20  ASN20       0.1181
     26  CG       -27.2470    1.5360   -5.9370 C.2    20  ASN20       0.2629
     27  OD1      -28.3460    1.2850   -5.4740 O.2    20  ASN20      -0.2716
     28  ND2      -26.2640    0.6350   -5.9890 N.am   20  ASN20      -0.0877
     29  N        -27.9070    3.1760  -12.0340 N.3    22  ILE22      -0.1231
     30  CA       -27.2860    2.8840  -13.3240 C.3    22  ILE22       0.1692
     31  C        -26.6030    1.5200  -13.3050 C.2    22  ILE22       0.2591
     32  O        -26.7510    0.7430  -14.2420 O.2    22  ILE22      -0.2718
     33  CB       -26.2780    3.9980  -13.7180 C.3    22  ILE22       0.0266
     34  CG1      -27.0520    5.2380  -14.1790 C.3    22  ILE22       0.0019
     35  CG2      -25.3510    3.5340  -14.8270 C.3    22  ILE22       0.0020
     36  CD1      -26.1660    6.4660  -14.3900 C.3    22  ILE22       0.0001
     37  N        -25.8800    1.2270  -12.2300 N.am   23  VAL23      -0.1980
     38  CA       -25.2100   -0.0710  -12.1180 C.3    23  VAL23       0.1595
     39  C        -26.2350   -1.2180  -12.0510 C.2    23  VAL23       0.2287
     40  O        -26.1020   -2.2270  -12.7330 O.2    23  VAL23      -0.2864
     41  CB       -24.2430   -0.0900  -10.9190 C.3    23  VAL23       0.0276
     42  CG1      -23.6750   -1.4580  -10.7350 C.3    23  VAL23       0.0022
     43  CG2      -23.1010    0.9170  -11.1360 C.3    23  VAL23       0.0022
     44  N        -27.7240   -1.6350  -15.4160 N.3    26  GLY26      -0.1210
     45  CA       -26.7400   -2.1750  -16.3310 C.3    26  GLY26       0.1956
     46  C        -26.5550   -3.6720  -16.1650 C.2    26  GLY26       0.2611
     47  O        -26.4000   -4.3950  -17.1470 O.2    26  GLY26      -0.2717
     48  N        -26.5360   -4.1280  -14.9190 N.am   27  GLU27      -0.1979
     49  CA       -26.4180   -5.5560  -14.6350 C.3    27  GLU27       0.1602
     50  C        -27.6290   -6.3160  -15.1460 C.2    27  GLU27       0.2287
     51  O        -27.5000   -7.4020  -15.6890 O.2    27  GLU27      -0.2864
     52  CB       -26.2250   -5.8060  -13.1370 C.3    27  GLU27       0.0415
     53  CG       -24.9660   -5.1490  -12.5620 C.3    27  GLU27       0.1163
     54  CD       -23.6800   -5.8040  -13.0440 C.2    27  GLU27       0.3649
     55  OE1      -23.7610   -6.8690  -13.6930 O.co2  27  GLU27      -0.2457
     56  OE2      -22.5930   -5.2480  -12.7720 O.co2  27  GLU27      -0.2457
     57  N        -27.2830   -6.4760  -18.8370 N.3    30  ALA30      -0.1245
     58  CA       -26.2530   -7.4550  -19.1980 C.3    30  ALA30       0.1562
     59  C        -26.8600   -8.8640  -19.1710 C.2    30  ALA30       0.2260
     60  O        -26.6680   -9.6490  -20.0960 O.2    30  ALA30      -0.2867
     61  CB       -25.0440   -7.3510  -18.2600 C.3    30  ALA30       0.0290
     62  N        -24.5710  -12.0630  -13.8810 N.3    55  GLU55      -0.1245
     63  CA       -25.0500  -10.6850  -13.9270 C.3    55  GLU55       0.1567
     64  C        -26.1350  -10.4700  -12.8920 C.2    55  GLU55       0.2260
     65  O        -26.2170   -9.4150  -12.2720 O.2    55  GLU55      -0.2867
     66  CB       -25.5530  -10.2990  -15.3340 C.3    55  GLU55       0.0388
     67  CG       -24.5140  -10.5010  -16.4650 C.3    55  GLU55       0.1160
     68  CD       -23.2560   -9.6210  -16.3430 C.2    55  GLU55       0.3649
     69  OE1      -22.9560   -9.1080  -15.2500 O.co2  55  GLU55      -0.2457
     70  OE2      -22.5490   -9.4590  -17.3550 O.co2  55  GLU55      -0.2457
     71  N        -25.2050   -5.1420   -5.9290 N.3    62  PHE62      -0.1241
     72  CA       -25.2260   -3.6830   -6.0110 C.3    62  PHE62       0.1605
     73  C        -26.5300   -3.1230   -5.4620 C.2    62  PHE62       0.2264
     74  O        -26.5620   -2.0270   -4.9040 O.2    62  PHE62      -0.2867
     75  CB       -24.9630   -3.2320   -7.4500 C.3    62  PHE62       0.0534
     76  CG       -23.5360   -3.4370   -7.8870 C.ar   62  PHE62      -0.0203
     77  CD1      -22.4950   -2.9540   -7.1120 C.ar   62  PHE62      -0.0042
     78  CD2      -23.2340   -4.1320   -9.0430 C.ar   62  PHE62      -0.0042
     79  CE1      -21.1730   -3.1380   -7.4920 C.ar   62  PHE62      -0.0003
     80  CE2      -21.9050   -4.3070   -9.4440 C.ar   62  PHE62      -0.0003
     81  CZ       -20.8770   -3.8190   -8.6570 C.ar   62  PHE62      -0.0000
     82  N        -29.4610    4.1900  -20.1870 N.3    82  PHE82      -0.1241
     83  CA       -29.1450    3.0450  -21.0410 C.3    82  PHE82       0.1605
     84  C        -29.9460    2.9540  -22.3280 C.2    82  PHE82       0.2264
     85  O        -29.6140    2.1500  -23.1950 O.2    82  PHE82      -0.2867
     86  CB       -29.2910    1.7300  -20.2670 C.3    82  PHE82       0.0534
     87  CG       -28.0890    1.3950  -19.4540 C.ar   82  PHE82      -0.0203
     88  CD1      -26.9550    0.8950  -20.0630 C.ar   82  PHE82      -0.0042
     89  CD2      -28.0770    1.6110  -18.0840 C.ar   82  PHE82      -0.0042
     90  CE1      -25.8270    0.6070  -19.3100 C.ar   82  PHE82      -0.0003
     91  CE2      -26.9520    1.3310  -17.3390 C.ar   82  PHE82      -0.0003
     92  CZ       -25.8300    0.8320  -17.9540 C.ar   82  PHE82      -0.0000
     93  N        -22.3090   -5.5550  -25.9130 N.3   105  GLN105     -0.1245
     94  CA       -22.3560   -6.0370  -24.5360 C.3   105  GLN105      0.1566
     95  C        -21.0130   -6.5060  -24.0260 C.2   105  GLN105      0.2260
     96  O        -20.5370   -6.0270  -22.9970 O.2   105  GLN105     -0.2867
     97  CB       -23.3700   -7.1750  -24.3600 C.3   105  GLN105      0.0367
     98  CG       -23.2640   -7.8320  -22.9540 C.3   105  GLN105      0.0905
     99  CD       -23.5600   -6.8700  -21.8190 C.2   105  GLN105      0.2608
    100  OE1      -24.5170   -6.1000  -21.8820 O.2   105  GLN105     -0.2717
    101  NE2      -22.7300   -6.9070  -20.7640 N.am  105  GLN105     -0.0878
    102  N        -19.7490   -2.5320  -23.1130 N.3   109  ILE109     -0.1231
    103  CA       -20.3560   -2.4390  -21.7940 C.3   109  ILE109      0.1692
    104  C        -19.4950   -3.1090  -20.7160 C.2   109  ILE109      0.2591
    105  O        -19.3290   -2.5530  -19.6380 O.2   109  ILE109     -0.2718
    106  CB       -21.8060   -2.9530  -21.7900 C.3   109  ILE109      0.0266
    107  CG1      -22.6690   -2.0370  -22.6710 C.3   109  ILE109      0.0019
    108  CG2      -22.3590   -2.9710  -20.3750 C.3   109  ILE109      0.0020
    109  CD1      -24.1130   -2.4780  -22.7990 C.3   109  ILE109      0.0001
    110  N        -18.9140   -4.2730  -21.0130 N.am  110  GLU110     -0.1979
    111  CA       -18.0360   -4.8970  -20.0210 C.3   110  GLU110      0.1602
    112  C        -16.8130   -4.0260  -19.7340 C.2   110  GLU110      0.2287
    113  O        -16.4270   -3.8840  -18.5820 O.2   110  GLU110     -0.2864
    114  CB       -17.5800   -6.3050  -20.4320 C.3   110  GLU110      0.0415
    115  CG       -18.6900   -7.3200  -20.6380 C.3   110  GLU110      0.1163
    116  CD       -19.4130   -7.7450  -19.3550 C.2   110  GLU110      0.3649
    117  OE1      -18.9130   -7.4690  -18.2430 O.co2 110  GLU110     -0.2457
    118  OE2      -20.4890   -8.3860  -19.4720 O.co2 110  GLU110     -0.2457
    119  N        -16.6390   -0.7720  -19.9680 N.3   112  PHE112     -0.1227
    120  CA       -17.1380    0.3880  -19.2260 C.3   112  PHE112      0.1736
    121  C        -17.3090   -0.0040  -17.7530 C.2   112  PHE112      0.2595
    122  O        -16.8910    0.7210  -16.8470 O.2   112  PHE112     -0.2718
    123  CB       -18.4710    0.8330  -19.8550 C.3   112  PHE112      0.0547
    124  CG       -19.0380    2.1070  -19.2950 C.ar  112  PHE112     -0.0202
    125  CD1      -18.2620    2.9760  -18.5600 C.ar  112  PHE112     -0.0042
    126  CD2      -20.3700    2.4310  -19.5180 C.ar  112  PHE112     -0.0042
    127  CE1      -18.8040    4.1550  -18.0470 C.ar  112  PHE112     -0.0003
    128  CE2      -20.9160    3.6040  -19.0080 C.ar  112  PHE112     -0.0003
    129  CZ       -20.1290    4.4630  -18.2740 C.ar  112  PHE112     -0.0000
    130  N        -17.9010   -1.1700  -17.5220 N.am  113  ALA113     -0.1980
    131  CA       -18.0860   -1.6730  -16.1640 C.3   113  ALA113      0.1597
    132  C        -16.7670   -1.8890  -15.4430 C.2   113  ALA113      0.2287
    133  O        -16.6050   -1.4780  -14.3030 O.2   113  ALA113     -0.2864
    134  CB       -18.8750   -2.9700  -16.1810 C.3   113  ALA113      0.0319
    135  N        -15.2040    1.3910  -14.5550 N.3   116  ALA116     -0.1231
    136  CA       -15.9700    2.0410  -13.5020 C.3   116  ALA116      0.1694
    137  C        -15.7510    1.3540  -12.1620 C.2   116  ALA116      0.2592
    138  O        -15.4960    2.0070  -11.1540 O.2   116  ALA116     -0.2718
    139  CB       -17.4330    2.0390  -13.8570 C.3   116  ALA116      0.0304
    140  N        -15.8400    0.0280  -12.1480 N.am  117  TYR117     -0.1976
    141  CA       -15.6620   -0.6930  -10.8940 C.3   117  TYR117      0.1639
    142  C        -14.2470   -0.5420  -10.3310 C.2   117  TYR117      0.2290
    143  O        -14.0770   -0.3520   -9.1280 O.2   117  TYR117     -0.2864
    144  CB       -16.0510   -2.1660  -11.0550 C.3   117  TYR117      0.0560
    145  CG       -17.5020   -2.3800  -11.4520 C.ar  117  TYR117     -0.0198
    146  CD1      -18.4530   -1.3810  -11.2660 C.ar  117  TYR117     -0.0009
    147  CD2      -17.9140   -3.5790  -12.0230 C.ar  117  TYR117     -0.0009
    148  CE1      -19.7770   -1.5670  -11.6390 C.ar  117  TYR117      0.0417
    149  CE2      -19.2460   -3.7790  -12.3970 C.ar  117  TYR117      0.0417
    150  CZ       -20.1640   -2.7680  -12.2030 C.ar  117  TYR117      0.1957
    151  OH       -21.4730   -2.9550  -12.5810 O.3   117  TYR117     -0.2866
    152  N        -14.0140    2.8900   -8.7830 N.3   120  TYR120     -0.1241
    153  CA       -14.8290    3.0330   -7.5830 C.3   120  TYR120      0.1605
    154  C        -14.2320    2.3430   -6.3620 C.2   120  TYR120      0.2264
    155  O        -14.3560    2.8360   -5.2480 O.2   120  TYR120     -0.2867
    156  CB       -16.2240    2.4690   -7.8600 C.3   120  TYR120      0.0534
    157  CG       -17.1710    2.3690   -6.6780 C.ar  120  TYR120     -0.0201
    158  CD1      -17.5680    3.5000   -5.9700 C.ar  120  TYR120     -0.0009
    159  CD2      -17.7460    1.1420   -6.3260 C.ar  120  TYR120     -0.0009
    160  CE1      -18.4730    3.4090   -4.9200 C.ar  120  TYR120      0.0417
    161  CE2      -18.6560    1.0490   -5.2830 C.ar  120  TYR120      0.0417
    162  CZ       -19.0100    2.1770   -4.5780 C.ar  120  TYR120      0.1957
    163  OH       -19.9080    2.0770   -3.5350 O.3   120  TYR120     -0.2866
    164  N        -16.2410   -9.8460  -14.6030 N.3   139  GLU139     -0.1245
    165  CA       -16.3770   -9.0820  -15.8420 C.3   139  GLU139      0.1567
    166  C        -15.2100   -9.3930  -16.8010 C.2   139  GLU139      0.2260
    167  O        -15.3680   -9.3120  -18.0150 O.2   139  GLU139     -0.2867
    168  CB       -16.6010   -7.5720  -15.5890 C.3   139  GLU139      0.0388
    169  CG       -17.6150   -7.2070  -14.4330 C.3   139  GLU139      0.1160
    170  CD       -19.1340   -7.4870  -14.6700 C.2   139  GLU139      0.3649
    171  OE1      -19.9640   -6.8040  -13.9970 O.co2 139  GLU139     -0.2457
    172  OE2      -19.5260   -8.3800  -15.4680 O.co2 139  GLU139     -0.2457
    173  N        -22.3840   10.6860  -16.5980 N.3   179  VAL179     -0.1245
    174  CA       -22.1840   10.1410  -15.2680 C.3   179  VAL179      0.1561
    175  C        -21.1160   10.9230  -14.4780 C.2   179  VAL179      0.2260
    176  O        -21.0160   10.8020  -13.2540 O.2   179  VAL179     -0.2867
    177  CB       -21.8210    8.6390  -15.3860 C.3   179  VAL179      0.0252
    178  CG1      -20.3080    8.4220  -15.3840 C.3   179  VAL179      0.0019
    179  CG2      -22.5050    7.8330  -14.3240 C.3   179  VAL179      0.0019
    180  N        -20.2980   10.8980  -10.5080 N.3   183  ALA183     -0.1245
    181  CA       -19.0830   10.1470  -10.2210 C.3   183  ALA183      0.1562
    182  C        -18.0910   10.9760   -9.4170 C.2   183  ALA183      0.2260
    183  O        -17.4120   10.4540   -8.5410 O.2   183  ALA183     -0.2867
    184  CB       -18.4330    9.6110  -11.5150 C.3   183  ALA183      0.0290
    185  N        -18.7580   11.0040   -5.8840 N.3   186  LEU186     -0.1245
    186  CA       -18.2880    9.7290   -5.3360 C.3   186  LEU186      0.1561
    187  C        -16.7630    9.6360   -5.2730 C.2   186  LEU186      0.2260
    188  O        -16.2080    8.5760   -4.9600 O.2   186  LEU186     -0.2867
    189  CB       -18.8610    8.5600   -6.1520 C.3   186  LEU186      0.0270
    190  CG       -20.1960    7.9570   -5.6960 C.3   186  LEU186      0.0019
    191  CD1      -21.3210    8.9800   -5.6630 C.3   186  LEU186      0.0001
    192  CD2      -20.5820    6.8180   -6.6380 C.3   186  LEU186      0.0001
    193  N        -14.6370    9.9250   -7.7820 N.3   188  MET188     -0.1245
    194  CA       -14.0670    9.2800   -8.9520 C.3   188  MET188      0.1570
    195  C        -13.7130   10.3270  -10.0140 C.2   188  MET188      0.2261
    196  O        -14.5280   11.1820  -10.3310 O.2   188  MET188     -0.2867
    197  CB       -15.0840    8.2860   -9.5190 C.3   188  MET188      0.0387
    198  CG       -15.4320    7.1600   -8.5320 C.3   188  MET188      0.0595
    199  SD       -16.8600    6.1880   -9.0790 S.3   188  MET188     -0.1393
    200  CE       -16.1490    5.4260  -10.5030 C.3   188  MET188      0.0692
    201  N        -11.7530    7.2140  -15.4020 N.3   193  LEU193     -0.1245
    202  CA       -12.8190    6.4260  -16.0240 C.3   193  LEU193      0.1561
    203  C        -12.5880    6.2830  -17.5250 C.2   193  LEU193      0.2260
    204  O        -12.6920    5.1870  -18.0790 O.2   193  LEU193     -0.2867
    205  CB       -14.1830    7.0700  -15.7640 C.3   193  LEU193      0.0270
    206  CG       -14.7800    6.9580  -14.3600 C.3   193  LEU193      0.0019
    207  CD1      -16.0720    7.7760  -14.2410 C.3   193  LEU193      0.0001
    208  CD2      -15.0620    5.5040  -14.0330 C.3   193  LEU193      0.0001
@<TRIPOS>BOND
     1    93    94    1
     2    94    97    1
     3    94    95    1
     4    97    98    1
     5    95    96    2
     6    85    84    2
     7   102   103    1
     8    98    99    1
     9   109   107    1
    10   107   106    1
    11    84    83    1
    12   100    99    2
    13    99   101   am
    14   103   106    1
    15   103   104    1
    16   106   108    1
    17    83    86    1
    18    83    82    1
    19   110   104   am
    20   110   111    1
    21   104   105    2
    22   115   114    1
    23   115   116    1
    24   114   111    1
    25    86    87    1
    26    60    59    2
    27    88    87   ar
    28    88    90   ar
    29   111   112    1
    30   119   120    1
    31   123   124    1
    32   123   120    1
    33   112   113    2
    34   126   124   ar
    35   126   128   ar
    36   118   116   ar
    37    87    89   ar
    38   116   117   ar
    39    90    92   ar
    40   124   125   ar
    41   120   121    1
    42    58    59    1
    43    58    57    1
    44    58    61    1
    45   128   129   ar
    46   125   127   ar
    47   129   127   ar
    48    89    91   ar
    49   204   203    2
    50   167   166    2
    51    92    91   ar
    52   121   130   am
    53   121   122    2
    54   203   202    1
    55   130   131    1
    56    70    68   ar
    57    47    46    2
    58   166   165    1
    59   173   174    1
    60    67    68    1
    61    67    66    1
    62    68    69   ar
    63    45    46    1
    64    45    44    1
    65   134   131    1
    66    46    48   am
    67   131   132    1
    68   202   205    1
    69   202   201    1
    70   165   168    1
    71   165   164    1
    72   205   206    1
    73    51    50    2
    74   168   169    1
    75   172   170   ar
    76   132   133    2
    77   177   178    1
    78   177   174    1
    79   177   179    1
    80    66    63    1
    81   174   175    1
    82    50    49    1
    83    48    49    1
    84    35    33    1
    85   170   169    1
    86   170   171   ar
    87    49    52    1
    88   135   136    1
    89   175   176    2
    90    36    34    1
    91   206   207    1
    92   206   208    1
    93    32    31    2
    94    34    33    1
    95    63    62    1
    96    63    64    1
    97   139   136    1
    98    33    30    1
    99    55    54   ar
   100   136   137    1
   101    30    31    1
   102    30    29    1
   103    31    37   am
   104    52    53    1
   105    54    56   ar
   106    54    53    1
   107    64    65    2
   108    40    39    2
   109   151   150    1
   110   149   150   ar
   111   149   147   ar
   112    37    38    1
   113   150   148   ar
   114   137   140   am
   115   137   138    2
   116   140   141    1
   117    38    39    1
   118    38    41    1
   119   147   145   ar
   120   148   146   ar
   121   184   181    1
   122   145   146   ar
   123   145   144    1
   124    43    41    1
   125   144   141    1
   126    20    18    1
   127    41    42    1
   128   141   142    1
   129   180   181    1
   130   200   199    1
   131    16    15    2
   132   142   143    2
   133   196   195    2
   134   181   182    1
   135   195   194    1
   136    14    15    1
   137    14    13    1
   138    14    17    1
   139    18    17    1
   140    15    21   am
   141   197   194    1
   142   197   198    1
   143    80    78   ar
   144    80    81   ar
   145   182   183    2
   146    19    17    1
   147    24    23    2
   148   199   198    1
   149    78    76   ar
   150   194   193    1
   151    23    22    1
   152   152   153    1
   153    81    79   ar
   154    21    22    1
   155    22    25    1
   156    76    75    1
   157    76    77   ar
   158   156   153    1
   159   156   157    1
   160   153   154    1
   161    79    77   ar
   162    75    72    1
   163   157   159   ar
   164   157   158   ar
   165   192   190    1
   166    25    26    1
   167   154   155    2
   168   159   161   ar
   169     4     3    2
   170   189   190    1
   171   189   186    1
   172    72    71    1
   173    72    73    1
   174    28    26   am
   175   158   160   ar
   176    26    27    2
   177   185   186    1
   178   190   191    1
   179     3     2    1
   180    73    74    2
   181   186   187    1
   182   161   162   ar
   183   187   188    2
   184     1     2    1
   185     2     5    1
   186   160   162   ar
   187   162   163    1
   188     9     7   ar
   189     9    11   ar
   190     7     6   ar
   191     5     6    1
   192     6     8   ar
   193    11    12    1
   194    11    10   ar
   195     8    10   ar
