@<TRIPOS>MOLECULE
tmp/4kvrA00.pdb
 126 120 0 0 0
SMALL
GASTEIGER

@<TRIPOS>ATOM
      1  N        -27.5780   -3.9110  -17.5160 N.3    20  ILE20      -0.1231
      2  CA       -26.9440   -3.5280  -16.2610 C.3    20  ILE20       0.1692
      3  C        -26.2700   -2.1480  -16.3880 C.2    20  ILE20       0.2592
      4  O        -26.4370   -1.2980  -15.5130 O.2    20  ILE20      -0.2718
      5  CB       -25.9960   -4.6260  -15.7690 C.3    20  ILE20       0.0266
      6  CG1      -26.8300   -5.7970  -15.2310 C.3    20  ILE20       0.0019
      7  CG2      -25.0300   -4.0810  -14.6930 C.3    20  ILE20       0.0020
      8  CD1      -26.0270   -7.0760  -15.0350 C.3    20  ILE20       0.0001
      9  N        -25.5540   -1.9190  -17.4880 N.am   21  TYR21      -0.1976
     10  CA       -24.9560   -0.6060  -17.7420 C.3    21  TYR21       0.1639
     11  C        -26.0350    0.4790  -17.7040 C.2    21  TYR21       0.2290
     12  O        -25.9270    1.4610  -16.9740 O.2    21  TYR21      -0.2864
     13  CB       -24.2660   -0.5680  -19.1010 C.3    21  TYR21       0.0560
     14  CG       -23.0790   -1.4950  -19.2810 C.ar   21  TYR21      -0.0198
     15  CD1      -22.4870   -2.1490  -18.2020 C.ar   21  TYR21      -0.0009
     16  CD2      -22.5510   -1.7130  -20.5440 C.ar   21  TYR21      -0.0009
     17  CE1      -21.3980   -2.9940  -18.3920 C.ar   21  TYR21       0.0417
     18  CE2      -21.4720   -2.5390  -20.7420 C.ar   21  TYR21       0.0417
     19  CZ       -20.8990   -3.1820  -19.6710 C.ar   21  TYR21       0.1957
     20  OH       -19.8200   -4.0020  -19.9080 O.3    21  TYR21      -0.2866
     21  N        -27.6430    0.9440  -14.3140 N.3    24  GLY24      -0.1210
     22  CA       -26.6440    1.4730  -13.4000 C.3    24  GLY24       0.1956
     23  C        -26.5220    2.9770  -13.5570 C.2    24  GLY24       0.2611
     24  O        -26.4700    3.7080  -12.5780 O.2    24  GLY24      -0.2717
     25  N        -26.4890    3.4340  -14.8030 N.am   25  GLU25      -0.1979
     26  CA       -26.4240    4.8670  -15.0830 C.3    25  GLU25       0.1602
     27  C        -27.6770    5.5680  -14.5840 C.2    25  GLU25       0.2287
     28  O        -27.5950    6.6220  -13.9590 O.2    25  GLU25      -0.2864
     29  CB       -26.2280    5.1300  -16.5830 C.3    25  GLU25       0.0415
     30  CG       -25.0000    4.4930  -17.2070 C.3    25  GLU25       0.1163
     31  CD       -23.6980    4.9650  -16.5910 C.2    25  GLU25       0.3649
     32  OE1      -23.6930    6.0290  -15.9370 O.co2  25  GLU25      -0.2457
     33  OE2      -22.6850    4.2660  -16.7760 O.co2  25  GLU25      -0.2457
     34  N        -27.5920    5.7980  -10.7620 N.3    28  ALA28      -0.1245
     35  CA       -26.5810    6.7860  -10.3990 C.3    28  ALA28       0.1562
     36  C        -27.1670    8.1950  -10.4880 C.2    28  ALA28       0.2260
     37  O        -27.0360    8.9990   -9.5560 O.2    28  ALA28      -0.2867
     38  CB       -25.3460    6.6400  -11.2940 C.3    28  ALA28       0.0290
     39  N        -24.6270   11.2790  -15.8010 N.3    53  GLU53      -0.1245
     40  CA       -25.1000    9.8990  -15.7490 C.3    53  GLU53       0.1567
     41  C        -26.1620    9.6470  -16.8080 C.2    53  GLU53       0.2260
     42  O        -26.2410    8.5630  -17.3750 O.2    53  GLU53      -0.2867
     43  CB       -25.6520    9.5490  -14.3650 C.3    53  GLU53       0.0388
     44  CG       -24.6540    9.7410  -13.2030 C.3    53  GLU53       0.1160
     45  CD       -23.4580    8.7820  -13.2160 C.2    53  GLU53       0.3649
     46  OE1      -23.1360    8.1910  -14.2590 O.co2  53  GLU53      -0.2457
     47  OE2      -22.8240    8.6190  -12.1460 O.co2  53  GLU53      -0.2457
     48  N        -29.6680   -4.8810   -9.3040 N.3    80  PHE80      -0.1241
     49  CA       -29.3400   -3.7210   -8.4780 C.3    80  PHE80       0.1605
     50  C        -30.1890   -3.6200   -7.2140 C.2    80  PHE80       0.2264
     51  O        -29.9240   -2.7870   -6.3480 O.2    80  PHE80      -0.2867
     52  CB       -29.4490   -2.4150   -9.2830 C.3    80  PHE80       0.0534
     53  CG       -28.2460   -2.1340  -10.1380 C.ar   80  PHE80      -0.0203
     54  CD1      -27.0590   -1.7150   -9.5640 C.ar   80  PHE80      -0.0042
     55  CD2      -28.2950   -2.3090  -11.5010 C.ar   80  PHE80      -0.0042
     56  CE1      -25.9380   -1.4660  -10.3460 C.ar   80  PHE80      -0.0003
     57  CE2      -27.1730   -2.0580  -12.2960 C.ar   80  PHE80      -0.0003
     58  CZ       -26.0000   -1.6380  -11.7160 C.ar   80  PHE80      -0.0000
     59  N        -22.9220    4.8730   -3.4440 N.3   103  GLN103     -0.1245
     60  CA       -22.9550    5.3930   -4.8330 C.3   103  GLN103      0.1566
     61  C        -21.6140    5.8780   -5.3560 C.2   103  GLN103      0.2260
     62  O        -21.1180    5.3790   -6.3740 O.2   103  GLN103     -0.2867
     63  CB       -23.9910    6.5110   -4.9980 C.3   103  GLN103      0.0367
     64  CG       -23.9250    7.1850   -6.4000 C.3   103  GLN103      0.0905
     65  CD       -24.1720    6.2020   -7.5380 C.2   103  GLN103      0.2608
     66  OE1      -25.1200    5.4100   -7.4930 O.2   103  GLN103     -0.2717
     67  NE2      -23.3160    6.2440   -8.5660 N.am  103  GLN103     -0.0878
     68  N        -20.4110    1.7730   -6.1990 N.3   107  ILE107     -0.1231
     69  CA       -21.0040    1.6930   -7.5370 C.3   107  ILE107      0.1692
     70  C        -20.1050    2.3180   -8.6150 C.2   107  ILE107      0.2591
     71  O        -19.9680    1.7640   -9.6990 O.2   107  ILE107     -0.2718
     72  CB       -22.4260    2.2710   -7.5480 C.3   107  ILE107      0.0266
     73  CG1      -23.3780    1.2850   -6.8770 C.3   107  ILE107      0.0019
     74  CG2      -22.9170    2.4990   -8.9650 C.3   107  ILE107      0.0020
     75  CD1      -24.7290    1.8550   -6.5800 C.3   107  ILE107      0.0001
     76  N        -19.4710    3.4500   -8.3190 N.am  108  GLU108     -0.1979
     77  CA       -18.5390    4.0290   -9.2880 C.3   108  GLU108      0.1602
     78  C        -17.3400    3.1230   -9.5340 C.2   108  GLU108      0.2287
     79  O        -16.9160    2.9640  -10.6720 O.2   108  GLU108     -0.2864
     80  CB       -18.0620    5.4280   -8.8830 C.3   108  GLU108      0.0415
     81  CG       -19.1660    6.4440   -8.7290 C.3   108  GLU108      0.1163
     82  CD       -19.8180    6.8730  -10.0580 C.2   108  GLU108      0.3649
     83  OE1      -19.3030    6.5560  -11.1560 O.co2 108  GLU108     -0.2457
     84  OE2      -20.8540    7.5660   -9.9950 O.co2 108  GLU108     -0.2457
     85  N        -17.3600   -0.1080   -9.2190 N.3   110  PHE110     -0.1227
     86  CA       -17.8680   -1.2680   -9.9460 C.3   110  PHE110      0.1736
     87  C        -17.9740   -0.8920  -11.4270 C.2   110  PHE110      0.2595
     88  O        -17.6210   -1.6750  -12.3180 O.2   110  PHE110     -0.2718
     89  CB       -19.2310   -1.6730   -9.3960 C.3   110  PHE110      0.0547
     90  CG       -19.8560   -2.8250  -10.1220 C.ar  110  PHE110     -0.0202
     91  CD1      -19.4530   -4.1280   -9.8630 C.ar  110  PHE110     -0.0042
     92  CD2      -20.8480   -2.6060  -11.0730 C.ar  110  PHE110     -0.0042
     93  CE1      -20.0300   -5.2010  -10.5420 C.ar  110  PHE110     -0.0003
     94  CE2      -21.4290   -3.6720  -11.7600 C.ar  110  PHE110     -0.0003
     95  CZ       -21.0200   -4.9700  -11.4900 C.ar  110  PHE110     -0.0000
     96  N        -18.4310    0.3330  -11.6640 N.am  111  ALA111     -0.1980
     97  CA       -18.5980    0.8480  -13.0250 C.3   111  ALA111      0.1597
     98  C        -17.2620    0.9490  -13.7390 C.2   111  ALA111      0.2287
     99  O        -17.0970    0.4540  -14.8500 O.2   111  ALA111     -0.2864
    100  CB       -19.2660    2.2030  -12.9860 C.3   111  ALA111      0.0319
    101  N        -15.9270   -2.4890  -14.6170 N.3   114  ALA114     -0.1231
    102  CA       -16.6810   -3.0850  -15.7180 C.3   114  ALA114      0.1694
    103  C        -16.3030   -2.4190  -17.0310 C.2   114  ALA114      0.2592
    104  O        -16.0190   -3.0900  -18.0290 O.2   114  ALA114     -0.2718
    105  CB       -18.1640   -2.9240  -15.4770 C.3   114  ALA114      0.0304
    106  N        -16.2990   -1.0920  -17.0280 N.am  115  TYR115     -0.1976
    107  CA       -16.0450   -0.3430  -18.2670 C.3   115  TYR115      0.1639
    108  C        -14.5950   -0.4830  -18.7400 C.2   115  TYR115      0.2290
    109  O        -14.3490   -0.7190  -19.9200 O.2   115  TYR115     -0.2864
    110  CB       -16.4700    1.1250  -18.1130 C.3   115  TYR115      0.0560
    111  CG       -17.9590    1.2930  -17.8760 C.ar  115  TYR115     -0.0198
    112  CD1      -18.8580    0.4100  -18.4380 C.ar  115  TYR115     -0.0009
    113  CD2      -18.4610    2.3290  -17.1030 C.ar  115  TYR115     -0.0009
    114  CE1      -20.2130    0.5430  -18.2420 C.ar  115  TYR115      0.0417
    115  CE2      -19.8360    2.4660  -16.8890 C.ar  115  TYR115      0.0417
    116  CZ       -20.7000    1.5620  -17.4730 C.ar  115  TYR115      0.1957
    117  OH       -22.0660    1.6580  -17.3080 O.3   115  TYR115     -0.2866
    118  N        -16.1220    8.6910  -14.7480 N.3   137  GLU137     -0.1245
    119  CA       -16.5010    8.1260  -13.4580 C.3   137  GLU137      0.1567
    120  C        -15.4160    8.3840  -12.3890 C.2   137  GLU137      0.2260
    121  O        -15.6950    8.3380  -11.1950 O.2   137  GLU137     -0.2867
    122  CB       -16.9760    6.6610  -13.5790 C.3   137  GLU137      0.0388
    123  CG       -17.8380    6.3470  -14.8560 C.3   137  GLU137      0.1160
    124  CD       -19.3800    6.6340  -14.7900 C.2   137  GLU137      0.3649
    125  OE1      -19.8920    7.4860  -14.0150 O.co2 137  GLU137     -0.2457
    126  OE2      -20.1180    5.9830  -15.5770 O.co2 137  GLU137     -0.2457
@<TRIPOS>BOND
     1    18    16   ar
     2    18    19   ar
     3    16    14   ar
     4   109   108    2
     5    20    19    1
     6    19    17   ar
     7    14    13    1
     8    14    15   ar
     9    13    10    1
    10   108   107    1
    11   112   114   ar
    12   112   111   ar
    13    17    15   ar
    14   107   110    1
    15   107   106    1
    16   114   116   ar
    17   110   111    1
    18   104   103    2
    19   111   113   ar
    20    10    11    1
    21    10     9    1
    22    11    12    2
    23     1     2    1
    24     9     3   am
    25   116   117    1
    26   116   115   ar
    27    42    41    2
    28    30    31    1
    29    30    29    1
    30   113   115   ar
    31   103   106   am
    32   103   102    1
    33    41    40    1
    34    33    31   ar
    35    31    32   ar
    36    29    26    1
    37     3     2    1
    38     3     4    2
    39     2     5    1
    40    39    40    1
    41     5     6    1
    42     5     7    1
    43    40    43    1
    44   102   105    1
    45   102   101    1
    46   126   124   ar
    47     6     8    1
    48    26    25    1
    49    26    27    1
    50   123   124    1
    51   123   122    1
    52    99    98    2
    53    25    23   am
    54   124   125   ar
    55   118   119    1
    56    27    28    2
    57    43    44    1
    58    21    22    1
    59    46    45   ar
    60    98    97    1
    61   122   119    1
    62    23    22    1
    63    23    24    2
    64   119   120    1
    65    45    44    1
    66    45    47   ar
    67    97   100    1
    68    97    96    1
    69   120   121    2
    70    88    87    2
    71    57    58   ar
    72    57    55   ar
    73    94    95   ar
    74    94    92   ar
    75    58    56   ar
    76    96    87   am
    77    55    53   ar
    78    95    93   ar
    79    87    86    1
    80    38    35    1
    81    83    82   ar
    82    92    90   ar
    83    34    35    1
    84    79    78    2
    85    93    91   ar
    86    36    35    1
    87    36    37    2
    88    56    54   ar
    89    53    54   ar
    90    53    52    1
    91    90    91   ar
    92    90    89    1
    93    82    84   ar
    94    82    81    1
    95    86    89    1
    96    86    85    1
    97    71    70    2
    98    78    77    1
    99    48    49    1
   100    77    80    1
   101    77    76    1
   102    52    49    1
   103    74    72    1
   104    80    81    1
   105    70    76   am
   106    70    69    1
   107    67    65   am
   108    49    50    1
   109    72    69    1
   110    72    73    1
   111    65    66    2
   112    65    64    1
   113    69    68    1
   114    50    51    2
   115    73    75    1
   116    64    63    1
   117    62    61    2
   118    61    60    1
   119    63    60    1
   120    60    59    1
