@<TRIPOS>MOLECULE
tmp/4kvwC01.pdb
 172 164 0 0 0
SMALL
GASTEIGER

@<TRIPOS>ATOM
      1  N         60.2530  -61.0800   55.5920 N.3    50  VAL50      -0.1245
      2  CA        61.2510  -62.1470   55.5670 C.3    50  VAL50       0.1561
      3  C         61.4670  -62.7280   56.9660 C.2    50  VAL50       0.2260
      4  O         61.7290  -63.9210   57.1190 O.2    50  VAL50      -0.2867
      5  CB        62.5960  -61.6780   54.9490 C.3    50  VAL50       0.0252
      6  CG1       63.2140  -60.5530   55.7600 C.3    50  VAL50       0.0019
      7  CG2       63.5670  -62.8460   54.8100 C.3    50  VAL50       0.0019
      8  N         60.9340  -66.4280   58.0670 N.3    54  TYR54      -0.1241
      9  CA        62.0170  -67.1320   58.7450 C.3    54  TYR54       0.1605
     10  C         61.5310  -67.8240   60.0120 C.2    54  TYR54       0.2264
     11  O         61.9040  -68.9660   60.2850 O.2    54  TYR54      -0.2867
     12  CB        63.1510  -66.1650   59.0890 C.3    54  TYR54       0.0534
     13  CG        64.3440  -66.2600   58.1670 C.ar   54  TYR54      -0.0201
     14  CD1       65.4710  -66.9830   58.5330 C.ar   54  TYR54      -0.0009
     15  CD2       64.3440  -65.6270   56.9300 C.ar   54  TYR54      -0.0009
     16  CE1       66.5660  -67.0720   57.6940 C.ar   54  TYR54       0.0417
     17  CE2       65.4340  -65.7110   56.0850 C.ar   54  TYR54       0.0417
     18  CZ        66.5410  -66.4350   56.4720 C.ar   54  TYR54       0.1957
     19  OH        67.6290  -66.5210   55.6330 O.3    54  TYR54      -0.2866
     20  N         66.4550  -57.8800   62.7820 N.3    70  LEU70      -0.1245
     21  CA        66.8510  -58.1540   61.4060 C.3    70  LEU70       0.1561
     22  C         66.7670  -56.8980   60.5420 C.2    70  LEU70       0.2260
     23  O         67.5790  -56.7040   59.6390 O.2    70  LEU70      -0.2867
     24  CB        66.0020  -59.2790   60.8040 C.3    70  LEU70       0.0270
     25  CG        66.1260  -60.6480   61.4770 C.3    70  LEU70       0.0019
     26  CD1       65.4370  -61.7240   60.6490 C.3    70  LEU70       0.0001
     27  CD2       67.5850  -61.0060   61.7220 C.3    70  LEU70       0.0001
     28  N         69.7700  -54.6400   61.2310 N.3    73  LEU73      -0.1231
     29  CA        70.9710  -55.2900   60.7180 C.3    73  LEU73       0.1693
     30  C         71.0140  -55.2210   59.1950 C.2    73  LEU73       0.2592
     31  O         72.0860  -55.1000   58.6040 O.2    73  LEU73      -0.2718
     32  CB        71.0580  -56.7410   61.1950 C.3    73  LEU73       0.0284
     33  CG        71.3710  -56.9460   62.6790 C.3    73  LEU73       0.0019
     34  CD1       71.5580  -58.4240   62.9840 C.3    73  LEU73       0.0001
     35  CD2       72.5960  -56.1410   63.1000 C.3    73  LEU73       0.0001
     36  N         69.8430  -55.3030   58.5680 N.am   74  PHE74      -0.1976
     37  CA        69.7290  -55.1190   57.1250 C.3    74  PHE74       0.1639
     38  C         70.2200  -53.7260   56.7440 C.2    74  PHE74       0.2290
     39  O         71.0020  -53.5620   55.8070 O.2    74  PHE74      -0.2864
     40  CB        68.2750  -55.2840   56.6720 C.3    74  PHE74       0.0560
     41  CG        67.9590  -56.6340   56.0770 C.ar   74  PHE74      -0.0200
     42  CD1       67.0850  -57.5000   56.7150 C.ar   74  PHE74      -0.0042
     43  CD2       68.5160  -57.0250   54.8700 C.ar   74  PHE74      -0.0042
     44  CE1       66.7810  -58.7340   56.1680 C.ar   74  PHE74      -0.0003
     45  CE2       68.2150  -58.2590   54.3170 C.ar   74  PHE74      -0.0003
     46  CZ        67.3470  -59.1140   54.9680 C.ar   74  PHE74      -0.0000
     47  N         73.9460  -53.4050   57.2290 N.3    77  ASP77      -0.1239
     48  CA        74.5990  -54.1940   56.1880 C.3    77  ASP77       0.1674
     49  C         74.7920  -53.3940   54.8950 C.2    77  ASP77       0.2266
     50  O         75.8220  -53.5170   54.2300 O.2    77  ASP77      -0.2867
     51  CB        73.8060  -55.4800   55.9240 C.3    77  ASP77       0.1410
     52  CG        74.4500  -56.3630   54.8710 C.2    77  ASP77       0.3668
     53  OD1       75.3880  -57.1150   55.2120 O.co2  77  ASP77      -0.2456
     54  OD2       74.0090  -56.3150   53.7050 O.co2  77  ASP77      -0.2456
     55  N         78.8510  -62.4470   63.7360 N.3   140  PHE140     -0.1241
     56  CA        78.3890  -62.0650   62.4100 C.3   140  PHE140      0.1605
     57  C         78.8950  -60.6820   62.0070 C.2   140  PHE140      0.2264
     58  O         79.3350  -60.4830   60.8740 O.2   140  PHE140     -0.2867
     59  CB        76.8600  -62.1130   62.3600 C.3   140  PHE140      0.0534
     60  CG        76.2520  -61.1320   61.4020 C.ar  140  PHE140     -0.0203
     61  CD1       76.2310  -61.3930   60.0420 C.ar  140  PHE140     -0.0042
     62  CD2       75.6910  -59.9510   61.8650 C.ar  140  PHE140     -0.0042
     63  CE1       75.6670  -60.4890   59.1590 C.ar  140  PHE140     -0.0003
     64  CE2       75.1280  -59.0460   60.9880 C.ar  140  PHE140     -0.0003
     65  CZ        75.1150  -59.3150   59.6330 C.ar  140  PHE140     -0.0000
     66  N         81.3160  -67.8810   55.2260 N.3   162  ARG162     -0.1245
     67  CA        79.9820  -67.3330   54.9960 C.3   162  ARG162      0.1563
     68  C         78.9870  -67.7040   56.0960 C.2   162  ARG162      0.2260
     69  O         78.0260  -66.9750   56.3370 O.2   162  ARG162     -0.2867
     70  CB        79.4600  -67.7680   53.6250 C.3   162  ARG162      0.0307
     71  CG        78.1110  -67.1880   53.2360 C.3   162  ARG162      0.0489
     72  CD        78.1550  -65.6920   52.9600 C.3   162  ARG162      0.2205
     73  NE        76.9940  -65.2830   52.1710 N.pl3 162  ARG162     -0.0865
     74  CZ        76.1910  -64.2660   52.4700 C.cat 162  ARG162      0.5346
     75  NH1       75.1610  -63.9860   51.6830 N.pl3 162  ARG162      0.1354
     76  NH2       76.4170  -63.5260   53.5460 N.pl3 162  ARG162      0.1354
     77  N         79.1990  -64.7880   58.1280 N.3   165  ASP165     -0.1225
     78  CA        78.7220  -63.5970   57.4330 C.3   165  ASP165      0.1805
     79  C         77.2240  -63.6520   57.1220 C.2   165  ASP165      0.2598
     80  O         76.5660  -62.6130   57.0450 O.2   165  ASP165     -0.2718
     81  CB        79.5380  -63.3420   56.1600 C.3   165  ASP165      0.1424
     82  CG        79.1070  -62.0820   55.4320 C.2   165  ASP165      0.3668
     83  OD1       79.3910  -60.9720   55.9330 O.co2 165  ASP165     -0.2456
     84  OD2       78.4870  -62.2020   54.3560 O.co2 165  ASP165     -0.2456
     85  N         76.6850  -64.8580   56.9540 N.am  166  VAL166     -0.1966
     86  CA        75.2510  -65.0260   56.7170 C.3   166  VAL166      0.1727
     87  C         74.4860  -65.0050   58.0390 C.2   166  VAL166      0.2616
     88  O         73.2570  -64.9210   58.0580 O.2   166  VAL166     -0.2715
     89  CB        74.9350  -66.3370   55.9600 C.3   166  VAL166      0.0290
     90  CG1       74.8780  -67.5120   56.9270 C.3   166  VAL166      0.0023
     91  CG2       73.6200  -66.2160   55.2020 C.3   166  VAL166      0.0023
     92  N         75.2260  -65.0850   59.1410 N.am  167  GLY167     -0.1955
     93  CA        74.6430  -65.0320   60.4700 C.3   167  GLY167      0.1869
     94  C         73.7830  -66.2300   60.8260 C.2   167  GLY167      0.2309
     95  O         72.6920  -66.0710   61.3700 O.2   167  GLY167     -0.2863
     96  N         73.1860  -66.4810   64.7310 N.3   170  LEU170     -0.1231
     97  CA        72.2940  -65.4810   65.3030 C.3   170  LEU170      0.1693
     98  C         70.8470  -65.7740   64.9210 C.2   170  LEU170      0.2591
     99  O         69.9390  -65.5680   65.7230 O.2   170  LEU170     -0.2718
    100  CB        72.7120  -64.0560   64.9140 C.3   170  LEU170      0.0284
    101  CG        72.2820  -63.4410   63.5790 C.3   170  LEU170      0.0019
    102  CD1       70.9370  -62.7280   63.6930 C.3   170  LEU170      0.0001
    103  CD2       73.3480  -62.4830   63.0830 C.3   170  LEU170      0.0001
    104  N         70.6390  -66.2670   63.7030 N.am  171  LEU171     -0.1980
    105  CA        69.3000  -66.6220   63.2470 C.3   171  LEU171      0.1596
    106  C         68.7600  -67.8150   64.0210 C.2   171  LEU171      0.2287
    107  O         67.5570  -67.9260   64.2460 O.2   171  LEU171     -0.2864
    108  CB        69.2980  -66.9340   61.7520 C.3   171  LEU171      0.0297
    109  CG        69.5500  -65.7540   60.8170 C.3   171  LEU171      0.0022
    110  CD1       69.6740  -66.2460   59.3870 C.3   171  LEU171      0.0001
    111  CD2       68.4410  -64.7200   60.9410 C.3   171  LEU171      0.0001
    112  N         71.1250  -71.4540   53.2550 N.3   202  LEU202     -0.1245
    113  CA        70.7800  -70.0440   53.4220 C.3   202  LEU202      0.1561
    114  C         71.7820  -69.1390   52.7130 C.2   202  LEU202      0.2260
    115  O         71.4090  -68.1340   52.1100 O.2   202  LEU202     -0.2867
    116  CB        70.7240  -69.6780   54.9070 C.3   202  LEU202      0.0270
    117  CG        69.6800  -70.4040   55.7550 C.3   202  LEU202      0.0019
    118  CD1       69.9080  -70.1330   57.2340 C.3   202  LEU202      0.0001
    119  CD2       68.2750  -69.9920   55.3420 C.3   202  LEU202      0.0001
    120  N         70.8290  -67.0240   49.1120 N.3   206  ASN206     -0.1240
    121  CA        70.9900  -65.5780   49.1390 C.3   206  ASN206      0.1653
    122  C         71.9500  -65.1030   48.0560 C.2   206  ASN206      0.2266
    123  O         71.6670  -64.1340   47.3530 O.2   206  ASN206     -0.2867
    124  CB        71.4800  -65.1050   50.5050 C.3   206  ASN206      0.1155
    125  CG        71.7370  -63.6120   50.5410 C.2   206  ASN206      0.2627
    126  OD1       72.8420  -63.1530   50.2550 O.2   206  ASN206     -0.2716
    127  ND2       70.7090  -62.8440   50.8810 N.am  206  ASN206     -0.0877
    128  N         63.5160  -68.1660   53.3460 N.3   292  ASN292     -0.1240
    129  CA        64.5900  -67.3740   52.7570 C.3   292  ASN292      0.1653
    130  C         64.5060  -67.3690   51.2380 C.2   292  ASN292      0.2266
    131  O         64.7610  -66.3530   50.5930 O.2   292  ASN292     -0.2867
    132  CB        65.9520  -67.9200   53.1900 C.3   292  ASN292      0.1155
    133  CG        67.1100  -67.1070   52.6470 C.2   292  ASN292      0.2627
    134  OD1       67.1130  -65.8790   52.7250 O.2   292  ASN292     -0.2716
    135  ND2       68.1010  -67.7910   52.0880 N.am  292  ASN292     -0.0877
    136  N         61.1480  -65.4380   49.9710 N.3   295  TRP295     -0.1241
    137  CA        61.3490  -63.9990   50.0690 C.3   295  TRP295      0.1605
    138  C         62.3390  -63.4910   49.0260 C.2   295  TRP295      0.2264
    139  O         62.1040  -62.4660   48.3900 O.2   295  TRP295     -0.2867
    140  CB        61.8150  -63.6080   51.4710 C.3   295  TRP295      0.0550
    141  CG        62.0300  -62.1350   51.6310 C.ar  295  TRP295      0.0003
    142  CD1       61.0710  -61.1810   51.8130 C.ar  295  TRP295      0.0946
    143  CD2       63.2870  -61.4450   51.6270 C.ar  295  TRP295      0.0152
    144  NE1       61.6530  -59.9400   51.9210 N.ar  295  TRP295     -0.2442
    145  CE2       63.0110  -60.0750   51.8120 C.ar  295  TRP295      0.0810
    146  CE3       64.6160  -61.8530   51.4900 C.ar  295  TRP295      0.0012
    147  CZ2       64.0160  -59.1120   51.8590 C.ar  295  TRP295      0.0191
    148  CZ3       65.6120  -60.8940   51.5370 C.ar  295  TRP295      0.0001
    149  CH2       65.3060  -59.5400   51.7200 C.ar  295  TRP295      0.0015
    150  N         64.1620  -55.9650   46.8040 N.3   301  ARG301     -0.1231
    151  CA        65.5480  -55.7280   47.1920 C.3   301  ARG301      0.1694
    152  C         66.5240  -56.3560   46.1970 C.2   301  ARG301      0.2592
    153  O         67.6070  -55.8220   45.9550 O.2   301  ARG301     -0.2718
    154  CB        65.7970  -56.2770   48.5990 C.3   301  ARG301      0.0321
    155  CG        67.2390  -56.1880   49.0700 C.3   301  ARG301      0.0489
    156  CD        67.3870  -56.7180   50.4860 C.3   301  ARG301      0.2205
    157  NE        68.7830  -56.7530   50.9100 N.pl3 301  ARG301     -0.0865
    158  CZ        69.4350  -55.7160   51.4250 C.cat 301  ARG301      0.5346
    159  NH1       68.8190  -54.5510   51.5810 N.pl3 301  ARG301      0.1354
    160  NH2       70.7050  -55.8410   51.7830 N.pl3 301  ARG301      0.1354
    161  N         66.1250  -57.4810   45.6080 N.am  302  TYR302     -0.1976
    162  CA        66.9900  -58.2180   44.6910 C.3   302  TYR302      0.1639
    163  C         66.5570  -58.0810   43.2330 C.2   302  TYR302      0.2290
    164  O         67.3750  -58.2120   42.3230 O.2   302  TYR302     -0.2864
    165  CB        67.0460  -59.6980   45.0840 C.3   302  TYR302      0.0560
    166  CG        67.5310  -59.9440   46.4970 C.ar  302  TYR302     -0.0198
    167  CD1       68.4440  -59.0880   47.0990 C.ar  302  TYR302     -0.0009
    168  CD2       67.0700  -61.0300   47.2300 C.ar  302  TYR302     -0.0009
    169  CE1       68.8850  -59.3060   48.3910 C.ar  302  TYR302      0.0417
    170  CE2       67.5050  -61.2570   48.5220 C.ar  302  TYR302      0.0417
    171  CZ        68.4120  -60.3920   49.0980 C.ar  302  TYR302      0.1957
    172  OH        68.8490  -60.6150   50.3840 O.3   302  TYR302     -0.2866
@<TRIPOS>BOND
     1   164   163    2
     2   163   162    1
     3   162   165    1
     4   162   161    1
     5   165   166    1
     6   161   152   am
     7   153   152    2
     8   152   151    1
     9   166   167   ar
    10   166   168   ar
    11   150   151    1
    12   167   169   ar
    13   151   154    1
    14   168   170   ar
    15   123   122    2
    16   122   121    1
    17   139   138    2
    18   169   171   ar
    19   170   171   ar
    20   154   155    1
    21   138   137    1
    22   155   156    1
    23   171   172    1
    24   120   121    1
    25   121   124    1
    26   136   137    1
    27   137   140    1
    28   126   125    2
    29   156   157    1
    30   124   125    1
    31   125   127   am
    32   131   130    2
    33   157   158    2
    34   130   129    1
    35   158   159    1
    36   158   160    1
    37   140   141    1
    38   146   148   ar
    39   146   143   ar
    40   148   149   ar
    41   143   141   ar
    42   143   145   ar
    43   141   142   ar
    44    75    74    1
    45   149   147   ar
    46   145   147   ar
    47   145   144   ar
    48   142   144   ar
    49   135   133   am
    50   115   114    2
    51    73    74    2
    52    73    72    1
    53    74    76    1
    54   133   134    2
    55   133   132    1
    56   114   113    1
    57   129   132    1
    58   129   128    1
    59    72    71    1
    60    71    70    1
    61   112   113    1
    62   113   116    1
    63    70    67    1
    64    54    52   ar
    65    50    49    2
    66    45    43   ar
    67    45    46   ar
    68    84    82   ar
    69     7     5    1
    70    43    41   ar
    71    52    53   ar
    72    52    51    1
    73    49    48    1
    74   116   117    1
    75     5     2    1
    76     5     6    1
    77    46    44   ar
    78    67    66    1
    79    67    68    1
    80    91    89    1
    81   119   117    1
    82    82    83   ar
    83    82    81    1
    84     2     1    1
    85     2     3    1
    86    19    18    1
    87   117   118    1
    88    39    38    2
    89    51    48    1
    90    89    86    1
    91    89    90    1
    92    41    40    1
    93    41    42   ar
    94    17    18   ar
    95    17    15   ar
    96    68    69    2
    97    81    78    1
    98    44    42   ar
    99    48    47    1
   100    18    16   ar
   101    40    37    1
   102    86    85    1
   103    86    87    1
   104    38    37    1
   105    15    13   ar
   106    85    79   am
   107     3     4    2
   108    80    79    2
   109    79    78    1
   110    37    36    1
   111    78    77    1
   112    16    14   ar
   113    87    88    2
   114    87    92   am
   115     8     9    1
   116    13    14   ar
   117    13    12    1
   118    36    30   am
   119    31    30    2
   120     9    12    1
   121     9    10    1
   122    92    93    1
   123    63    65   ar
   124    63    61   ar
   125    30    29    1
   126   110   109    1
   127    65    64   ar
   128    23    22    2
   129    10    11    2
   130    61    60   ar
   131    93    94    1
   132    22    21    1
   133    26    25    1
   134    29    32    1
   135    29    28    1
   136    24    21    1
   137    24    25    1
   138   109   111    1
   139   109   108    1
   140    94    95    2
   141    58    57    2
   142    64    62   ar
   143    32    33    1
   144    60    62   ar
   145    60    59    1
   146    21    20    1
   147    25    27    1
   148   108   105    1
   149    57    56    1
   150    59    56    1
   151    56    55    1
   152    33    34    1
   153    33    35    1
   154   103   101    1
   155   105   104    1
   156   105   106    1
   157   101   102    1
   158   101   100    1
   159   104    98   am
   160   106   107    2
   161    96    97    1
   162   100    97    1
   163    98    97    1
   164    98    99    2
