@<TRIPOS>MOLECULE
tmp/4kw5A01.pdb
 171 165 0 0 0
SMALL
GASTEIGER

@<TRIPOS>ATOM
      1  N          7.9800  -11.6310   44.9710 N.3    54  TYR54      -0.1241
      2  CA         8.1370  -12.2480   46.3070 C.3    54  TYR54       0.1605
      3  C          8.1990  -11.2100   47.4180 C.2    54  TYR54       0.2264
      4  O          7.7260  -11.4470   48.5290 O.2    54  TYR54      -0.2867
      5  CB         9.3970  -13.1100   46.3810 C.3    54  TYR54       0.0534
      6  CG         9.3000  -14.4050   45.6090 C.ar   54  TYR54      -0.0201
      7  CD1        9.2130  -15.6260   46.2660 C.ar   54  TYR54      -0.0009
      8  CD2        9.2980  -14.4090   44.2170 C.ar   54  TYR54      -0.0009
      9  CE1        9.1250  -16.8180   45.5550 C.ar   54  TYR54       0.0417
     10  CE2        9.2120  -15.5920   43.5000 C.ar   54  TYR54       0.0417
     11  CZ         9.1210  -16.7920   44.1690 C.ar   54  TYR54       0.1957
     12  OH         9.0300  -17.9600   43.4420 O.3    54  TYR54      -0.2866
     13  N         10.0940  -13.6480   31.5140 N.3   110  PRO110     -0.2102
     14  CA        10.6530  -14.1790   32.7590 C.3   110  PRO110      0.1504
     15  C         10.2660  -15.6600   32.9180 C.2   110  PRO110      0.2576
     16  O          9.8030  -16.2640   31.9570 O.2   110  PRO110     -0.2718
     17  CB         9.9720  -13.3230   33.8160 C.3   110  PRO110      0.0282
     18  CG         8.6100  -13.0680   33.2180 C.3   110  PRO110      0.0208
     19  CD         8.8050  -12.9660   31.7390 C.3   110  PRO110      0.0893
     20  N         10.4430  -16.2300   34.1050 N.am  111  GLY111     -0.1957
     21  CA        10.1500  -17.6370   34.3470 C.3   111  GLY111      0.1869
     22  C          8.6880  -18.0860   34.3700 C.2   111  GLY111      0.2309
     23  O          8.3970  -19.2160   33.9940 O.2   111  GLY111     -0.2863
     24  N         13.8710   -9.3990   33.6900 N.3   126  HIS126     -0.1226
     25  CA        14.8620   -9.9260   32.7680 C.3   126  HIS126      0.1752
     26  C         14.4830  -11.3650   32.5480 C.2   126  HIS126      0.2597
     27  O         13.5810  -11.8790   33.2060 O.2   126  HIS126     -0.2718
     28  CB        16.2610   -9.8640   33.3990 C.3   126  HIS126      0.0759
     29  CG        16.3380  -10.5380   34.7300 C.ar  126  HIS126      0.0818
     30  ND1       16.0990   -9.8690   35.9140 N.ar  126  HIS126     -0.2268
     31  CD2       16.5780  -11.8240   35.0720 C.ar  126  HIS126      0.1154
     32  CE1       16.2020  -10.7120   36.9210 C.ar  126  HIS126      0.1986
     33  NE2       16.4880  -11.9090   36.4390 N.ar  126  HIS126     -0.2212
     34  N         15.1790  -12.0340   31.6470 N.am  127  GLY127     -0.1942
     35  CA        15.0070  -13.4620   31.5420 C.3   127  GLY127      0.2014
     36  C         16.1760  -14.1360   30.8720 C.2   127  GLY127      0.2638
     37  O         17.3050  -13.6250   30.8740 O.2   127  GLY127     -0.2714
     38  N         15.8760  -15.2840   30.2740 N.am  128  LYS128     -0.1977
     39  CA        16.8600  -16.1630   29.6640 C.3   128  LYS128      0.1596
     40  C         17.6060  -15.4780   28.5150 C.2   128  LYS128      0.2287
     41  O         18.6260  -15.9680   28.0240 O.2   128  LYS128     -0.2864
     42  CB        16.1370  -17.4320   29.1720 C.3   128  LYS128      0.0298
     43  CG        17.0290  -18.5690   28.7470 C.3   128  LYS128      0.0038
     44  CD        16.3120  -19.8750   28.8410 C.3   128  LYS128      0.0206
     45  CE        17.1700  -20.9940   28.2460 C.3   128  LYS128      0.1093
     46  NZ        16.7150  -22.3170   28.7600 N.3   128  LYS128     -0.1314
     47  N         20.6460  -20.0510   29.9120 N.3   222  SER222     -0.1217
     48  CA        20.5800  -20.1360   31.3620 C.3   222  SER222      0.1889
     49  C         20.9830  -21.5360   31.7970 C.2   222  SER222      0.2288
     50  O         21.1860  -22.4100   30.9570 O.2   222  SER222     -0.2866
     51  CB        19.1760  -19.8270   31.8480 C.3   222  SER222      0.2089
     52  OG        18.2880  -20.8510   31.4740 O.3   222  SER222     -0.2183
     53  N         20.7160  -24.6900   35.2010 N.3   224  TRP224     -0.1241
     54  CA        20.5090  -25.2040   36.5510 C.3   224  TRP224      0.1605
     55  C         21.8600  -25.6540   37.0790 C.2   224  TRP224      0.2264
     56  O         22.6100  -26.3320   36.3740 O.2   224  TRP224     -0.2867
     57  CB        19.5540  -26.3810   36.5270 C.3   224  TRP224      0.0550
     58  CG        18.2580  -26.0640   35.8480 C.ar  224  TRP224      0.0003
     59  CD1       17.9200  -26.3250   34.5450 C.ar  224  TRP224      0.0946
     60  CD2       17.1230  -25.4160   36.4350 C.ar  224  TRP224      0.0152
     61  NE1       16.6440  -25.8830   34.2930 N.ar  224  TRP224     -0.2442
     62  CE2       16.1330  -25.3220   35.4370 C.ar  224  TRP224      0.0810
     63  CE3       16.8470  -24.9090   37.7110 C.ar  224  TRP224      0.0012
     64  CZ2       14.8890  -24.7440   35.6750 C.ar  224  TRP224      0.0191
     65  CZ3       15.6120  -24.3360   37.9450 C.ar  224  TRP224      0.0001
     66  CH2       14.6480  -24.2580   36.9320 C.ar  224  TRP224      0.0015
     67  N         11.8120  -23.4310   28.1890 N.3   293  TYR293     -0.1227
     68  CA        11.8300  -22.2700   29.0800 C.3   293  TYR293      0.1736
     69  C         10.8720  -22.3710   30.2760 C.2   293  TYR293      0.2595
     70  O         11.2510  -22.0600   31.4070 O.2   293  TYR293     -0.2718
     71  CB        11.5350  -20.9910   28.2720 C.3   293  TYR293      0.0548
     72  CG        11.9800  -19.6810   28.9180 C.ar  293  TYR293     -0.0200
     73  CD1       12.6420  -19.6710   30.1510 C.ar  293  TYR293     -0.0009
     74  CD2       11.7440  -18.4550   28.2900 C.ar  293  TYR293     -0.0009
     75  CE1       13.0480  -18.4860   30.7440 C.ar  293  TYR293      0.0417
     76  CE2       12.1560  -17.2600   28.8740 C.ar  293  TYR293      0.0417
     77  CZ        12.8040  -17.2860   30.1060 C.ar  293  TYR293      0.1957
     78  OH        13.2160  -16.1210   30.7120 O.3   293  TYR293     -0.2866
     79  N          9.6370  -22.7930   30.0260 N.am  294  HIS294     -0.1962
     80  CA         8.6130  -22.8180   31.0690 C.3   294  HIS294      0.1772
     81  C          8.1520  -24.2440   31.3980 C.2   294  HIS294      0.2462
     82  O          7.0780  -24.6570   30.9580 O.2   294  HIS294     -0.2730
     83  CB         7.3810  -21.9950   30.6390 C.3   294  HIS294      0.0785
     84  CG         7.6260  -20.5080   30.5310 C.ar  294  HIS294      0.0821
     85  ND1        8.7960  -19.9750   30.0680 N.ar  294  HIS294     -0.2267
     86  CD2        6.8030  -19.4660   30.8110 C.ar  294  HIS294      0.1154
     87  CE1        8.7050  -18.6440   30.0750 C.ar  294  HIS294      0.1986
     88  NE2        7.5150  -18.3210   30.5180 N.ar  294  HIS294     -0.2212
     89  N          8.9540  -25.0090   32.1690 N.am  295  PRO295     -0.2727
     90  CA         8.4410  -26.3180   32.6020 C.3   295  PRO295      0.1402
     91  C          7.4480  -26.2030   33.7720 C.2   295  PRO295      0.2269
     92  O          6.2300  -26.3190   33.5880 O.2   295  PRO295     -0.2865
     93  CB         9.7090  -27.0620   33.0500 C.3   295  PRO295      0.0296
     94  CG        10.8780  -26.2340   32.5410 C.3   295  PRO295      0.0237
     95  CD        10.3770  -24.8360   32.5140 C.3   295  PRO295      0.0939
     96  N         13.4660  -17.0740   48.7360 N.3   299  GLN299     -0.1245
     97  CA        14.0620  -16.9090   47.4220 C.3   299  GLN299      0.1566
     98  C         15.0250  -15.7510   47.5180 C.2   299  GLN299      0.2260
     99  O         14.6990  -14.7190   48.0840 O.2   299  GLN299     -0.2867
    100  CB        12.9960  -16.6520   46.3450 C.3   299  GLN299      0.0367
    101  CG        13.5130  -16.7770   44.8990 C.3   299  GLN299      0.0905
    102  CD        13.4290  -18.1970   44.3430 C.2   299  GLN299      0.2608
    103  OE1       14.3250  -18.6630   43.6280 O.2   299  GLN299     -0.2717
    104  NE2       12.3450  -18.8890   44.6700 N.am  299  GLN299     -0.0878
    105  N         18.2390  -13.6870   45.3400 N.3   301  GLN301     -0.1245
    106  CA        18.8590  -13.4890   44.0420 C.3   301  GLN301      0.1566
    107  C         19.8090  -12.2940   44.0330 C.2   301  GLN301      0.2260
    108  O         19.4820  -11.2050   44.5220 O.2   301  GLN301     -0.2867
    109  CB        17.7810  -13.3210   42.9570 C.3   301  GLN301      0.0367
    110  CG        18.3540  -13.1510   41.5380 C.3   301  GLN301      0.0905
    111  CD        17.2810  -13.0530   40.4350 C.2   301  GLN301      0.2608
    112  OE1       16.0880  -13.2250   40.6850 O.2   301  GLN301     -0.2717
    113  NE2       17.7190  -12.7630   39.2080 N.am  301  GLN301     -0.0878
    114  N         16.7090  -25.7900   43.7230 N.3   328  LEU328     -0.1245
    115  CA        16.2930  -25.0110   42.5570 C.3   328  LEU328      0.1561
    116  C         17.1710  -23.7840   42.3780 C.2   328  LEU328      0.2260
    117  O         16.9460  -22.7500   42.9960 O.2   328  LEU328     -0.2867
    118  CB        14.8260  -24.5990   42.6730 C.3   328  LEU328      0.0270
    119  CG        13.8550  -25.7540   42.9440 C.3   328  LEU328      0.0019
    120  CD1       12.4090  -25.2790   42.9170 C.3   328  LEU328      0.0001
    121  CD2       14.0700  -26.8960   41.9660 C.3   328  LEU328      0.0001
    122  N         19.1660  -21.1320   39.6660 N.3   330  VAL330     -0.1245
    123  CA        19.3100  -20.6330   38.3110 C.3   330  VAL330      0.1561
    124  C         20.5370  -19.7520   38.1260 C.2   330  VAL330      0.2260
    125  O         20.6750  -18.7230   38.7660 O.2   330  VAL330     -0.2867
    126  CB        18.0620  -19.8820   37.8460 C.3   330  VAL330      0.0252
    127  CG1       17.9170  -20.0280   36.3480 C.3   330  VAL330      0.0019
    128  CG2       16.8340  -20.4330   38.5490 C.3   330  VAL330      0.0019
    129  N         22.8570  -17.5480   35.3680 N.3   332  LYS332     -0.1245
    130  CA        22.9010  -16.8880   34.0780 C.3   332  LYS332      0.1561
    131  C         23.8850  -15.7190   34.0770 C.2   332  LYS332      0.2260
    132  O         24.0170  -15.0030   35.0640 O.2   332  LYS332     -0.2867
    133  CB        21.4920  -16.4210   33.6590 C.3   332  LYS332      0.0271
    134  CG        21.5000  -15.2380   32.7190 C.3   332  LYS332      0.0035
    135  CD        20.2120  -15.0700   32.0010 C.3   332  LYS332      0.0206
    136  CE        20.4620  -14.3670   30.6730 C.3   332  LYS332      0.1093
    137  NZ        21.4180  -15.1540   29.8420 N.3   332  LYS332     -0.1314
    138  N         24.3840  -12.1230   32.8210 N.3   334  PHE334     -0.1241
    139  CA        23.7150  -10.9340   32.2970 C.3   334  PHE334      0.1605
    140  C         24.5860  -10.2070   31.2770 C.2   334  PHE334      0.2264
    141  O         25.8100  -10.3200   31.3070 O.2   334  PHE334     -0.2867
    142  CB        23.3700   -9.9630   33.4150 C.3   334  PHE334      0.0534
    143  CG        22.1640  -10.3570   34.2310 C.ar  334  PHE334     -0.0203
    144  CD1       21.1930  -11.2120   33.7080 C.ar  334  PHE334     -0.0042
    145  CD2       21.9970   -9.8550   35.5300 C.ar  334  PHE334     -0.0042
    146  CE1       20.0740  -11.5630   34.4710 C.ar  334  PHE334     -0.0003
    147  CE2       20.8840  -10.1980   36.3020 C.ar  334  PHE334     -0.0003
    148  CZ        19.9210  -11.0510   35.7740 C.ar  334  PHE334     -0.0000
    149  N         24.7370  -13.8590   37.5650 N.3   350  ASN350     -0.1240
    150  CA        23.4630  -13.7620   38.2490 C.3   350  ASN350      0.1653
    151  C         23.0510  -15.1430   38.6870 C.2   350  ASN350      0.2266
    152  O         23.1810  -16.1200   37.9380 O.2   350  ASN350     -0.2867
    153  CB        22.3780  -13.1310   37.3490 C.3   350  ASN350      0.1155
    154  CG        20.9590  -13.3970   37.8520 C.2   350  ASN350      0.2627
    155  OD1       20.4040  -12.6320   38.6510 O.2   350  ASN350     -0.2716
    156  ND2       20.3650  -14.4860   37.3810 N.am  350  ASN350     -0.0877
    157  N         20.0760  -17.4110   41.3120 N.3   352  CYS352     -0.1235
    158  CA        18.8350  -17.3960   42.0580 C.3   352  CYS352      0.1677
    159  C         18.8000  -18.6740   42.8950 C.2   352  CYS352      0.2270
    160  O         18.8520  -19.7750   42.3580 O.2   352  CYS352     -0.2867
    161  CB        17.6310  -17.2850   41.0970 C.3   352  CYS352      0.0956
    162  SG        16.0660  -16.8090   41.8820 S.3   352  CYS352     -0.0801
    163  N         12.5690  -10.1280   44.4200 N.3   383  LYS383     -0.1245
    164  CA        12.7980  -11.3550   45.1790 C.3   383  LYS383      0.1561
    165  C         13.0190  -11.1230   46.6880 C.2   383  LYS383      0.2260
    166  O         13.0200  -12.0810   47.4590 O.2   383  LYS383     -0.2867
    167  CB        13.9930  -12.1300   44.6110 C.3   383  LYS383      0.0271
    168  CG        13.8430  -12.6230   43.1740 C.3   383  LYS383      0.0035
    169  CD        12.9800  -13.8620   43.0800 C.3   383  LYS383      0.0206
    170  CE        12.4980  -14.1040   41.6590 C.3   383  LYS383      0.1093
    171  NZ        13.5290  -14.7250   40.7960 N.3   383  LYS383     -0.1314
@<TRIPOS>BOND
     1    41    40    2
     2    67    68    1
     3    45    46    1
     4    45    44    1
     5    71    72    1
     6    71    68    1
     7    74    76   ar
     8    74    72   ar
     9    40    39    1
    10    43    44    1
    11    43    42    1
    12    76    77   ar
    13    72    73   ar
    14    68    69    1
    15    42    39    1
    16    39    38    1
    17   137   136    1
    18    47    48    1
    19    79    69   am
    20    79    80    1
    21    85    87   ar
    22    85    84   ar
    23    87    88   ar
    24    77    78    1
    25    77    75   ar
    26    73    75   ar
    27    38    36   am
    28    69    70    2
    29    88    86   ar
    30    84    83    1
    31    84    86   ar
    32    83    80    1
    33   136   135    1
    34    36    37    2
    35    36    35    1
    36    50    49    2
    37    82    81    2
    38    80    81    1
    39   140   141    2
    40   140   139    1
    41    48    49    1
    42    48    51    1
    43    81    89   am
    44    52    51    1
    45    13    19    1
    46    13    14    1
    47    35    34    1
    48    34    26   am
    49    19    18    1
    50    16    15    2
    51   135   134    1
    52    89    95    1
    53    89    90    1
    54   139   138    1
    55   139   142    1
    56    95    94    1
    57    94    93    1
    58    26    25    1
    59    26    27    2
    60    90    93    1
    61    90    91    1
    62   134   133    1
    63    14    15    1
    64    14    17    1
    65    25    28    1
    66    25    24    1
    67    15    20   am
    68    18    17    1
    69    28    29    1
    70   142   143    1
    71    92    91    2
    72   133   130    1
    73   144   143   ar
    74   144   146   ar
    75    23    22    2
    76   131   130    1
    77   131   132    2
    78   130   129    1
    79    20    21    1
    80   143   145   ar
    81    61    59   ar
    82    61    62   ar
    83    21    22    1
    84   146   148   ar
    85    59    58   ar
    86    29    31   ar
    87    29    30   ar
    88    31    33   ar
    89    53    54    1
    90    62    64   ar
    91    62    60   ar
    92   145   147   ar
    93    64    66   ar
    94   148   147   ar
    95    58    60   ar
    96    58    57    1
    97    30    32   ar
    98   127   126    1
    99    56    55    2
   100    60    63   ar
   101    33    32   ar
   102    57    54    1
   103    54    55    1
   104    66    65   ar
   105   153   154    1
   106   153   150    1
   107   156   154   am
   108   149   150    1
   109    63    65   ar
   110   126   123    1
   111   126   128    1
   112   154   155    2
   113   152   151    2
   114   124   123    1
   115   124   125    2
   116   150   151    1
   117   123   122    1
   118   113   111   am
   119   111   112    2
   120   111   110    1
   121   171   170    1
   122   161   162    1
   123   161   158    1
   124   157   158    1
   125   110   109    1
   126   170   169    1
   127   121   119    1
   128   158   159    1
   129   160   159    2
   130   116   115    1
   131   116   117    2
   132   115   118    1
   133   115   114    1
   134   118   119    1
   135   120   119    1
   136   109   106    1
   137   169   168    1
   138   168   167    1
   139    12    11    1
   140    10    11   ar
   141    10     8   ar
   142   103   102    2
   143   107   106    1
   144   107   108    2
   145   106   105    1
   146    11     9   ar
   147     8     6   ar
   148   102   104   am
   149   102   101    1
   150   163   164    1
   151   167   164    1
   152   101   100    1
   153     1     2    1
   154   164   165    1
   155     9     7   ar
   156     6     7   ar
   157     6     5    1
   158     2     5    1
   159     2     3    1
   160   100    97    1
   161   165   166    2
   162     3     4    2
   163    97    98    1
   164    97    96    1
   165    98    99    2
