@<TRIPOS>MOLECULE
tmp/4kwaB00.pdb
 119 121 0 0 0
SMALL
GASTEIGER

@<TRIPOS>ATOM
      1  N        -30.0370  -10.8330   -6.9860 N.3    87  GLN87      -0.1245
      2  CA       -29.2750   -9.8860   -7.8100 C.3    87  GLN87       0.1566
      3  C        -27.8950  -10.3990   -8.1250 C.2    87  GLN87       0.2260
      4  O        -27.1060   -9.6950   -8.7150 O.2    87  GLN87      -0.2867
      5  CB       -29.1110   -8.5470   -7.0730 C.3    87  GLN87       0.0367
      6  CG       -30.3450   -8.0400   -6.3950 C.3    87  GLN87       0.0905
      7  CD       -31.6040   -8.1320   -7.2210 C.2    87  GLN87       0.2608
      8  OE1      -32.7250   -8.5150   -6.6950 O.2    87  GLN87      -0.2717
      9  NE2      -31.4810   -7.7790   -8.5030 N.am   87  GLN87      -0.0878
     10  N        -28.3340  -11.5140  -17.8110 N.3    97  GLU97      -0.1231
     11  CA       -29.1010  -10.3210  -17.4820 C.3    97  GLU97       0.1699
     12  C        -28.2050   -9.1230  -17.1190 C.2    97  GLU97       0.2592
     13  O        -28.4600   -8.0270  -17.5700 O.2    97  GLU97      -0.2718
     14  CB       -30.1530  -10.5520  -16.4070 C.3    97  GLU97       0.0402
     15  CG       -31.2640  -11.4570  -16.8800 C.3    97  GLU97       0.1161
     16  CD       -32.3240  -11.6820  -15.8230 C.2    97  GLU97       0.3649
     17  OE1      -32.2090  -11.1720  -14.7280 O.co2  97  GLU97      -0.2457
     18  OE2      -33.2630  -12.4080  -16.0830 O.co2  97  GLU97      -0.2457
     19  N        -27.1900   -9.3450  -16.2630 N.am   98  TRP98      -0.1976
     20  CA       -26.2530   -8.3020  -15.8810 C.3    98  TRP98       0.1640
     21  C        -25.5420   -7.7010  -17.0870 C.2    98  TRP98       0.2290
     22  O        -25.3460   -6.5250  -17.1920 O.2    98  TRP98      -0.2864
     23  CB       -25.2720   -8.8310  -14.8720 C.3    98  TRP98       0.0576
     24  CG       -25.7270   -8.7340  -13.3920 C.ar   98  TRP98       0.0006
     25  CD1      -26.6000   -9.5790  -12.7160 C.ar   98  TRP98       0.0946
     26  CD2      -25.4150   -7.7150  -12.4870 C.ar   98  TRP98       0.0152
     27  NE1      -26.7430   -9.1950  -11.4330 N.ar   98  TRP98      -0.2442
     28  CE2      -26.0320   -8.0340  -11.2610 C.ar   98  TRP98       0.0810
     29  CE3      -24.6320   -6.5610  -12.5790 C.ar   98  TRP98       0.0012
     30  CZ2      -25.9010   -7.2310  -10.1480 C.ar   98  TRP98       0.0191
     31  CZ3      -24.5110   -5.7710  -11.4770 C.ar   98  TRP98       0.0001
     32  CH2      -25.1280   -6.1240  -10.2730 C.ar   98  TRP98       0.0015
     33  N        -27.8950   -5.2950  -18.6340 N.3   101  TRP101     -0.1241
     34  CA       -28.0330   -4.1110  -17.7540 C.3   101  TRP101      0.1605
     35  C        -26.8680   -3.1420  -17.8680 C.2   101  TRP101      0.2264
     36  O        -27.0680   -1.8990  -17.9430 O.2   101  TRP101     -0.2867
     37  CB       -28.4370   -4.4080  -16.3080 C.3   101  TRP101      0.0550
     38  CG       -29.8330   -4.9420  -16.2710 C.ar  101  TRP101      0.0003
     39  CD1      -30.2110   -6.2030  -15.9270 C.ar  101  TRP101      0.0946
     40  CD2      -31.0180   -4.2890  -16.7760 C.ar  101  TRP101      0.0152
     41  NE1      -31.5510   -6.3670  -16.1570 N.ar  101  TRP101     -0.2442
     42  CE2      -32.0670   -5.2050  -16.6710 C.ar  101  TRP101      0.0810
     43  CE3      -31.2950   -2.9880  -17.2570 C.ar  101  TRP101      0.0012
     44  CZ2      -33.3750   -4.8800  -17.0120 C.ar  101  TRP101      0.0191
     45  CZ3      -32.5900   -2.6650  -17.5940 C.ar  101  TRP101      0.0001
     46  CH2      -33.6190   -3.6090  -17.4730 C.ar  101  TRP101      0.0015
     47  N        -27.2370    0.8240  -18.9020 N.3   105  TRP105     -0.1241
     48  CA       -26.7560    2.0270  -18.2080 C.3   105  TRP105      0.1605
     49  C        -26.1510    3.0140  -19.1690 C.2   105  TRP105      0.2264
     50  O        -26.4280    4.2160  -19.1190 O.2   105  TRP105     -0.2867
     51  CB       -25.7220    1.7250  -17.1320 C.3   105  TRP105      0.0550
     52  CG       -26.1450    0.8840  -16.0200 C.ar  105  TRP105      0.0003
     53  CD1      -27.3930    0.7360  -15.5670 C.ar  105  TRP105      0.0946
     54  CD2      -25.3220    0.0150  -15.2840 C.ar  105  TRP105      0.0152
     55  NE1      -27.4090   -0.1760  -14.5870 N.ar  105  TRP105     -0.2442
     56  CE2      -26.1240   -0.5980  -14.3440 C.ar  105  TRP105      0.0810
     57  CE3      -23.9140   -0.1960  -15.2310 C.ar  105  TRP105      0.0012
     58  CZ2      -25.6290   -1.4640  -13.3590 C.ar  105  TRP105      0.0191
     59  CZ3      -23.4080   -1.1360  -14.2960 C.ar  105  TRP105      0.0001
     60  CH2      -24.2610   -1.7580  -13.3660 C.ar  105  TRP105      0.0015
     61  N        -35.5580    2.0470  -17.9130 N.3   118  TYR118     -0.1241
     62  CA       -34.5860    1.7050  -16.8410 C.3   118  TYR118      0.1605
     63  C        -34.9830    2.3570  -15.5280 C.2   118  TYR118      0.2264
     64  O        -35.0430    1.6900  -14.5390 O.2   118  TYR118     -0.2867
     65  CB       -33.2030    2.1400  -17.2460 C.3   118  TYR118      0.0534
     66  CG       -32.2310    1.9430  -16.1300 C.ar  118  TYR118     -0.0201
     67  CD1      -31.8800    0.6680  -15.7320 C.ar  118  TYR118     -0.0009
     68  CD2      -31.6990    3.0240  -15.4450 C.ar  118  TYR118     -0.0009
     69  CE1      -30.9920    0.4750  -14.6400 C.ar  118  TYR118      0.0417
     70  CE2      -30.8350    2.8370  -14.3320 C.ar  118  TYR118      0.0417
     71  CZ       -30.5380    1.5720  -13.9490 C.ar  118  TYR118      0.1957
     72  OH       -29.6990    1.3850  -12.8600 O.3   118  TYR118     -0.2866
     73  N        -37.9970    0.6790  -13.9570 N.3   121  ALA121     -0.1231
     74  CA       -37.6000   -0.6060  -13.4340 C.3   121  ALA121      0.1694
     75  C        -36.8110   -0.4840  -12.1610 C.2   121  ALA121      0.2592
     76  O        -37.0740   -1.2290  -11.1650 O.2   121  ALA121     -0.2718
     77  CB       -36.8180   -1.4310  -14.4650 C.3   121  ALA121      0.0304
     78  N        -35.8420    0.4300  -12.1660 N.am  122  TYR122     -0.1976
     79  CA       -34.9640    0.6430  -11.0260 C.3   122  TYR122      0.1639
     80  C        -35.7810    1.1710   -9.8710 C.2   122  TYR122      0.2290
     81  O        -35.6200    0.6650   -8.7860 O.2   122  TYR122     -0.2864
     82  CB       -33.8140    1.5770  -11.3320 C.3   122  TYR122      0.0560
     83  CG       -33.0820    1.9770  -10.0300 C.ar  122  TYR122     -0.0198
     84  CD1      -31.9870    1.3510   -9.6280 C.ar  122  TYR122     -0.0009
     85  CD2      -33.4920    3.1210   -9.3100 C.ar  122  TYR122     -0.0009
     86  CE1      -31.3240    1.7420   -8.5150 C.ar  122  TYR122      0.0417
     87  CE2      -32.8610    3.4970   -8.1570 C.ar  122  TYR122      0.0417
     88  CZ       -31.7550    2.7820   -7.7760 C.ar  122  TYR122      0.1957
     89  OH       -31.1060    3.0680   -6.6180 O.3   122  TYR122     -0.2866
     90  N        -37.6980   -1.6780   -8.0620 N.3   125  TRP125     -0.1241
     91  CA       -36.7400   -2.4370   -7.2840 C.3   125  TRP125      0.1605
     92  C        -36.2530   -1.7000   -6.0300 C.2   125  TRP125      0.2264
     93  O        -36.2640   -2.2560   -4.9240 O.2   125  TRP125     -0.2867
     94  CB       -35.5710   -2.7930   -8.2300 C.3   125  TRP125      0.0550
     95  CG       -34.1640   -3.0140   -7.5440 C.ar  125  TRP125      0.0003
     96  CD1      -33.0690   -2.1800   -7.5680 C.ar  125  TRP125      0.0946
     97  CD2      -33.8180   -4.0970   -6.7440 C.ar  125  TRP125      0.0152
     98  NE1      -32.0260   -2.7180   -6.8490 N.ar  125  TRP125     -0.2442
     99  CE2      -32.4700   -3.9190   -6.3380 C.ar  125  TRP125      0.0810
    100  CE3      -34.5090   -5.2460   -6.3510 C.ar  125  TRP125      0.0012
    101  CZ2      -31.8220   -4.8260   -5.5230 C.ar  125  TRP125      0.0191
    102  CZ3      -33.8830   -6.1270   -5.5780 C.ar  125  TRP125      0.0001
    103  CH2      -32.5300   -5.9380   -5.1600 C.ar  125  TRP125      0.0015
    104  N        -24.5980   -3.0410   -4.5830 N.3   157  ILE157     -0.1231
    105  CA       -24.9170   -4.1890   -5.4220 C.3   157  ILE157      0.1692
    106  C        -24.3740   -3.9500   -6.8180 C.2   157  ILE157      0.2592
    107  O        -23.6840   -4.8730   -7.3490 O.2   157  ILE157     -0.2718
    108  CB       -26.4140   -4.5310   -5.4210 C.3   157  ILE157      0.0266
    109  CG1      -26.8070   -5.1910   -4.0700 C.3   157  ILE157      0.0019
    110  CG2      -26.7440   -5.4840   -6.5700 C.3   157  ILE157      0.0020
    111  CD1      -28.2870   -5.1690   -3.8050 C.3   157  ILE157      0.0001
    112  N        -24.7240   -2.8070   -7.4260 N.am  158  ASP158     -0.1974
    113  CA       -24.2600   -2.4660   -8.7900 C.3   158  ASP158      0.1709
    114  C        -22.7490   -2.4490   -8.8880 C.2   158  ASP158      0.2293
    115  O        -22.1540   -3.0260   -9.7650 O.2   158  ASP158     -0.2864
    116  CB       -24.8610   -1.1650   -9.2970 C.3   158  ASP158      0.1436
    117  CG       -26.3820   -1.2890   -9.5380 C.2   158  ASP158      0.3671
    118  OD1      -26.8520   -2.4280   -9.6880 O.co2 158  ASP158     -0.2456
    119  OD2      -27.1190   -0.2930   -9.5640 O.co2 158  ASP158     -0.2456
@<TRIPOS>BOND
     1    49    50    2
     2    49    48    1
     3    47    48    1
     4    33    34    1
     5    48    51    1
     6    36    35    2
     7    61    62    1
     8    35    34    1
     9    10    11    1
    10    34    37    1
    11    45    46   ar
    12    45    43   ar
    13    13    12    2
    14    11    12    1
    15    11    14    1
    16    46    44   ar
    17    43    40   ar
    18    65    62    1
    19    65    66    1
    20    22    21    2
    21    51    52    1
    22    12    19   am
    23    21    20    1
    24    44    42   ar
    25    15    14    1
    26    15    16    1
    27    62    63    1
    28    40    42   ar
    29    40    38   ar
    30    42    41   ar
    31    37    38    1
    32    38    39   ar
    33    19    20    1
    34    41    39   ar
    35    66    67   ar
    36    66    68   ar
    37    18    16   ar
    38    52    53   ar
    39    52    54   ar
    40    20    23    1
    41    16    17   ar
    42    67    69   ar
    43    53    55   ar
    44    63    64    2
    45    68    70   ar
    46    54    57   ar
    47    54    56   ar
    48    57    59   ar
    49    23    24    1
    50    69    71   ar
    51    55    56   ar
    52    77    74    1
    53    56    58   ar
    54    70    71   ar
    55    59    60   ar
    56    73    74    1
    57    71    72    1
    58    74    75    1
    59    24    25   ar
    60    24    26   ar
    61    60    58   ar
    62    25    27   ar
    63    29    26   ar
    64    29    31   ar
    65    26    28   ar
    66    78    75   am
    67    78    79    1
    68    75    76    2
    69    31    32   ar
    70    27    28   ar
    71    82    79    1
    72    82    83    1
    73    28    30   ar
    74    79    80    1
    75    32    30   ar
    76    83    84   ar
    77    83    85   ar
    78    80    81    2
    79   115   114    2
    80   118   117   ar
    81    84    86   ar
    82   119   117   ar
    83   117   116    1
    84    85    87   ar
    85   116   113    1
    86   114   113    1
    87   113   112    1
    88     4     3    2
    89    86    88   ar
    90     9     7   am
    91    94    95    1
    92    94    91    1
    93    87    88   ar
    94     3     2    1
    95    90    91    1
    96     2     5    1
    97     2     1    1
    98    88    89    1
    99    96    95   ar
   100    96    98   ar
   101    95    97   ar
   102   112   106   am
   103   107   106    2
   104    91    92    1
   105     7     8    2
   106     7     6    1
   107     5     6    1
   108    98    99   ar
   109   106   105    1
   110    97   100   ar
   111    97    99   ar
   112   110   108    1
   113   100   102   ar
   114    99   101   ar
   115    92    93    2
   116   102   103   ar
   117   101   103   ar
   118   105   108    1
   119   105   104    1
   120   108   109    1
   121   109   111    1
