@<TRIPOS>MOLECULE
tmp/4kwfE00.pdb
 155 148 0 0 0
SMALL
GASTEIGER

@<TRIPOS>ATOM
      1  N         47.8550   82.1960   17.5520 N.3   114  VAL114     -0.1231
      2  CA        47.7390   81.5020   16.2780 C.3   114  VAL114      0.1692
      3  C         49.0800   80.9080   15.8430 C.2   114  VAL114      0.2592
      4  O         49.2550   79.6960   15.9010 O.2   114  VAL114     -0.2718
      5  CB        47.1260   82.4200   15.1960 C.3   114  VAL114      0.0266
      6  CG1       47.0610   81.7110   13.8510 C.3   114  VAL114      0.0020
      7  CG2       45.7340   82.8720   15.6350 C.3   114  VAL114      0.0020
      8  N         50.0240   81.7480   15.4290 N.am  115  ASP115     -0.1974
      9  CA        51.2940   81.2520   14.8730 C.3   115  ASP115      0.1709
     10  C         52.0130   80.2800   15.8170 C.2   115  ASP115      0.2293
     11  O         52.4410   79.1930   15.4010 O.2   115  ASP115     -0.2864
     12  CB        52.2170   82.4130   14.4730 C.3   115  ASP115      0.1436
     13  CG        51.8060   83.0670   13.1230 C.2   115  ASP115      0.3671
     14  OD1       52.6060   83.0100   12.1560 O.co2 115  ASP115     -0.2456
     15  OD2       50.6830   83.6330   13.0240 O.co2 115  ASP115     -0.2456
     16  N         50.0460   76.8710   16.3520 N.3   118  MET118     -0.1245
     17  CA        50.2360   75.9200   15.2710 C.3   118  MET118      0.1570
     18  C         51.6550   75.3660   15.2100 C.2   118  MET118      0.2261
     19  O         51.8580   74.2780   14.6650 O.2   118  MET118     -0.2867
     20  CB        49.8800   76.5580   13.9350 C.3   118  MET118      0.0387
     21  CG        48.3990   76.5400   13.6020 C.3   118  MET118      0.0595
     22  SD        48.0620   77.8640   12.4380 S.3   118  MET118     -0.1393
     23  CE        46.8190   77.1500   11.3710 C.3   118  MET118      0.0692
     24  N         56.8820   85.1040    5.4600 N.3   163  ASN163     -0.1225
     25  CA        55.4850   85.3730    5.7980 C.3   163  ASN163      0.1785
     26  C         54.9700   84.6380    7.0280 C.2   163  ASN163      0.2597
     27  O         54.0310   85.1100    7.6720 O.2   163  ASN163     -0.2718
     28  CB        54.5520   85.1330    4.5960 C.3   163  ASN163      0.1169
     29  CG        54.4970   83.6760    4.1440 C.2   163  ASN163      0.2627
     30  OD1       55.0770   82.7850    4.7690 O.2   163  ASN163     -0.2716
     31  ND2       53.7960   83.4350    3.0430 N.am  163  ASN163     -0.0877
     32  N         55.5690   83.4890    7.3450 N.am  164  PHE164     -0.1976
     33  CA        55.2420   82.7450    8.5680 C.3   164  PHE164      0.1639
     34  C         56.5030   82.0850    9.1120 C.2   164  PHE164      0.2290
     35  O         56.6580   80.8720    9.0220 O.2   164  PHE164     -0.2864
     36  CB        54.1660   81.6900    8.2810 C.3   164  PHE164      0.0560
     37  CG        52.8170   82.2700    8.0210 C.ar  164  PHE164     -0.0200
     38  CD1       52.3510   82.4440    6.7230 C.ar  164  PHE164     -0.0042
     39  CD2       52.0280   82.6860    9.0730 C.ar  164  PHE164     -0.0042
     40  CE1       51.1050   83.0000    6.4900 C.ar  164  PHE164     -0.0003
     41  CE2       50.7850   83.2460    8.8510 C.ar  164  PHE164     -0.0003
     42  CZ        50.3200   83.3990    7.5580 C.ar  164  PHE164     -0.0000
     43  N         56.3180   79.1510   11.8470 N.3   167  LEU167     -0.1231
     44  CA        55.4470   78.0500   11.4190 C.3   167  LEU167      0.1693
     45  C         56.0610   77.3180   10.2150 C.2   167  LEU167      0.2591
     46  O         56.0780   76.0820   10.1670 O.2   167  LEU167     -0.2718
     47  CB        54.0330   78.5690   11.1100 C.3   167  LEU167      0.0284
     48  CG        52.9300   77.5660   10.7420 C.3   167  LEU167      0.0019
     49  CD1       52.8560   76.4320   11.7520 C.3   167  LEU167      0.0001
     50  CD2       51.5770   78.2530   10.6150 C.3   167  LEU167      0.0001
     51  N         56.5650   78.0850    9.2510 N.am  168  MET168     -0.1979
     52  CA        57.2900   77.5070    8.1300 C.3   168  MET168      0.1605
     53  C         58.4360   76.6650    8.6330 C.2   168  MET168      0.2287
     54  O         58.6890   75.5860    8.1170 O.2   168  MET168     -0.2864
     55  CB        57.8370   78.5820    7.1890 C.3   168  MET168      0.0413
     56  CG        56.7910   79.2220    6.2890 C.3   168  MET168      0.0598
     57  SD        55.7870   77.9960    5.4300 S.3   168  MET168     -0.1393
     58  CE        54.4380   77.8060    6.5930 C.3   168  MET168      0.0692
     59  N         56.7400   73.4130   10.0170 N.3   171  TRP171     -0.1241
     60  CA        56.2820   72.5870    8.8930 C.3   171  TRP171      0.1605
     61  C         57.4170   71.8600    8.1660 C.2   171  TRP171      0.2264
     62  O         57.1910   70.8550    7.4830 O.2   171  TRP171     -0.2867
     63  CB        55.5250   73.4540    7.8920 C.3   171  TRP171      0.0550
     64  CG        54.1690   73.8620    8.3390 C.ar  171  TRP171      0.0003
     65  CD1       53.6200   73.7070    9.5790 C.ar  171  TRP171      0.0946
     66  CD2       53.1830   74.5270    7.5490 C.ar  171  TRP171      0.0152
     67  NE1       52.3480   74.2220    9.6040 N.ar  171  TRP171     -0.2442
     68  CE2       52.0560   74.7370    8.3710 C.ar  171  TRP171      0.0810
     69  CE3       53.1400   74.9610    6.2220 C.ar  171  TRP171      0.0012
     70  CZ2       50.9020   75.3640    7.9100 C.ar  171  TRP171      0.0191
     71  CZ3       52.0010   75.5880    5.7710 C.ar  171  TRP171      0.0001
     72  CH2       50.8920   75.7820    6.6140 C.ar  171  TRP171      0.0015
     73  N         59.9420   77.0130   -0.2810 N.3   238  THR238     -0.1218
     74  CA        58.6680   77.7130   -0.1250 C.3   238  THR238      0.1862
     75  C         58.9360   79.1860   -0.4020 C.2   238  THR238      0.2287
     76  O         59.5500   79.8640    0.4190 O.2   238  THR238     -0.2866
     77  CB        58.1000   77.5720    1.3040 C.3   238  THR238      0.1770
     78  OG1       58.1210   76.2000    1.7160 O.3   238  THR238     -0.2211
     79  CG2       56.6670   78.1160    1.3810 C.3   238  THR238      0.0375
     80  N         56.6270   75.0890   -2.7960 N.3   262  GLU262     -0.1245
     81  CA        55.4280   75.6340   -2.1910 C.3   262  GLU262      0.1567
     82  C         55.3700   77.1020   -2.6090 C.2   262  GLU262      0.2260
     83  O         55.8920   77.9850   -1.9190 O.2   262  GLU262     -0.2867
     84  CB        55.4990   75.4660   -0.6730 C.3   262  GLU262      0.0388
     85  CG        55.3670   74.0200   -0.1970 C.3   262  GLU262      0.1160
     86  CD        53.9630   73.6650    0.2730 C.2   262  GLU262      0.3649
     87  OE1       53.3580   74.4790    1.0030 O.co2 262  GLU262     -0.2457
     88  OE2       53.4710   72.5650   -0.0660 O.co2 262  GLU262     -0.2457
     89  N         44.1400   88.4900    6.3890 N.3   290  PHE290     -0.1241
     90  CA        44.9110   87.7940    7.3970 C.3   290  PHE290      0.1605
     91  C         46.4020   87.8740    7.0760 C.2   290  PHE290      0.2264
     92  O         46.8230   87.6250    5.9330 O.2   290  PHE290     -0.2867
     93  CB        44.4780   86.3400    7.5130 C.3   290  PHE290      0.0534
     94  CG        45.2350   85.5760    8.5520 C.ar  290  PHE290     -0.0203
     95  CD1       45.9830   84.4690    8.2110 C.ar  290  PHE290     -0.0042
     96  CD2       45.2160   85.9880    9.8710 C.ar  290  PHE290     -0.0042
     97  CE1       46.6870   83.7640    9.1740 C.ar  290  PHE290     -0.0003
     98  CE2       45.9170   85.2920   10.8390 C.ar  290  PHE290     -0.0003
     99  CZ        46.6580   84.1800   10.4920 C.ar  290  PHE290     -0.0000
    100  N         49.7810   85.6340    2.8940 N.3   295  CYS295     -0.1221
    101  CA        49.5310   84.2190    2.8950 C.3   295  CYS295      0.1808
    102  C         49.5930   83.7970    1.4380 C.2   295  CYS295      0.2601
    103  O         49.0540   84.4790    0.5600 O.2   295  CYS295     -0.2717
    104  CB        48.1500   83.9140    3.4720 C.3   295  CYS295      0.0970
    105  SG        47.9670   84.3160    5.2310 S.3   295  CYS295     -0.0800
    106  N         50.2670   82.6850    1.1940 N.am  296  CYS296     -0.1956
    107  CA        50.3270   82.0840   -0.1230 C.3   296  CYS296      0.1843
    108  C         48.9340   81.7220   -0.6640 C.2   296  CYS296      0.2625
    109  O         48.6520   81.9120   -1.8500 O.2   296  CYS296     -0.2714
    110  CB        51.2510   80.8610   -0.0710 C.3   296  CYS296      0.0997
    111  SG        52.9470   81.3320    0.3570 S.3   296  CYS296     -0.0797
    112  N         48.0530   81.2560    0.2150 N.am  297  CYS297     -0.1968
    113  CA        46.6860   80.9250   -0.1790 C.3   297  CYS297      0.1712
    114  C         45.6620   82.0160    0.1660 C.2   297  CYS297      0.2296
    115  O         44.5060   81.7070    0.4370 O.2   297  CYS297     -0.2864
    116  CB        46.2820   79.6120    0.4860 C.3   297  CYS297      0.0983
    117  SG        46.1450   79.7550    2.2790 S.3   297  CYS297     -0.0798
    118  N         46.6690   76.5740   -5.5710 N.3   421  LEU421     -0.1245
    119  CA        47.0440   76.1970   -4.2180 C.3   421  LEU421      0.1561
    120  C         45.7900   75.9290   -3.4000 C.2   421  LEU421      0.2260
    121  O         45.6520   74.8680   -2.8020 O.2   421  LEU421     -0.2867
    122  CB        47.8700   77.3100   -3.5680 C.3   421  LEU421      0.0270
    123  CG        48.5160   76.9740   -2.2140 C.3   421  LEU421      0.0019
    124  CD1       49.5360   75.8430   -2.3460 C.3   421  LEU421      0.0001
    125  CD2       49.1530   78.2010   -1.5850 C.3   421  LEU421      0.0001
    126  N         41.1450   79.1610    5.5330 N.3   451  ASP451     -0.1239
    127  CA        42.4010   79.1000    6.2950 C.3   451  ASP451      0.1674
    128  C         42.3160   78.2240    7.5420 C.2   451  ASP451      0.2266
    129  O         42.7700   78.6200    8.6150 O.2   451  ASP451     -0.2867
    130  CB        42.8690   80.4990    6.6940 C.3   451  ASP451      0.1410
    131  CG        43.3620   81.3190    5.5130 C.2   451  ASP451      0.3668
    132  OD1       43.9200   80.7420    4.5590 O.co2 451  ASP451     -0.2456
    133  OD2       43.1870   82.5510    5.5520 O.co2 451  ASP451     -0.2456
    134  N         43.7530   74.9290    8.8410 N.3   453  PHE453     -0.1241
    135  CA        44.7930   73.9410    8.6540 C.3   453  PHE453      0.1605
    136  C         44.9320   73.1720    9.9510 C.2   453  PHE453      0.2264
    137  O         45.0400   73.7560   11.0280 O.2   453  PHE453     -0.2867
    138  CB        46.1390   74.5900    8.3490 C.3   453  PHE453      0.0534
    139  CG        46.0960   75.6120    7.2580 C.ar  453  PHE453     -0.0203
    140  CD1       45.6120   76.8850    7.5070 C.ar  453  PHE453     -0.0042
    141  CD2       46.5690   75.3150    5.9870 C.ar  453  PHE453     -0.0042
    142  CE1       45.5770   77.8330    6.5050 C.ar  453  PHE453     -0.0003
    143  CE2       46.5420   76.2680    4.9840 C.ar  453  PHE453     -0.0003
    144  CZ        46.0480   77.5270    5.2430 C.ar  453  PHE453     -0.0000
    145  N         48.5890   69.8570    2.5740 N.3   459  PHE459     -0.1241
    146  CA        48.5580   71.1270    1.8660 C.3   459  PHE459      0.1605
    147  C         49.7100   71.2670    0.8720 C.2   459  PHE459      0.2264
    148  O         50.8790   71.0840    1.2220 O.2   459  PHE459     -0.2867
    149  CB        48.6050   72.2970    2.8460 C.3   459  PHE459      0.0534
    150  CG        48.2440   73.6040    2.2170 C.ar  459  PHE459     -0.0203
    151  CD1       46.9570   74.1030    2.3260 C.ar  459  PHE459     -0.0042
    152  CD2       49.1760   74.3130    1.4710 C.ar  459  PHE459     -0.0042
    153  CE1       46.6100   75.3010    1.7310 C.ar  459  PHE459     -0.0003
    154  CE2       48.8320   75.5120    0.8660 C.ar  459  PHE459     -0.0003
    155  CZ        47.5490   76.0090    1.0030 C.ar  459  PHE459     -0.0000
@<TRIPOS>BOND
     1   118   119    1
     2   119   122    1
     3   119   120    1
     4   122   123    1
     5   120   121    2
     6    80    81    1
     7    82    81    1
     8    82    83    2
     9   124   123    1
    10   123   125    1
    11    81    84    1
    12   109   108    2
    13    84    85    1
    14   108   107    1
    15   108   112   am
    16    75    74    1
    17    75    76    2
    18    73    74    1
    19    85    86    1
    20   113   114    1
    21   113   112    1
    22   113   116    1
    23    74    77    1
    24   107   110    1
    25   107   106    1
    26   110   111    1
    27    88    86   ar
    28   114   115    2
    29    86    87   ar
    30   116   117    1
    31   103   102    2
    32   154   155   ar
    33   154   152   ar
    34   147   148    2
    35   147   146    1
    36   155   153   ar
    37   106   102   am
    38    77    79    1
    39    77    78    1
    40   102   101    1
    41   152   150   ar
    42   153   151   ar
    43   146   145    1
    44   146   149    1
    45   150   151   ar
    46   150   149    1
    47   100   101    1
    48   101   104    1
    49    31    29   am
    50   104   105    1
    51    29    28    1
    52    29    30    2
    53   132   131   ar
    54    28    25    1
    55   143   144   ar
    56   143   141   ar
    57   144   142   ar
    58    57    56    1
    59    57    58    1
    60    24    25    1
    61   131   133   ar
    62   131   130    1
    63   126   127    1
    64    71    69   ar
    65    71    72   ar
    66    25    26    1
    67    92    91    2
    68   141   139   ar
    69    69    66   ar
    70    56    55    1
    71   127   130    1
    72   127   128    1
    73    89    90    1
    74    40    38   ar
    75    40    42   ar
    76   142   140   ar
    77    72    70   ar
    78    38    37   ar
    79    26    32   am
    80    26    27    2
    81    91    90    1
    82    55    52    1
    83   139   140   ar
    84   139   138    1
    85    32    33    1
    86    90    93    1
    87    62    61    2
    88    93    94    1
    89   128   129    2
    90    66    64   ar
    91    66    68   ar
    92    42    41   ar
    93    63    64    1
    94    63    60    1
    95    70    68   ar
    96    37    36    1
    97    37    39   ar
    98    54    53    2
    99    52    53    1
   100    52    51    1
   101    61    60    1
   102    95    94   ar
   103    95    97   ar
   104    36    33    1
   105    64    65   ar
   106   138   135    1
   107    68    67   ar
   108    94    96   ar
   109    33    34    1
   110   135   134    1
   111   135   136    1
   112    41    39   ar
   113    60    59    1
   114    35    34    2
   115    97    99   ar
   116    51    45   am
   117    65    67   ar
   118    96    98   ar
   119   136   137    2
   120    46    45    2
   121    45    44    1
   122    99    98   ar
   123    50    48    1
   124    48    47    1
   125    48    49    1
   126    47    44    1
   127    23    22    1
   128    44    43    1
   129    14    13   ar
   130    22    21    1
   131    15    13   ar
   132    13    12    1
   133    21    20    1
   134     6     5    1
   135    20    17    1
   136    12     9    1
   137    19    18    2
   138     9     8    1
   139     9    10    1
   140     5     7    1
   141     5     2    1
   142    18    17    1
   143    17    16    1
   144    11    10    2
   145     8     3   am
   146     3     4    2
   147     3     2    1
   148     2     1    1
