@<TRIPOS>MOLECULE
tmp/4kwgH00.pdb
 120 116 0 0 0
SMALL
GASTEIGER

@<TRIPOS>ATOM
      1  N         19.5480   43.7750  -10.8210 N.3   114  VAL114     -0.1245
      2  CA        20.0770   44.1510   -9.5060 C.3   114  VAL114      0.1561
      3  C         20.9260   43.0300   -8.9030 C.2   114  VAL114      0.2260
      4  O         22.1520   43.1260   -8.9100 O.2   114  VAL114     -0.2867
      5  CB        18.9470   44.5870   -8.5380 C.3   114  VAL114      0.0252
      6  CG1       19.5210   45.0400   -7.1980 C.3   114  VAL114      0.0019
      7  CG2       18.1280   45.7070   -9.1670 C.3   114  VAL114      0.0019
      8  N         25.0510   42.9720   -8.8950 N.3   118  MET118     -0.1245
      9  CA        25.8070   43.1870   -7.6500 C.3   118  MET118      0.1570
     10  C         26.6760   41.9900   -7.2770 C.2   118  MET118      0.2261
     11  O         27.7450   42.1600   -6.6910 O.2   118  MET118     -0.2867
     12  CB        24.8690   43.4900   -6.4880 C.3   118  MET118      0.0387
     13  CG        24.1180   44.7980   -6.6050 C.3   118  MET118      0.0595
     14  SD        22.9680   44.9800   -5.2320 S.3   118  MET118     -0.1393
     15  CE        23.9950   45.8290   -4.0420 C.3   118  MET118      0.0692
     16  N         18.4640   37.3610   -0.1840 N.3   164  PHE164     -0.1241
     17  CA        19.2870   37.6360   -1.3680 C.3   164  PHE164      0.1605
     18  C         20.2590   36.4750   -1.5680 C.2   164  PHE164      0.2264
     19  O         21.4410   36.6010   -1.2390 O.2   164  PHE164     -0.2867
     20  CB        20.0820   38.9310   -1.1980 C.3   164  PHE164      0.0534
     21  CG        19.2360   40.1630   -1.1070 C.ar  164  PHE164     -0.0203
     22  CD1       18.9140   40.7120    0.1260 C.ar  164  PHE164     -0.0042
     23  CD2       18.7810   40.7930   -2.2570 C.ar  164  PHE164     -0.0042
     24  CE1       18.1390   41.8600    0.2140 C.ar  164  PHE164     -0.0003
     25  CE2       18.0060   41.9420   -2.1780 C.ar  164  PHE164     -0.0003
     26  CZ        17.6850   42.4770   -0.9440 C.ar  164  PHE164     -0.0000
     27  N         23.5900   36.8700   -4.0070 N.3   167  LEU167     -0.1231
     28  CA        24.3940   38.0000   -3.5760 C.3   167  LEU167      0.1693
     29  C         25.0520   37.7660   -2.2090 C.2   167  LEU167      0.2591
     30  O         26.1980   38.1520   -2.0040 O.2   167  LEU167     -0.2718
     31  CB        23.5400   39.2610   -3.5580 C.3   167  LEU167      0.0284
     32  CG        24.2390   40.5990   -3.3210 C.3   167  LEU167      0.0019
     33  CD1       25.4740   40.7720   -4.1930 C.3   167  LEU167      0.0001
     34  CD2       23.2390   41.7170   -3.5730 C.3   167  LEU167      0.0001
     35  N         24.3380   37.1290   -1.2880 N.am  168  MET168     -0.1979
     36  CA        24.8890   36.8700    0.0470 C.3   168  MET168      0.1605
     37  C         25.9580   35.7690    0.0100 C.2   168  MET168      0.2287
     38  O         26.8780   35.7660    0.8260 O.2   168  MET168     -0.2864
     39  CB        23.7850   36.5220    1.0470 C.3   168  MET168      0.0413
     40  CG        23.8970   37.3180    2.3320 C.3   168  MET168      0.0598
     41  SD        23.4790   39.0480    2.0710 S.3   168  MET168     -0.1393
     42  CE        21.7020   38.9350    2.2540 C.3   168  MET168      0.0692
     43  N         28.9970   37.9240   -1.2110 N.3   171  TRP171     -0.1241
     44  CA        29.4830   38.7090   -0.0670 C.3   171  TRP171      0.1605
     45  C         30.3610   37.8940    0.8860 C.2   171  TRP171      0.2264
     46  O         31.2870   38.4320    1.4860 O.2   171  TRP171     -0.2867
     47  CB        28.2990   39.2910    0.7130 C.3   171  TRP171      0.0550
     48  CG        27.6710   40.4940    0.0690 C.ar  171  TRP171      0.0003
     49  CD1       27.6460   40.8000   -1.2650 C.ar  171  TRP171      0.0946
     50  CD2       26.9550   41.5410    0.7320 C.ar  171  TRP171      0.0152
     51  NE1       26.9720   41.9800   -1.4670 N.ar  171  TRP171     -0.2442
     52  CE2       26.5310   42.4520   -0.2600 C.ar  171  TRP171      0.0810
     53  CE3       26.6380   41.8020    2.0670 C.ar  171  TRP171      0.0012
     54  CZ2       25.8050   43.6070    0.0440 C.ar  171  TRP171      0.0191
     55  CZ3       25.9130   42.9500    2.3700 C.ar  171  TRP171      0.0001
     56  CH2       25.5060   43.8370    1.3620 C.ar  171  TRP171      0.0015
     57  N         11.1690   47.3790   -1.2570 N.3   290  PHE290     -0.1241
     58  CA        12.1020   46.6050   -2.0830 C.3   290  PHE290      0.1605
     59  C         12.2400   45.1590   -1.5910 C.2   290  PHE290      0.2264
     60  O         12.2770   44.9020   -0.3820 O.2   290  PHE290     -0.2867
     61  CB        13.4860   47.2650   -2.1550 C.3   290  PHE290      0.0534
     62  CG        14.4210   46.5930   -3.1310 C.ar  290  PHE290     -0.0203
     63  CD1       15.5420   45.9050   -2.6880 C.ar  290  PHE290     -0.0042
     64  CD2       14.1590   46.6260   -4.4950 C.ar  290  PHE290     -0.0042
     65  CE1       16.3930   45.2770   -3.5810 C.ar  290  PHE290     -0.0003
     66  CE2       15.0050   46.0000   -5.3960 C.ar  290  PHE290     -0.0003
     67  CZ        16.1240   45.3200   -4.9370 C.ar  290  PHE290     -0.0000
     68  N         14.3000   42.8120    3.6420 N.3   295  CYS295     -0.1221
     69  CA        15.5650   43.5220    3.6360 C.3   295  CYS295      0.1808
     70  C         15.9160   43.8740    5.0640 C.2   295  CYS295      0.2601
     71  O         15.0990   44.4690    5.7670 O.2   295  CYS295     -0.2717
     72  CB        15.4140   44.8090    2.8420 C.3   295  CYS295      0.0970
     73  SG        15.5140   44.5960    1.0550 S.3   295  CYS295     -0.0800
     74  N         17.1320   43.5230    5.4740 N.am  296  CYS296     -0.1956
     75  CA        17.6140   43.7550    6.8340 C.3   296  CYS296      0.1843
     76  C         17.6280   45.2290    7.2030 C.2   296  CYS296      0.2626
     77  O         17.3330   45.5900    8.3450 O.2   296  CYS296     -0.2714
     78  CB        19.0230   43.1850    6.9830 C.3   296  CYS296      0.0997
     79  SG        19.1080   41.4260    6.5930 S.3   296  CYS296     -0.0797
     80  N         17.9710   46.0660    6.2280 N.am  297  CYS297     -0.1954
     81  CA        18.0290   47.5120    6.4130 C.3   297  CYS297      0.1843
     82  C         16.8420   48.2380    5.7620 C.2   297  CYS297      0.2625
     83  O         16.9660   49.3890    5.3570 O.2   297  CYS297     -0.2714
     84  CB        19.3410   48.0410    5.8350 C.3   297  CYS297      0.0997
     85  SG        19.4930   47.7430    4.0640 S.3   297  CYS297     -0.0797
     86  N         15.6910   47.5770    5.6740 N.am  298  ALA298     -0.1977
     87  CA        14.4760   48.2300    5.1830 C.3   298  ALA298      0.1597
     88  C         14.1870   49.5030    5.9800 C.2   298  ALA298      0.2287
     89  O         14.3830   49.5420    7.1920 O.2   298  ALA298     -0.2864
     90  CB        13.2900   47.2780    5.2630 C.3   298  ALA298      0.0319
     91  N         19.3720   52.3980    0.2100 N.3   451  ASP451     -0.1239
     92  CA        19.7990   51.0970   -0.3550 C.3   451  ASP451      0.1674
     93  C         20.8870   51.1980   -1.4360 C.2   451  ASP451      0.2266
     94  O         20.9090   50.4070   -2.3790 O.2   451  ASP451     -0.2867
     95  CB        18.5930   50.3260   -0.9170 C.3   451  ASP451      0.1410
     96  CG        17.7250   49.7140    0.1620 C.2   451  ASP451      0.3668
     97  OD1       18.1400   49.6950    1.3470 O.co2 451  ASP451     -0.2456
     98  OD2       16.6230   49.2410   -0.1860 O.co2 451  ASP451     -0.2456
     99  N         24.2930   50.3410   -2.1470 N.3   453  PHE453     -0.1241
    100  CA        25.4010   49.4890   -1.7510 C.3   453  PHE453      0.1605
    101  C         26.4550   49.5310   -2.8320 C.2   453  PHE453      0.2264
    102  O         26.1370   49.5740   -4.0180 O.2   453  PHE453     -0.2867
    103  CB        24.9440   48.0420   -1.5750 C.3   453  PHE453      0.0534
    104  CG        23.8700   47.8690   -0.5530 C.ar  453  PHE453     -0.0203
    105  CD1       22.5340   48.0190   -0.9010 C.ar  453  PHE453     -0.0042
    106  CD2       24.1870   47.5620    0.7570 C.ar  453  PHE453     -0.0042
    107  CE1       21.5350   47.8660    0.0450 C.ar  453  PHE453     -0.0003
    108  CE2       23.1910   47.4030    1.7050 C.ar  453  PHE453     -0.0003
    109  CZ        21.8630   47.5560    1.3490 C.ar  453  PHE453     -0.0000
    110  N         29.5540   47.5850    5.0430 N.3   459  PHE459     -0.1241
    111  CA        28.1800   47.5180    5.5110 C.3   459  PHE459      0.1605
    112  C         28.1110   46.5850    6.7150 C.2   459  PHE459      0.2264
    113  O         28.7160   45.5110    6.7090 O.2   459  PHE459     -0.2867
    114  CB        27.2990   46.9970    4.3850 C.3   459  PHE459      0.0534
    115  CG        25.8410   46.9650    4.7180 C.ar  459  PHE459     -0.0203
    116  CD1       25.0930   48.1330    4.7150 C.ar  459  PHE459     -0.0042
    117  CD2       25.2080   45.7670    5.0090 C.ar  459  PHE459     -0.0042
    118  CE1       23.7390   48.1090    5.0170 C.ar  459  PHE459     -0.0003
    119  CE2       23.8560   45.7330    5.3060 C.ar  459  PHE459     -0.0003
    120  CZ        23.1220   46.9060    5.3110 C.ar  459  PHE459     -0.0000
@<TRIPOS>BOND
     1     1     2    1
     2     2     3    1
     3     2     5    1
     4     7     5    1
     5     4     3    2
     6     8     9    1
     7     5     6    1
     8     9    10    1
     9     9    12    1
    10    10    11    2
    11    13    12    1
    12    13    14    1
    13    66    67   ar
    14    66    64   ar
    15    14    15    1
    16    67    65   ar
    17    64    62   ar
    18    33    32    1
    19   102   101    2
    20    27    28    1
    21    65    63   ar
    22    28    31    1
    23    28    29    1
    24    34    32    1
    25    31    32    1
    26    62    63   ar
    27    62    61    1
    28   101   100    1
    29    94    93    2
    30    23    25   ar
    31    23    21   ar
    32    29    30    2
    33    29    35   am
    34    25    26   ar
    35    61    58    1
    36    99   100    1
    37    58    59    1
    38    58    57    1
    39   100   103    1
    40    59    60    2
    41   103   104    1
    42    18    17    1
    43    18    19    2
    44    51    49   ar
    45    51    52   ar
    46    93    92    1
    47    17    20    1
    48    17    16    1
    49    35    36    1
    50    49    48   ar
    51    43    44    1
    52    20    21    1
    53    21    22   ar
    54    26    24   ar
    55    95    92    1
    56    95    96    1
    57   105   104   ar
    58   105   107   ar
    59   104   106   ar
    60    92    91    1
    61    52    54   ar
    62    52    50   ar
    63    98    96   ar
    64    44    47    1
    65    44    45    1
    66    37    36    1
    67    37    38    2
    68    54    56   ar
    69   107   109   ar
    70    36    39    1
    71    48    47    1
    72    48    50   ar
    73    22    24   ar
    74    96    97   ar
    75    50    53   ar
    76   106   108   ar
    77    45    46    2
    78    39    40    1
    79    73    72    1
    80   109   108   ar
    81    56    55   ar
    82    53    55   ar
    83    41    42    1
    84    41    40    1
    85    72    69    1
    86    69    68    1
    87    69    70    1
    88    85    84    1
    89   114   115    1
    90   114   111    1
    91   116   115   ar
    92   116   118   ar
    93   115   117   ar
    94   117   119   ar
    95   118   120   ar
    96   110   111    1
    97    70    74   am
    98    70    71    2
    99    87    90    1
   100    87    86    1
   101    87    88    1
   102   119   120   ar
   103    83    82    2
   104    74    75    1
   105   111   112    1
   106    86    82   am
   107    82    81    1
   108    84    81    1
   109    88    89    2
   110    80    81    1
   111    80    76   am
   112    79    78    1
   113   113   112    2
   114    75    78    1
   115    75    76    1
   116    76    77    2
