@<TRIPOS>MOLECULE
tmp/4kwhA01.pdb
 95 92 0 0 0
SMALL
GASTEIGER

@<TRIPOS>ATOM
      1  N         28.1580  -13.3120   26.2000 N.3    65  GLY65      -0.1210
      2  CA        27.4060  -14.4880   25.7360 C.3    65  GLY65       0.1956
      3  C         28.1700  -15.7860   25.8610 C.2    65  GLY65       0.2612
      4  O         27.7680  -16.8030   25.2830 O.2    65  GLY65      -0.2717
      5  N         29.2720  -15.7740   26.6030 N.am   66  VAL66      -0.1966
      6  CA        30.0810  -16.9570   26.8040 C.3    66  VAL66       0.1712
      7  C         30.3970  -17.0730   28.3040 C.2    66  VAL66       0.2458
      8  O         30.3520  -16.0700   29.0280 O.2    66  VAL66      -0.2730
      9  CB        31.3700  -16.8890   25.9590 C.3    66  VAL66       0.0289
     10  CG1       31.0200  -16.7560   24.4770 C.3    66  VAL66       0.0023
     11  CG2       32.2430  -15.7220   26.3920 C.3    66  VAL66       0.0023
     12  N         30.7130  -18.2870   28.7800 N.am   67  PRO67      -0.2716
     13  CA        31.0380  -18.4230   30.2030 C.3    67  PRO67       0.1536
     14  C         32.1740  -17.4950   30.6270 C.2    67  PRO67       0.2599
     15  O         33.1620  -17.3490   29.8970 O.2    67  PRO67      -0.2715
     16  CB        31.4700  -19.8910   30.3260 C.3    67  PRO67       0.0310
     17  CG        30.7680  -20.5820   29.1990 C.3    67  PRO67       0.0237
     18  CD        30.7650  -19.5890   28.0740 C.3    67  PRO67       0.0939
     19  N         32.0400  -16.8780   31.8010 N.am   68  GLY68      -0.1941
     20  CA        33.1070  -16.0160   32.3330 C.3    68  GLY68       0.2014
     21  C         33.0540  -14.5630   31.8630 C.2    68  GLY68       0.2639
     22  O         33.8850  -13.7530   32.2860 O.2    68  GLY68      -0.2714
     23  N         32.0940  -14.2470   30.9950 N.am   69  ASP69      -0.1957
     24  CA        31.9920  -12.9280   30.3390 C.3    69  ASP69       0.1840
     25  C         31.8840  -11.7730   31.3190 C.2    69  ASP69       0.2622
     26  O         32.6330  -10.7850   31.2160 O.2    69  ASP69      -0.2715
     27  CB        30.8450  -12.8560   29.2880 C.3    69  ASP69       0.1450
     28  CG        29.4610  -13.2670   29.8260 C.2    69  ASP69       0.3671
     29  OD1       29.3680  -13.7300   30.9940 O.co2  69  ASP69      -0.2456
     30  OD2       28.4530  -13.1250   29.0610 O.co2  69  ASP69      -0.2456
     31  N         30.9700  -11.8990   32.2710 N.am   70  VAL70      -0.1963
     32  CA        30.7350  -10.8150   33.2330 C.3    70  VAL70       0.1727
     33  C         31.9260  -10.6580   34.1800 C.2    70  VAL70       0.2616
     34  O         32.2980   -9.5370   34.5190 O.2    70  VAL70      -0.2715
     35  CB        29.3980  -11.0170   33.9860 C.3    70  VAL70       0.0290
     36  CG1       29.1860   -9.9450   35.0490 C.3    70  VAL70       0.0023
     37  CG2       28.2490  -11.0000   32.9920 C.3    70  VAL70       0.0023
     38  N         32.5690  -11.7710   34.5460 N.am   71  ASP71      -0.1971
     39  CA        33.7990  -11.7260   35.3330 C.3    71  ASP71       0.1709
     40  C         34.9050  -10.9670   34.6090 C.2    71  ASP71       0.2293
     41  O         35.5790  -10.1380   35.2190 O.2    71  ASP71      -0.2864
     42  CB        34.3200  -13.1360   35.6620 C.3    71  ASP71       0.1436
     43  CG        33.5400  -13.8340   36.7770 C.2    71  ASP71       0.3671
     44  OD1       32.6390  -13.2420   37.3960 O.co2  71  ASP71      -0.2456
     45  OD2       33.8640  -15.0160   37.0510 O.co2  71  ASP71      -0.2456
     46  N         21.5700  -14.9490   24.5310 N.3   118  ALA118     -0.1245
     47  CA        22.7700  -14.8490   25.3730 C.3   118  ALA118      0.1562
     48  C         23.3380  -13.4400   25.3780 C.2   118  ALA118      0.2260
     49  O         23.6840  -12.9130   26.4430 O.2   118  ALA118     -0.2867
     50  CB        23.8430  -15.8460   24.9430 C.3   118  ALA118      0.0290
     51  N         20.4690  -12.2130   28.3650 N.3   122  LYS122     -0.1231
     52  CA        21.1440  -12.8460   29.4690 C.3   122  LYS122      0.1693
     53  C         22.3060  -11.9940   29.9680 C.2   122  LYS122      0.2591
     54  O         22.4240  -11.7320   31.1790 O.2   122  LYS122     -0.2718
     55  CB        21.6180  -14.2560   29.0790 C.3   122  LYS122      0.0285
     56  CG        22.3240  -15.0090   30.1880 C.3   122  LYS122      0.0035
     57  CD        22.6710  -16.4230   29.7760 C.3   122  LYS122      0.0206
     58  CE        23.5150  -17.1430   30.8300 C.3   122  LYS122      0.1093
     59  NZ        23.9990  -18.4770   30.3310 N.3   122  LYS122     -0.1314
     60  N         23.1990  -11.5900   29.0730 N.am  123  ALA123     -0.1980
     61  CA        24.3590  -10.8000   29.5110 C.3   123  ALA123      0.1597
     62  C         23.9080   -9.4780   30.1800 C.2   123  ALA123      0.2287
     63  O         24.3880   -9.1590   31.2600 O.2   123  ALA123     -0.2864
     64  CB        25.3550  -10.5680   28.3730 C.3   123  ALA123      0.0319
     65  N         22.9480  -10.3140   33.8280 N.3   126  PHE126     -0.1241
     66  CA        24.0600  -10.6110   34.7410 C.3   126  PHE126      0.1605
     67  C         24.9870   -9.4150   34.9300 C.2   126  PHE126      0.2264
     68  O         25.6110   -9.2840   35.9860 O.2   126  PHE126     -0.2867
     69  CB        24.7890  -11.8830   34.3160 C.3   126  PHE126      0.0534
     70  CG        23.9980  -13.1040   34.6300 C.ar  126  PHE126     -0.0203
     71  CD1       23.8770  -13.5240   35.9420 C.ar  126  PHE126     -0.0042
     72  CD2       23.2650  -13.7510   33.6490 C.ar  126  PHE126     -0.0042
     73  CE1       23.0890  -14.6050   36.2610 C.ar  126  PHE126     -0.0003
     74  CE2       22.4810  -14.8400   33.9660 C.ar  126  PHE126     -0.0003
     75  CZ        22.3830  -15.2620   35.2820 C.ar  126  PHE126     -0.0000
     76  N         23.1410   -7.4650   37.5350 N.3   129  GLN129     -0.1231
     77  CA        23.3320   -8.1510   38.8070 C.3   129  GLN129      0.1698
     78  C         24.6800   -7.7810   39.4300 C.2   129  GLN129      0.2592
     79  O         24.7790   -7.4600   40.6320 O.2   129  GLN129     -0.2718
     80  CB        23.2240   -9.6590   38.6060 C.3   129  GLN129      0.0381
     81  CG        23.2200  -10.4480   39.8940 C.3   129  GLN129      0.0905
     82  CD        23.3750  -11.9280   39.6500 C.2   129  GLN129      0.2608
     83  OE1       24.3960  -12.3800   39.1300 O.2   129  GLN129     -0.2717
     84  NE2       22.3430  -12.6920   39.9880 N.am  129  GLN129     -0.0878
     85  N         25.7210   -7.8370   38.6210 N.am  130  ARG130     -0.1980
     86  CA        27.0720   -7.5700   39.0910 C.3   130  ARG130      0.1597
     87  C         27.2830   -6.0800   39.4110 C.2   130  ARG130      0.2287
     88  O         27.9800   -5.7260   40.3700 O.2   130  ARG130     -0.2864
     89  CB        28.0780   -8.0590   38.0460 C.3   130  ARG130      0.0334
     90  CG        29.5360   -7.9600   38.4490 C.3   130  ARG130      0.0492
     91  CD        29.8810   -8.7430   39.7030 C.3   130  ARG130      0.2205
     92  NE        31.3360   -8.7860   39.8640 N.pl3 130  ARG130     -0.0865
     93  CZ        32.1310   -9.7030   39.3050 C.cat 130  ARG130      0.5346
     94  NH1       31.6320  -10.6920   38.5660 N.pl3 130  ARG130      0.1354
     95  NH2       33.4300   -9.6350   39.4870 N.pl3 130  ARG130      0.1354
@<TRIPOS>BOND
     1    10     9    1
     2    46    47    1
     3    50    47    1
     4     4     3    2
     5    47    48    1
     6    48    49    2
     7     2     3    1
     8     2     1    1
     9     3     5   am
    10     9    11    1
    11     9     6    1
    12     5     6    1
    13     6     7    1
    14    18    12    1
    15    18    17    1
    16     7    12   am
    17     7     8    2
    18    51    52    1
    19    64    61    1
    20    12    13    1
    21    30    28   ar
    22    60    61    1
    23    60    53   am
    24    55    52    1
    25    55    56    1
    26    17    16    1
    27    27    28    1
    28    27    24    1
    29    52    53    1
    30    61    62    1
    31    57    56    1
    32    57    58    1
    33    28    29   ar
    34    15    14    2
    35    53    54    2
    36    62    63    2
    37    13    16    1
    38    13    14    1
    39    59    58    1
    40    24    23    1
    41    24    25    1
    42    14    19   am
    43    23    21   am
    44    26    25    2
    45    25    31   am
    46    19    20    1
    47    21    22    2
    48    21    20    1
    49    31    32    1
    50    37    35    1
    51    32    35    1
    52    32    33    1
    53    72    74   ar
    54    72    70   ar
    55    65    66    1
    56    74    75   ar
    57    35    36    1
    58    33    34    2
    59    33    38   am
    60    69    70    1
    61    69    66    1
    62    38    39    1
    63    40    41    2
    64    40    39    1
    65    70    71   ar
    66    66    67    1
    67    67    68    2
    68    75    73   ar
    69    39    42    1
    70    42    43    1
    71    71    73   ar
    72    43    45   ar
    73    43    44   ar
    74    76    77    1
    75    89    90    1
    76    89    86    1
    77    90    91    1
    78    94    93    1
    79    80    77    1
    80    80    81    1
    81    85    86    1
    82    85    78   am
    83    77    78    1
    84    86    87    1
    85    83    82    2
    86    93    95    1
    87    93    92    2
    88    87    88    2
    89    78    79    2
    90    82    81    1
    91    82    84   am
    92    91    92    1
