@<TRIPOS>MOLECULE
tmp/4kwiA01.pdb
 141 131 0 0 0
SMALL
GASTEIGER

@<TRIPOS>ATOM
      1  N        -22.0010    8.7270  -37.4380 N.3   100  MET100     -0.1245
      2  CA       -20.7920    8.9520  -38.2230 C.3   100  MET100      0.1570
      3  C        -21.0750   10.0150  -39.2900 C.2   100  MET100      0.2261
      4  O        -22.1710   10.0660  -39.8350 O.2   100  MET100     -0.2867
      5  CB       -20.3360    7.6450  -38.8730 C.3   100  MET100      0.0387
      6  CG       -18.8520    7.6000  -39.1970 C.3   100  MET100      0.0595
      7  SD       -18.2900    5.9300  -39.5930 S.3   100  MET100     -0.1393
      8  CE       -18.5630    5.9130  -41.3680 C.3   100  MET100      0.0692
      9  N        -18.6000   11.2910  -42.3200 N.3   102  MET102     -0.1245
     10  CA       -17.3370   11.3390  -43.0740 C.3   102  MET102      0.1570
     11  C        -17.2040   12.5680  -43.9830 C.2   102  MET102      0.2261
     12  O        -18.1810   13.0110  -44.5820 O.2   102  MET102     -0.2867
     13  CB       -17.1920   10.0480  -43.8870 C.3   102  MET102      0.0387
     14  CG       -16.0820   10.0470  -44.9230 C.3   102  MET102      0.0595
     15  SD       -16.0670    8.4880  -45.8170 S.3   102  MET102     -0.1393
     16  CE       -17.2310    8.8220  -47.1480 C.3   102  MET102      0.0692
     17  N        -14.4600    1.8310  -31.8910 N.3   146  SER146     -0.1202
     18  CA       -14.1460    1.6090  -33.3100 C.3   146  SER146      0.2020
     19  C        -12.6410    1.4460  -33.5060 C.2   146  SER146      0.2619
     20  O        -11.8470    2.1170  -32.8360 O.2   146  SER146     -0.2717
     21  CB       -14.5920    2.8050  -34.1390 C.3   146  SER146      0.2103
     22  OG       -14.0690    2.7290  -35.4560 O.3   146  SER146     -0.2182
     23  N        -12.2510    0.5820  -34.4430 N.am  147  GLY147     -0.1942
     24  CA       -10.8350    0.4770  -34.8570 C.3   147  GLY147      0.2014
     25  C        -10.2280    1.8080  -35.3010 C.2   147  GLY147      0.2638
     26  O         -9.0050    1.9880  -35.2560 O.2   147  GLY147     -0.2714
     27  N        -11.0800    2.7600  -35.6910 N.am  148  LEU148     -0.1977
     28  CA       -10.6080    4.0910  -36.1100 C.3   148  LEU148      0.1596
     29  C         -9.9280    4.9110  -35.0150 C.2   148  LEU148      0.2287
     30  O         -9.3850    5.9840  -35.2960 O.2   148  LEU148     -0.2864
     31  CB       -11.7290    4.9000  -36.7720 C.3   148  LEU148      0.0297
     32  CG       -12.0990    4.4980  -38.2130 C.3   148  LEU148      0.0022
     33  CD1      -13.5050    4.9510  -38.5810 C.3   148  LEU148      0.0001
     34  CD2      -11.1030    4.9860  -39.2470 C.3   148  LEU148      0.0001
     35  N         -6.4380    3.4540  -36.2700 N.3   151  VAL151     -0.1245
     36  CA        -6.1030    3.5780  -37.7010 C.3   151  VAL151      0.1561
     37  C         -6.3960    5.0080  -38.1800 C.2   151  VAL151      0.2260
     38  O         -7.5500    5.4500  -38.1650 O.2   151  VAL151     -0.2867
     39  CB        -6.8880    2.5590  -38.5740 C.3   151  VAL151      0.0252
     40  CG1       -6.5160    2.6850  -40.0530 C.3   151  VAL151      0.0019
     41  CG2       -6.6330    1.1280  -38.1030 C.3   151  VAL151      0.0019
     42  N         -7.3690    8.0680  -40.2720 N.3   153  SER153     -0.1217
     43  CA        -8.1850    8.4100  -41.4510 C.3   153  SER153      0.1889
     44  C         -8.6610    9.8580  -41.3240 C.2   153  SER153      0.2288
     45  O         -9.5620   10.1470  -40.5240 O.2   153  SER153     -0.2866
     46  CB        -9.3970    7.4800  -41.6070 C.3   153  SER153      0.2089
     47  OG        -9.0300    6.1230  -41.4150 O.3   153  SER153     -0.2183
     48  N        -12.2700   10.9300  -40.9880 N.3   156  GLN156     -0.1245
     49  CA       -12.9880   10.4300  -39.8210 C.3   156  GLN156      0.1566
     50  C        -12.4780   11.0230  -38.5090 C.2   156  GLN156      0.2260
     51  O        -12.7720   10.4880  -37.4270 O.2   156  GLN156     -0.2867
     52  CB       -12.8690    8.9000  -39.7500 C.3   156  GLN156      0.0367
     53  CG       -13.3660    8.1320  -40.9740 C.3   156  GLN156      0.0905
     54  CD       -14.8760    7.9940  -41.0140 C.2   156  GLN156      0.2608
     55  OE1      -15.5980    8.7610  -40.3750 O.2   156  GLN156     -0.2717
     56  NE2      -15.3640    7.0090  -41.7640 N.am  156  GLN156     -0.0878
     57  N        -15.0200   11.8520  -35.7020 N.3   159  TYR159     -0.1241
     58  CA       -15.4960   10.5450  -35.2540 C.3   159  TYR159      0.1605
     59  C        -14.4570    9.8820  -34.3330 C.2   159  TYR159      0.2264
     60  O        -14.7900    9.4460  -33.2260 O.2   159  TYR159     -0.2867
     61  CB       -15.8030    9.6590  -36.4450 C.3   159  TYR159      0.0534
     62  CG       -16.2560    8.2680  -36.0660 C.ar  159  TYR159     -0.0201
     63  CD1      -17.6050    7.9940  -35.8360 C.ar  159  TYR159     -0.0009
     64  CD2      -15.3410    7.2190  -35.9640 C.ar  159  TYR159     -0.0009
     65  CE1      -18.0250    6.7120  -35.4980 C.ar  159  TYR159      0.0417
     66  CE2      -15.7540    5.9370  -35.6290 C.ar  159  TYR159      0.0417
     67  CZ       -17.0930    5.6890  -35.3960 C.ar  159  TYR159      0.1957
     68  OH       -17.5180    4.4160  -35.0690 O.3   159  TYR159     -0.2866
     69  N        -15.2120   -2.8170  -32.9830 N.3   189  PRO189     -0.2102
     70  CA       -15.4210   -3.5590  -34.2240 C.3   189  PRO189      0.1504
     71  C        -14.5880   -2.9890  -35.3510 C.2   189  PRO189      0.2576
     72  O        -14.1390   -1.8410  -35.2880 O.2   189  PRO189     -0.2718
     73  CB       -16.9090   -3.3290  -34.5370 C.3   189  PRO189      0.0282
     74  CG       -17.4680   -2.5650  -33.3790 C.3   189  PRO189      0.0208
     75  CD       -16.3240   -1.8990  -32.6960 C.3   189  PRO189      0.0893
     76  N        -14.3600   -3.7950  -36.3740 N.am  190  GLY190     -0.1943
     77  CA       -13.8750   -3.2660  -37.6330 C.3   190  GLY190      0.2014
     78  C        -15.0980   -2.9600  -38.4710 C.2   190  GLY190      0.2640
     79  O        -16.2180   -2.8690  -37.9460 O.2   190  GLY190     -0.2714
     80  N        -14.8860   -2.8100  -39.7720 N.am  191  SER191     -0.1935
     81  CA       -15.9680   -2.6010  -40.7240 C.3   191  SER191      0.2055
     82  C        -17.0010   -3.7210  -40.6110 C.2   191  SER191      0.2643
     83  O        -16.6710   -4.9030  -40.7530 O.2   191  SER191     -0.2714
     84  CB       -15.4020   -2.5340  -42.1430 C.3   191  SER191      0.2130
     85  OG       -16.3930   -2.1400  -43.0720 O.3   191  SER191     -0.2179
     86  N        -18.2480   -3.3320  -40.3560 N.am  192  THR192     -0.1950
     87  CA       -19.3320   -4.2640  -40.0880 C.3   192  THR192      0.1897
     88  C        -20.5640   -3.8920  -40.9090 C.2   192  THR192      0.2313
     89  O        -21.0140   -2.7440  -40.8730 O.2   192  THR192     -0.2863
     90  CB       -19.7140   -4.2260  -38.5860 C.3   192  THR192      0.1794
     91  OG1      -18.5390   -4.4480  -37.7920 O.3   192  THR192     -0.2208
     92  CG2      -20.7710   -5.2790  -38.2560 C.3   192  THR192      0.0378
     93  N        -25.1200    1.4680  -48.0210 N.3   198  LEU198     -0.1231
     94  CA       -23.6850    1.7010  -48.1900 C.3   198  LEU198      0.1693
     95  C        -22.8820    0.4060  -48.4480 C.2   198  LEU198      0.2592
     96  O        -22.0590    0.3570  -49.3670 O.2   198  LEU198     -0.2718
     97  CB       -23.1350    2.4390  -46.9600 C.3   198  LEU198      0.0284
     98  CG       -21.6230    2.5510  -46.7380 C.3   198  LEU198      0.0019
     99  CD1      -21.0340    3.7050  -47.5400 C.3   198  LEU198      0.0001
    100  CD2      -21.3400    2.7250  -45.2520 C.3   198  LEU198      0.0001
    101  N        -23.1360   -0.6290  -47.6430 N.am  199  PHE199     -0.1976
    102  CA       -22.3840   -1.8950  -47.6960 C.3   199  PHE199      0.1639
    103  C        -22.7810   -2.8210  -48.8500 C.2   199  PHE199      0.2290
    104  O        -22.2710   -3.9440  -48.9600 O.2   199  PHE199     -0.2864
    105  CB       -22.5030   -2.6460  -46.3630 C.3   199  PHE199      0.0560
    106  CG       -21.7330   -2.0140  -45.2410 C.ar  199  PHE199     -0.0200
    107  CD1      -22.3110   -1.0200  -44.4560 C.ar  199  PHE199     -0.0042
    108  CD2      -20.4280   -2.4070  -44.9720 C.ar  199  PHE199     -0.0042
    109  CE1      -21.6020   -0.4320  -43.4220 C.ar  199  PHE199     -0.0003
    110  CE2      -19.7150   -1.8230  -43.9420 C.ar  199  PHE199     -0.0003
    111  CZ       -20.3000   -0.8310  -43.1700 C.ar  199  PHE199     -0.0000
    112  N        -17.3850   -0.0840  -52.6560 N.3   204  VAL204     -0.1245
    113  CA       -17.2250    0.2880  -51.2460 C.3   204  VAL204      0.1561
    114  C        -17.0030   -0.9750  -50.3980 C.2   204  VAL204      0.2260
    115  O        -16.1510   -0.9920  -49.5140 O.2   204  VAL204     -0.2867
    116  CB       -18.4270    1.1060  -50.7160 C.3   204  VAL204      0.0252
    117  CG1      -18.2490    1.4360  -49.2360 C.3   204  VAL204      0.0019
    118  CG2      -18.5990    2.3900  -51.5150 C.3   204  VAL204      0.0019
    119  N        -13.6000   -1.8870  -48.1260 N.3   208  LEU208     -0.1245
    120  CA       -13.8060   -2.2060  -46.7120 C.3   208  LEU208      0.1561
    121  C        -13.4410   -3.6410  -46.3560 C.2   208  LEU208      0.2260
    122  O        -12.9610   -3.8940  -45.2580 O.2   208  LEU208     -0.2867
    123  CB       -15.2430   -1.8940  -46.2700 C.3   208  LEU208      0.0270
    124  CG       -15.7170   -0.4400  -46.3550 C.3   208  LEU208      0.0019
    125  CD1      -17.1700   -0.3380  -45.9210 C.3   208  LEU208      0.0001
    126  CD2      -14.8340    0.5020  -45.5510 C.3   208  LEU208      0.0001
    127  N         -9.6710   -4.2280  -45.4100 N.3   211  LEU211     -0.1245
    128  CA        -9.1600   -3.7710  -44.1020 C.3   211  LEU211      0.1561
    129  C         -8.8900   -4.9050  -43.1040 C.2   211  LEU211      0.2260
    130  O         -7.9200   -4.8600  -42.3440 O.2   211  LEU211     -0.2867
    131  CB       -10.1250   -2.7630  -43.4770 C.3   211  LEU211      0.0270
    132  CG       -10.2930   -1.4000  -44.1610 C.3   211  LEU211      0.0019
    133  CD1      -11.5600   -0.7030  -43.6800 C.3   211  LEU211      0.0001
    134  CD2       -9.0820   -0.5170  -43.9040 C.3   211  LEU211      0.0001
    135  N         -7.9050   -5.9470  -38.2550 N.3   249  THR249     -0.1218
    136  CA        -7.8010   -4.6640  -38.9450 C.3   249  THR249      0.1862
    137  C         -6.6730   -3.8000  -38.3760 C.2   249  THR249      0.2287
    138  O         -6.1430   -2.9300  -39.0630 O.2   249  THR249     -0.2866
    139  CB        -9.1550   -3.9150  -38.8920 C.3   249  THR249      0.1770
    140  OG1      -10.1540   -4.7110  -39.5440 O.3   249  THR249     -0.2211
    141  CG2       -9.0810   -2.5620  -39.5890 C.3   249  THR249      0.0375
@<TRIPOS>BOND
     1   112   113    1
     2   118   116    1
     3   113   116    1
     4   113   114    1
     5   116   117    1
     6   114   115    2
     7    96    95    2
     8   104   103    2
     9   103   102    1
    10    95    94    1
    11    95   101   am
    12    94    93    1
    13    94    97    1
    14   119   120    1
    15   102   101    1
    16   102   105    1
    17    99    98    1
    18    16    15    1
    19    97    98    1
    20    98   100    1
    21   120   121    1
    22   120   123    1
    23   105   106    1
    24   121   122    2
    25   124   123    1
    26   124   125    1
    27   124   126    1
    28    15    14    1
    29   127   128    1
    30   106   108   ar
    31   106   107   ar
    32   108   110   ar
    33    14    13    1
    34    12    11    2
    35   107   109   ar
    36   132   134    1
    37   132   133    1
    38   132   131    1
    39   128   131    1
    40   128   129    1
    41    11    10    1
    42   110   111   ar
    43    13    10    1
    44   109   111   ar
    45   129   130    2
    46    10     9    1
    47    85    84    1
    48    84    81    1
    49    56    54   am
    50    46    43    1
    51    46    47    1
    52    43    44    1
    53    43    42    1
    54     8     7    1
    55    44    45    2
    56    54    53    1
    57    54    55    2
    58    48    49    1
    59    53    52    1
    60    88    89    2
    61    88    87    1
    62    83    82    2
    63    81    82    1
    64    81    80    1
    65    82    86   am
    66    86    87    1
    67    87    90    1
    68    40    39    1
    69     4     3    2
    70    49    52    1
    71    49    50    1
    72    80    78   am
    73     7     6    1
    74   141   139    1
    75   140   139    1
    76     3     2    1
    77    34    32    1
    78     6     5    1
    79   138   137    2
    80   136   139    1
    81   136   137    1
    82   136   135    1
    83     5     2    1
    84    90    92    1
    85    90    91    1
    86    33    32    1
    87    39    41    1
    88    39    36    1
    89    50    51    2
    90    78    79    2
    91    78    77    1
    92     2     1    1
    93    32    31    1
    94    37    38    2
    95    37    36    1
    96    36    35    1
    97    77    76    1
    98    31    28    1
    99    61    62    1
   100    61    58    1
   101    76    71   am
   102    28    27    1
   103    28    29    1
   104    62    64   ar
   105    62    63   ar
   106    64    66   ar
   107    63    65   ar
   108    57    58    1
   109    27    25   am
   110    66    67   ar
   111    65    67   ar
   112    22    21    1
   113    67    68    1
   114    71    72    2
   115    71    70    1
   116    25    26    2
   117    25    24    1
   118    30    29    2
   119    58    59    1
   120    24    23    1
   121    73    70    1
   122    73    74    1
   123    23    19   am
   124    59    60    2
   125    70    69    1
   126    21    18    1
   127    19    18    1
   128    19    20    2
   129    74    75    1
   130    18    17    1
   131    69    75    1
