@<TRIPOS>MOLECULE
tmp/4kwkA00.pdb
 145 140 0 0 0
SMALL
GASTEIGER

@<TRIPOS>ATOM
      1  N          1.3340  -10.2240  -28.6540 N.3    55  TYR55      -0.1241
      2  CA         0.1570  -10.3450  -27.7820 C.3    55  TYR55       0.1605
      3  C          0.2080   -9.3320  -26.6220 C.2    55  TYR55       0.2264
      4  O          1.2890   -8.9350  -26.1700 O.2    55  TYR55      -0.2867
      5  CB        -0.0150  -11.7740  -27.2700 C.3    55  TYR55       0.0534
      6  CG         0.9500  -12.1990  -26.1810 C.ar   55  TYR55      -0.0201
      7  CD1        0.6060  -12.0680  -24.8230 C.ar   55  TYR55      -0.0009
      8  CD2        2.1860  -12.7560  -26.4930 C.ar   55  TYR55      -0.0009
      9  CE1        1.4720  -12.4800  -23.8190 C.ar   55  TYR55       0.0417
     10  CE2        3.0630  -13.1730  -25.4850 C.ar   55  TYR55       0.0417
     11  CZ         2.6990  -13.0340  -24.1550 C.ar   55  TYR55       0.1957
     12  OH         3.5550  -13.4290  -23.1390 O.3    55  TYR55      -0.2866
     13  N         -1.3860   -8.0430  -22.6910 N.3    57  ARG57      -0.1245
     14  CA        -1.9420   -8.5010  -21.4120 C.3    57  ARG57       0.1563
     15  C         -2.6830   -7.3330  -20.7720 C.2    57  ARG57       0.2260
     16  O         -2.1000   -6.2720  -20.5700 O.2    57  ARG57      -0.2867
     17  CB        -0.8280   -8.9540  -20.4660 C.3    57  ARG57       0.0307
     18  CG         0.0830  -10.0210  -21.0430 C.3    57  ARG57       0.0489
     19  CD         1.3700  -10.1270  -20.2090 C.3    57  ARG57       0.2205
     20  NE         1.1770  -10.8540  -18.9520 N.pl3  57  ARG57      -0.0865
     21  CZ         1.2400  -10.3140  -17.7300 C.cat  57  ARG57       0.5346
     22  NH1        1.4870   -9.0170  -17.5640 N.pl3  57  ARG57       0.1354
     23  NH2        1.0780  -11.0800  -16.6520 N.pl3  57  ARG57       0.1354
     24  N         -6.7490  -11.3940  -15.9950 N.3    70  MET70      -0.1245
     25  CA        -6.3400  -10.5860  -17.1450 C.3    70  MET70       0.1570
     26  C         -6.8060  -11.1980  -18.4550 C.2    70  MET70       0.2261
     27  O         -7.1160  -12.3980  -18.5150 O.2    70  MET70      -0.2867
     28  CB        -4.8110  -10.4050  -17.1750 C.3    70  MET70       0.0387
     29  CG        -4.0390  -11.7030  -17.3050 C.3    70  MET70       0.0595
     30  SD        -2.3070  -11.3930  -16.9950 S.3    70  MET70      -0.1393
     31  CE        -2.3640  -11.2090  -15.2140 C.3    70  MET70       0.0692
     32  N         -5.7780  -11.7180  -22.3970 N.3    72  LEU72      -0.1245
     33  CA        -4.6750  -11.6680  -23.3410 C.3    72  LEU72       0.1561
     34  C         -5.2020  -11.6860  -24.7830 C.2    72  LEU72       0.2260
     35  O         -6.0860  -12.4560  -25.1320 O.2    72  LEU72      -0.2867
     36  CB        -3.6700  -12.8030  -23.1050 C.3    72  LEU72       0.0270
     37  CG        -2.5560  -12.5500  -22.0800 C.3    72  LEU72       0.0019
     38  CD1       -3.1500  -12.2050  -20.7050 C.3    72  LEU72       0.0001
     39  CD2       -1.6130  -13.7520  -21.9860 C.3    72  LEU72       0.0001
     40  N         -4.2400  -12.0280  -28.7470 N.3    74  TRP74      -0.1241
     41  CA        -3.2460  -12.6300  -29.6390 C.3    74  TRP74       0.1605
     42  C         -3.6400  -12.3880  -31.0630 C.2    74  TRP74       0.2264
     43  O         -4.6120  -12.9910  -31.5770 O.2    74  TRP74      -0.2867
     44  CB        -3.2430  -14.1320  -29.4270 C.3    74  TRP74       0.0550
     45  CG        -3.2170  -14.5880  -27.9820 C.ar   74  TRP74       0.0003
     46  CD1       -4.3040  -14.6830  -27.0940 C.ar   74  TRP74       0.0946
     47  CD2       -2.0620  -15.0710  -27.2270 C.ar   74  TRP74       0.0152
     48  NE1       -3.9040  -15.1940  -25.8870 N.ar   74  TRP74      -0.2442
     49  CE2       -2.5720  -15.4510  -25.8930 C.ar   74  TRP74       0.0810
     50  CE3       -0.6970  -15.2390  -27.5060 C.ar   74  TRP74       0.0012
     51  CZ2       -1.7240  -15.9480  -24.8920 C.ar   74  TRP74       0.0191
     52  CZ3        0.1380  -15.7430  -26.4950 C.ar   74  TRP74       0.0001
     53  CH2       -0.3650  -16.0880  -25.2120 C.ar   74  TRP74       0.0015
     54  N          7.7500  -20.6800  -21.0680 N.3    83  HIS83      -0.1241
     55  CA         7.8820  -19.9970  -19.7830 C.3    83  HIS83       0.1621
     56  C          7.3500  -20.8030  -18.6090 C.2    83  HIS83       0.2264
     57  O          6.5750  -21.7580  -18.7710 O.2    83  HIS83      -0.2867
     58  CB         7.2310  -18.6100  -19.8670 C.3    83  HIS83       0.0745
     59  CG         5.7700  -18.6600  -20.2370 C.ar   83  HIS83       0.0817
     60  ND1        5.3450  -18.6950  -21.5250 N.ar   83  HIS83      -0.2268
     61  CD2        4.6210  -18.7730  -19.4370 C.ar   83  HIS83       0.1154
     62  CE1        4.0030  -18.7750  -21.5500 C.ar   83  HIS83       0.1986
     63  NE2        3.5590  -18.8400  -20.2710 N.ar   83  HIS83      -0.2212
     64  N          5.7540  -20.3250  -14.4000 N.3    85  HIS85      -0.1241
     65  CA         4.7190  -19.4940  -13.7530 C.3    85  HIS85       0.1621
     66  C          4.9810  -19.1510  -12.3120 C.2    85  HIS85       0.2264
     67  O          4.0390  -18.9700  -11.5370 O.2    85  HIS85      -0.2867
     68  CB         3.3310  -20.1010  -13.9480 C.3    85  HIS85       0.0745
     69  CG         2.9970  -20.3280  -15.3910 C.ar   85  HIS85       0.0817
     70  ND1        3.4050  -21.4300  -16.0590 N.ar   85  HIS85      -0.2268
     71  CD2        2.3490  -19.5110  -16.3230 C.ar   85  HIS85       0.1154
     72  CE1        2.9930  -21.3480  -17.3370 C.ar   85  HIS85       0.1986
     73  NE2        2.3690  -20.1630  -17.5020 N.ar   85  HIS85      -0.2212
     74  N         -1.8980  -21.2140  -12.6170 N.3    90  CYS90      -0.1235
     75  CA        -2.2140  -20.4550  -13.8160 C.3    90  CYS90       0.1672
     76  C         -3.3720  -21.1110  -14.5660 C.2    90  CYS90       0.2270
     77  O         -3.2510  -22.2700  -14.9980 O.2    90  CYS90      -0.2867
     78  CB        -0.9720  -20.3790  -14.7040 C.3    90  CYS90       0.0892
     79  SG        -1.2170  -19.4150  -16.2110 S.3    90  CYS90      -0.1085
     80  N         -6.0920  -20.7470  -17.8050 N.3    92  LEU92      -0.1245
     81  CA        -6.2570  -20.1180  -19.1100 C.3    92  LEU92       0.1561
     82  C         -7.5820  -20.5180  -19.7580 C.2    92  LEU92       0.2260
     83  O         -7.7220  -21.6780  -20.1170 O.2    92  LEU92      -0.2867
     84  CB        -5.1100  -20.6200  -19.9960 C.3    92  LEU92       0.0270
     85  CG        -4.7240  -19.9230  -21.2850 C.3    92  LEU92       0.0019
     86  CD1       -3.3700  -20.4610  -21.7230 C.3    92  LEU92       0.0001
     87  CD2       -5.7620  -20.1380  -22.3790 C.3    92  LEU92       0.0001
     88  N          5.3700  -24.2320  -20.5270 N.3   137  HIS137     -0.1241
     89  CA         4.5580  -24.2230  -21.7310 C.3   137  HIS137      0.1621
     90  C          4.7830  -23.0480  -22.6230 C.2   137  HIS137      0.2264
     91  O          5.3600  -22.0450  -22.2210 O.2   137  HIS137     -0.2867
     92  CB         3.0740  -24.4950  -21.4300 C.3   137  HIS137      0.0745
     93  CG         2.2640  -23.2890  -20.9840 C.ar  137  HIS137      0.0817
     94  ND1        0.9280  -23.3320  -20.9030 N.ar  137  HIS137     -0.2268
     95  CD2        2.6420  -22.0010  -20.5980 C.ar  137  HIS137      0.1154
     96  CE1        0.4660  -22.1460  -20.4890 C.ar  137  HIS137      0.1986
     97  NE2        1.5190  -21.3300  -20.3040 N.ar  137  HIS137     -0.2212
     98  N          2.3670  -20.8460  -25.5110 N.3   139  VAL139     -0.1245
     99  CA         0.9910  -20.6600  -25.9780 C.3   139  VAL139      0.1561
    100  C          1.0570  -19.8280  -27.2530 C.2   139  VAL139      0.2260
    101  O          1.7600  -18.8130  -27.2880 O.2   139  VAL139     -0.2867
    102  CB         0.1160  -19.9790  -24.8930 C.3   139  VAL139      0.0252
    103  CG1       -1.2640  -19.6710  -25.4190 C.3   139  VAL139      0.0019
    104  CG2       -0.0140  -20.8870  -23.6700 C.3   139  VAL139      0.0019
    105  N         -7.0080  -15.2020  -18.3350 N.3   152  HIS152     -0.1241
    106  CA        -5.9830  -15.8370  -17.5090 C.3   152  HIS152      0.1621
    107  C         -6.1330  -15.4260  -16.0600 C.2   152  HIS152      0.2264
    108  O         -6.3230  -14.2510  -15.7630 O.2   152  HIS152     -0.2867
    109  CB        -4.5830  -15.4250  -17.9780 C.3   152  HIS152      0.0745
    110  CG        -4.2240  -15.9400  -19.3680 C.ar  152  HIS152      0.0817
    111  ND1       -3.1370  -16.7060  -19.6050 N.ar  152  HIS152     -0.2268
    112  CD2       -4.8600  -15.7800  -20.5850 C.ar  152  HIS152      0.1154
    113  CE1       -3.0780  -17.0070  -20.9200 C.ar  152  HIS152      0.1986
    114  NE2       -4.1390  -16.4490  -21.5170 N.ar  152  HIS152     -0.2212
    115  N         -3.9980  -15.9070  -12.3810 N.3   154  TYR154     -0.1241
    116  CA        -2.7630  -16.3420  -11.7240 C.3   154  TYR154      0.1605
    117  C         -2.8660  -16.0850  -10.2390 C.2   154  TYR154      0.2264
    118  O         -3.1950  -14.9730   -9.8490 O.2   154  TYR154     -0.2867
    119  CB        -1.5550  -15.5770  -12.2890 C.3   154  TYR154      0.0534
    120  CG        -1.3690  -15.8700  -13.7580 C.ar  154  TYR154     -0.0196
    121  CD1       -1.4510  -14.8550  -14.7170 C.ar  154  TYR154     -0.0009
    122  CD2       -1.1830  -17.1600  -14.1840 C.ar  154  TYR154      0.0052
    123  CE1       -1.3180  -15.1290  -16.0760 C.ar  154  TYR154      0.0422
    124  CE2       -1.0570  -17.4410  -15.5380 C.ar  154  TYR154      0.0639
    125  CZ        -1.1250  -16.4170  -16.4740 C.ar  154  TYR154      0.2013
    126  OH        -1.0060  -16.7370  -17.8140 O.3   154  TYR154     -0.2860
    127  N          1.8850  -12.5710  -10.0430 N.3   158  PHE158     -0.1241
    128  CA         3.3210  -12.4110  -10.2410 C.3   158  PHE158      0.1605
    129  C          3.5280  -11.5020  -11.4330 C.2   158  PHE158      0.2264
    130  O          2.7160  -11.4960  -12.3640 O.2   158  PHE158     -0.2867
    131  CB         4.0270  -13.7670  -10.4280 C.3   158  PHE158      0.0534
    132  CG         3.5230  -14.5850  -11.6000 C.ar  158  PHE158     -0.0203
    133  CD1        4.1610  -14.5110  -12.8430 C.ar  158  PHE158     -0.0042
    134  CD2        2.4480  -15.4640  -11.4530 C.ar  158  PHE158     -0.0042
    135  CE1        3.7300  -15.2780  -13.9110 C.ar  158  PHE158     -0.0003
    136  CE2        2.0040  -16.2410  -12.5310 C.ar  158  PHE158     -0.0003
    137  CZ         2.6420  -16.1340  -13.7560 C.ar  158  PHE158     -0.0000
    138  N          7.0400   -8.9300  -16.7730 N.3   176  MET176     -0.1245
    139  CA         5.8290   -8.8890  -17.5520 C.3   176  MET176      0.1570
    140  C          5.1700   -7.5390  -17.3260 C.2   176  MET176      0.2261
    141  O          5.1480   -7.0220  -16.2030 O.2   176  MET176     -0.2867
    142  CB         4.9130  -10.0390  -17.1580 C.3   176  MET176      0.0387
    143  CG         5.6230  -11.3900  -17.2260 C.3   176  MET176      0.0595
    144  SD         4.7650  -12.6190  -16.2410 S.3   176  MET176     -0.1393
    145  CE         3.7100  -13.2940  -17.5200 C.3   176  MET176      0.0692
@<TRIPOS>BOND
     1    43    42    2
     2    42    41    1
     3    41    44    1
     4    41    40    1
     5    44    45    1
     6     1     2    1
     7    45    47   ar
     8    45    46   ar
     9     2     5    1
    10     2     3    1
    11    50    47   ar
    12    50    52   ar
    13   101   100    2
    14     5     6    1
    15   100    99    1
    16    47    49   ar
    17    46    48   ar
    18     3     4    2
    19    52    53   ar
    20     8     6   ar
    21     8    10   ar
    22     6     7   ar
    23    99    98    1
    24    99   102    1
    25    49    48   ar
    26    49    51   ar
    27    10    11   ar
    28   103   102    1
    29    53    51   ar
    30    35    34    2
    31   102   104    1
    32     7     9   ar
    33    34    33    1
    34    11     9   ar
    35    11    12    1
    36    33    36    1
    37    33    32    1
    38    36    37    1
    39    13    14    1
    40    90    91    2
    41    90    89    1
    42    87    85    1
    43    37    39    1
    44    37    38    1
    45    89    92    1
    46    89    88    1
    47    86    85    1
    48    62    60   ar
    49    62    63   ar
    50    60    59   ar
    51   114   113   ar
    52   114   112   ar
    53    92    93    1
    54    14    15    1
    55    14    17    1
    56    85    84    1
    57    54    55    1
    58    18    17    1
    59    18    19    1
    60    93    94   ar
    61    93    95   ar
    62   113   111   ar
    63    94    96   ar
    64    15    16    2
    65    95    97   ar
    66   112   110   ar
    67    96    97   ar
    68    63    61   ar
    69    59    58    1
    70    59    61   ar
    71    19    20    1
    72    83    82    2
    73    84    81    1
    74    58    55    1
    75    55    56    1
    76    82    81    1
    77   111   110   ar
    78   110   109    1
    79    81    80    1
    80    20    21    2
    81    57    56    2
    82    27    26    2
    83    26    25    1
    84   105   106    1
    85   109   106    1
    86   126   125    1
    87    21    22    1
    88    21    23    1
    89   139   140    1
    90   139   142    1
    91   139   138    1
    92   145   144    1
    93   106   107    1
    94    73    72   ar
    95    73    71   ar
    96    72    70   ar
    97   140   141    2
    98    29    28    1
    99    29    30    1
   100   143   142    1
   101   143   144    1
   102    28    25    1
   103    25    24    1
   104    30    31    1
   105   125   123   ar
   106   125   124   ar
   107    71    69   ar
   108    79   124    1
   109    79    78    1
   110   123   121   ar
   111   107   108    2
   112    70    69   ar
   113   124   122   ar
   114    69    68    1
   115    77    76    2
   116   121   120   ar
   117    78    75    1
   118    76    75    1
   119    64    65    1
   120   122   120   ar
   121    68    65    1
   122   135   137   ar
   123   135   133   ar
   124    75    74    1
   125   120   119    1
   126   137   136   ar
   127    65    66    1
   128   133   132   ar
   129   136   134   ar
   130   115   116    1
   131   130   129    2
   132    66    67    2
   133   119   116    1
   134   116   117    1
   135   132   134   ar
   136   132   131    1
   137   129   128    1
   138   131   128    1
   139   128   127    1
   140   117   118    2
