@<TRIPOS>MOLECULE
tmp/4kwlA00.pdb
 151 145 0 0 0
SMALL
GASTEIGER

@<TRIPOS>ATOM
      1  N          1.2120   10.1850   -1.8570 N.3    55  TYR55      -0.1241
      2  CA         0.0380   10.2740   -2.7330 C.3    55  TYR55       0.1605
      3  C          0.1100    9.2910   -3.9060 C.2    55  TYR55       0.2264
      4  O          1.1930    8.9280   -4.3510 O.2    55  TYR55      -0.2867
      5  CB        -0.1920   11.7030   -3.2340 C.3    55  TYR55       0.0534
      6  CG         0.7730   12.2000   -4.2970 C.ar   55  TYR55      -0.0201
      7  CD1        0.4700   12.0780   -5.6660 C.ar   55  TYR55      -0.0009
      8  CD2        1.9620   12.8410   -3.9390 C.ar   55  TYR55      -0.0009
      9  CE1        1.3370   12.5620   -6.6300 C.ar   55  TYR55       0.0417
     10  CE2        2.8300   13.3330   -4.9060 C.ar   55  TYR55       0.0417
     11  CZ         2.5090   13.1960   -6.2480 C.ar   55  TYR55       0.1957
     12  OH         3.3670   13.6790   -7.2120 O.3    55  TYR55      -0.2866
     13  N         -1.4540    7.9450   -7.8290 N.3    57  ARG57      -0.1245
     14  CA        -1.9820    8.3760   -9.1320 C.3    57  ARG57       0.1563
     15  C         -2.7550    7.2030   -9.7300 C.2    57  ARG57       0.2260
     16  O         -2.2130    6.1010   -9.9020 O.2    57  ARG57      -0.2867
     17  CB        -0.8420    8.7690  -10.0650 C.3    57  ARG57       0.0307
     18  CG         0.0630    9.8420   -9.4710 C.3    57  ARG57       0.0489
     19  CD         1.3490   10.0030  -10.2520 C.3    57  ARG57       0.2205
     20  NE         1.1820   10.8220  -11.4380 N.pl3  57  ARG57      -0.0865
     21  CZ         1.2130   10.3790  -12.6940 C.cat  57  ARG57       0.5346
     22  NH1        1.4050    9.0890  -12.9690 N.pl3  57  ARG57       0.1354
     23  NH2        1.0690   11.2480  -13.6910 N.pl3  57  ARG57       0.1354
     24  N         -6.7440   11.2720  -14.5040 N.3    70  MET70      -0.1245
     25  CA        -6.4010   10.4400  -13.3530 C.3    70  MET70       0.1570
     26  C         -6.8540   11.0740  -12.0570 C.2    70  MET70       0.2261
     27  O         -7.0890   12.2870  -11.9760 O.2    70  MET70      -0.2867
     28  CB        -4.8850   10.1890  -13.3150 C.3    70  MET70       0.0387
     29  CG        -4.0770   11.4640  -13.1290 C.3    70  MET70       0.0595
     30  SD        -2.3140   11.1840  -13.3380 S.3    70  MET70      -0.1393
     31  CE        -2.2430   11.1030  -15.1340 C.3    70  MET70       0.0692
     32  N         -5.8770   11.5860   -8.0770 N.3    72  LEU72      -0.1245
     33  CA        -4.7680   11.5390   -7.1280 C.3    72  LEU72       0.1561
     34  C         -5.3160   11.5540   -5.7090 C.2    72  LEU72       0.2260
     35  O         -6.2160   12.3210   -5.3930 O.2    72  LEU72      -0.2867
     36  CB        -3.7640   12.6740   -7.3800 C.3    72  LEU72       0.0270
     37  CG        -2.6480   12.3430   -8.3930 C.3    72  LEU72       0.0019
     38  CD1       -3.2250   12.0040   -9.7680 C.3    72  LEU72       0.0001
     39  CD2       -1.6630   13.5000   -8.4810 C.3    72  LEU72       0.0001
     40  N         -4.3970   11.8940   -1.7200 N.3    74  TRP74      -0.1241
     41  CA        -3.3800   12.4890   -0.8670 C.3    74  TRP74       0.1605
     42  C         -3.7060   12.2350    0.5770 C.2    74  TRP74       0.2264
     43  O         -4.6640   12.8010    1.1170 O.2    74  TRP74      -0.2867
     44  CB        -3.3490   13.9930   -1.0760 C.3    74  TRP74       0.0550
     45  CG        -3.3210   14.4750   -2.5130 C.ar   74  TRP74       0.0003
     46  CD1       -4.3830   14.5270   -3.4180 C.ar   74  TRP74       0.0946
     47  CD2       -2.1710   15.0220   -3.2380 C.ar   74  TRP74       0.0152
     48  NE1       -3.9680   15.0620   -4.6190 N.ar   74  TRP74      -0.2442
     49  CE2       -2.6580   15.3850   -4.5770 C.ar   74  TRP74       0.0810
     50  CE3       -0.8320   15.2590   -2.9180 C.ar   74  TRP74       0.0012
     51  CZ2       -1.8090   15.9330   -5.5480 C.ar   74  TRP74       0.0191
     52  CZ3        0.0130   15.8150   -3.9000 C.ar   74  TRP74       0.0001
     53  CH2       -0.4740   16.1520   -5.1900 C.ar   74  TRP74       0.0015
     54  N          3.7420   16.8700   -3.1230 N.3    80  SER80      -0.1217
     55  CA         4.5420   16.6200   -4.2940 C.3    80  SER80       0.1889
     56  C          5.9060   17.3170   -4.1860 C.2    80  SER80       0.2288
     57  O          6.1450   18.1100   -3.2820 O.2    80  SER80      -0.2866
     58  CB         3.7810   17.1570   -5.5250 C.3    80  SER80       0.2089
     59  OG         3.9690   18.5650   -5.6870 O.3    80  SER80      -0.2183
     60  N          7.7450   20.7440   -9.3140 N.3    83  HIS83      -0.1241
     61  CA         7.8680   20.0480  -10.5840 C.3    83  HIS83       0.1621
     62  C          7.3350   20.8300  -11.7550 C.2    83  HIS83       0.2264
     63  O          6.5740   21.7930  -11.5910 O.2    83  HIS83      -0.2867
     64  CB         7.1970   18.6790  -10.4930 C.3    83  HIS83       0.0745
     65  CG         5.7110   18.7500  -10.2190 C.ar   83  HIS83       0.0817
     66  ND1        5.2010   18.8000   -8.9700 N.ar   83  HIS83      -0.2268
     67  CD2        4.6180   18.7900  -11.0920 C.ar   83  HIS83       0.1154
     68  CE1        3.8590   18.8980   -9.0350 C.ar   83  HIS83       0.1986
     69  NE2        3.4960   18.8800  -10.3340 N.ar   83  HIS83      -0.2212
     70  N          5.7670   20.2250  -16.0050 N.3    85  HIS85      -0.1241
     71  CA         4.7640   19.3880  -16.6560 C.3    85  HIS85       0.1621
     72  C          5.0710   19.0300  -18.0790 C.2    85  HIS85       0.2264
     73  O          4.1540   18.7960  -18.8760 O.2    85  HIS85      -0.2867
     74  CB         3.3870   20.0330  -16.5040 C.3    85  HIS85       0.0745
     75  CG         3.0170   20.2530  -15.0620 C.ar   85  HIS85       0.0817
     76  ND1        3.4070   21.3460  -14.3740 N.ar   85  HIS85      -0.2268
     77  CD2        2.3530   19.4340  -14.1620 C.ar   85  HIS85       0.1154
     78  CE1        2.9780   21.2450  -13.1070 C.ar   85  HIS85       0.1986
     79  NE2        2.3350   20.0710  -12.9790 N.ar   85  HIS85      -0.2212
     80  N         -1.7950   20.9920  -17.7750 N.3    90  CYS90      -0.1235
     81  CA        -2.1500   20.2680  -16.5570 C.3    90  CYS90       0.1672
     82  C         -3.3280   20.9600  -15.8660 C.2    90  CYS90       0.2270
     83  O         -3.2160   22.1180  -15.4490 O.2    90  CYS90      -0.2867
     84  CB        -0.9490   20.2350  -15.6090 C.3    90  CYS90       0.0892
     85  SG        -1.2000   19.1770  -14.1760 S.3    90  CYS90      -0.1085
     86  N         -6.1450   20.5960  -12.6970 N.3    92  LEU92      -0.1245
     87  CA        -6.2520   20.0260  -11.3710 C.3    92  LEU92       0.1561
     88  C         -7.5980   20.4390  -10.8030 C.2    92  LEU92       0.2260
     89  O         -7.8460   21.6200  -10.6220 O.2    92  LEU92      -0.2867
     90  CB        -5.1210   20.5960  -10.5110 C.3    92  LEU92       0.0270
     91  CG        -4.8160   19.9350   -9.1730 C.3    92  LEU92       0.0019
     92  CD1       -3.4270   20.3420   -8.7020 C.3    92  LEU92       0.0001
     93  CD2       -5.8660   20.3040   -8.1440 C.3    92  LEU92       0.0001
     94  N          5.3590   24.3050   -9.8910 N.3   137  HIS137     -0.1241
     95  CA         4.5880   24.3190   -8.6450 C.3   137  HIS137      0.1621
     96  C          4.8250   23.1200   -7.7670 C.2   137  HIS137      0.2264
     97  O          5.4090   22.1420   -8.2010 O.2   137  HIS137     -0.2867
     98  CB         3.0960   24.5560   -8.8960 C.3   137  HIS137      0.0745
     99  CG         2.3420   23.3470   -9.4150 C.ar  137  HIS137      0.0817
    100  ND1        1.0110   23.3580   -9.5680 N.ar  137  HIS137     -0.2268
    101  CD2        2.7770   22.0810   -9.8100 C.ar  137  HIS137      0.1154
    102  CE1        0.6070   22.1670  -10.0450 C.ar  137  HIS137      0.1986
    103  NE2        1.6900   21.3850  -10.1860 N.ar  137  HIS137     -0.2212
    104  N          2.3620   20.8810   -4.9720 N.3   139  VAL139     -0.1245
    105  CA         0.9770   20.7170   -4.5260 C.3   139  VAL139      0.1561
    106  C          1.0240   19.8380   -3.2790 C.2   139  VAL139      0.2260
    107  O          1.6890   18.8100   -3.2900 O.2   139  VAL139     -0.2867
    108  CB         0.1130   20.0630   -5.6180 C.3   139  VAL139      0.0252
    109  CG1       -1.2840   19.7730   -5.1150 C.3   139  VAL139      0.0019
    110  CG2        0.0610   20.9610   -6.8610 C.3   139  VAL139      0.0019
    111  N         -7.0010   15.0280  -12.1530 N.3   152  HIS152     -0.1241
    112  CA        -5.9800   15.6790  -12.9880 C.3   152  HIS152      0.1621
    113  C         -6.1150   15.2630  -14.4250 C.2   152  HIS152      0.2264
    114  O         -6.3600   14.0930  -14.7240 O.2   152  HIS152     -0.2867
    115  CB        -4.5580   15.3350  -12.5060 C.3   152  HIS152      0.0745
    116  CG        -4.2400   15.8220  -11.1060 C.ar  152  HIS152      0.0817
    117  ND1       -3.1300   16.5440  -10.8230 N.ar  152  HIS152     -0.2268
    118  CD2       -4.9160   15.6590   -9.9080 C.ar  152  HIS152      0.1154
    119  CE1       -3.1070   16.8210   -9.5070 C.ar  152  HIS152      0.1986
    120  NE2       -4.1980   16.2950   -8.9510 N.ar  152  HIS152     -0.2212
    121  N         -3.9840   15.7780  -18.1090 N.3   154  TYR154     -0.1241
    122  CA        -2.7560   16.2440  -18.7450 C.3   154  TYR154      0.1605
    123  C         -2.8260   15.9880  -20.2260 C.2   154  TYR154      0.2264
    124  O         -3.1630   14.8860  -20.6430 O.2   154  TYR154     -0.2867
    125  CB        -1.5450   15.5060  -18.1810 C.3   154  TYR154      0.0534
    126  CG        -1.4120   15.6770  -16.6980 C.ar  154  TYR154     -0.0196
    127  CD1       -1.4720   14.5860  -15.8460 C.ar  154  TYR154     -0.0009
    128  CD2       -1.2420   16.9310  -16.1570 C.ar  154  TYR154      0.0052
    129  CE1       -1.3700   14.7420  -14.4610 C.ar  154  TYR154      0.0422
    130  CE2       -1.1390   17.0990  -14.7880 C.ar  154  TYR154      0.0639
    131  CZ        -1.1950   16.0040  -13.9500 C.ar  154  TYR154      0.2013
    132  OH        -1.0770   16.2100  -12.5870 O.3   154  TYR154     -0.2860
    133  N          1.9680   12.5170  -20.3670 N.3   158  PHE158     -0.1241
    134  CA         3.4110   12.4000  -20.1240 C.3   158  PHE158      0.1605
    135  C          3.6400   11.5570  -18.8810 C.2   158  PHE158      0.2264
    136  O          2.8330   11.5810  -17.9420 O.2   158  PHE158     -0.2867
    137  CB         4.0720   13.7810  -19.9800 C.3   158  PHE158      0.0534
    138  CG         3.5450   14.6020  -18.8280 C.ar  158  PHE158     -0.0203
    139  CD1        4.2080   14.6150  -17.5980 C.ar  158  PHE158     -0.0042
    140  CD2        2.3900   15.3740  -18.9730 C.ar  158  PHE158     -0.0042
    141  CE1        3.7220   15.3700  -16.5400 C.ar  158  PHE158     -0.0003
    142  CE2        1.9050   16.1410  -17.9170 C.ar  158  PHE158     -0.0003
    143  CZ         2.5700   16.1330  -16.6980 C.ar  158  PHE158     -0.0000
    144  N          7.0410    8.9380  -13.5910 N.3   176  MET176     -0.1245
    145  CA         5.8150    8.8230  -12.8390 C.3   176  MET176      0.1570
    146  C          5.2200    7.4420  -13.0200 C.2   176  MET176      0.2261
    147  O          5.3150    6.8450  -14.0920 O.2   176  MET176     -0.2867
    148  CB         4.8400    9.9280  -13.2220 C.3   176  MET176      0.0387
    149  CG         5.2360   11.2530  -12.5880 C.3   176  MET176      0.0595
    150  SD         4.3360   12.6560  -13.2440 S.3   176  MET176     -0.1393
    151  CE         4.9350   12.5870  -14.9160 C.3   176  MET176      0.0692
@<TRIPOS>BOND
     1   124   123    2
     2   133   134    1
     3   123   122    1
     4   134   137    1
     5   134   135    1
     6   137   138    1
     7   140   138   ar
     8   140   142   ar
     9   135   136    2
    10    73    72    2
    11   138   139   ar
    12   122   125    1
    13   122   121    1
    14   125   126    1
    15    72    71    1
    16   142   143   ar
    17    80    81    1
    18   139   141   ar
    19   126   128   ar
    20   126   127   ar
    21   143   141   ar
    22    71    74    1
    23    71    70    1
    24    81    82    1
    25    81    84    1
    26    74    75    1
    27   128   130   ar
    28    82    83    2
    29   127   129   ar
    30    84    85    1
    31    31    30    1
    32    75    76   ar
    33    75    77   ar
    34   151   150    1
    35   130    85    1
    36   130   131   ar
    37   114   113    2
    38    24    25    1
    39   129   131   ar
    40   113   112    1
    41    76    78   ar
    42    77    79   ar
    43   147   146    2
    44   131   132    1
    45    23    21    1
    46   144   145    1
    47    25    28    1
    48    25    26    1
    49    30    29    1
    50    28    29    1
    51   150   149    1
    52   148   145    1
    53   148   149    1
    54    78    79   ar
    55   146   145    1
    56   112   115    1
    57   112   111    1
    58    22    21    1
    59    86    87    1
    60    21    20    2
    61   115   116    1
    62    26    27    2
    63    62    63    2
    64    62    61    1
    65    20    19    1
    66    87    88    1
    67    87    90    1
    68   116   117   ar
    69   116   118   ar
    70    67    69   ar
    71    67    65   ar
    72   117   119   ar
    73    88    89    2
    74    61    64    1
    75    61    60    1
    76    90    91    1
    77    64    65    1
    78    69    68   ar
    79    19    18    1
    80    65    66   ar
    81   103   102   ar
    82   103   101   ar
    83    17    18    1
    84    17    14    1
    85   102   100   ar
    86   118   120   ar
    87    16    15    2
    88    94    95    1
    89   101    99   ar
    90    38    37    1
    91    15    14    1
    92   100    99   ar
    93   119   120   ar
    94    99    98    1
    95    91    92    1
    96    91    93    1
    97    14    13    1
    98    68    66   ar
    99    98    95    1
   100    95    96    1
   101    39    37    1
   102    37    36    1
   103    97    96    2
   104    32    33    1
   105    36    33    1
   106    12    11    1
   107    33    34    1
   108   110   108    1
   109     9    11   ar
   110     9     7   ar
   111    11    10   ar
   112    34    35    2
   113    59    58    1
   114     7     6   ar
   115   108   109    1
   116   108   105    1
   117    51    53   ar
   118    51    49   ar
   119    58    55    1
   120    53    52   ar
   121   104   105    1
   122    10     8   ar
   123    48    49   ar
   124    48    46   ar
   125    49    47   ar
   126   105   106    1
   127     4     3    2
   128     6     8   ar
   129     6     5    1
   130    55    56    1
   131    55    54    1
   132    56    57    2
   133     3     2    1
   134    52    50   ar
   135    46    45   ar
   136   107   106    2
   137    47    50   ar
   138    47    45   ar
   139     5     2    1
   140     2     1    1
   141    45    44    1
   142    40    41    1
   143    44    41    1
   144    41    42    1
   145    42    43    2
