@<TRIPOS>MOLECULE
tmp/4kwpA01.pdb
 87 83 0 0 0
SMALL
GASTEIGER

@<TRIPOS>ATOM
      1  N         22.5050  -34.6250   25.4000 N.3    48  LYS48      -0.1245
      2  CA        22.6560  -35.7660   26.2860 C.3    48  LYS48       0.1561
      3  C         23.7890  -36.6680   25.8170 C.2    48  LYS48       0.2260
      4  O         24.4780  -37.2680   26.6380 O.2    48  LYS48      -0.2867
      5  CB        21.3630  -36.5950   26.3580 C.3    48  LYS48       0.0271
      6  CG        20.1820  -35.9170   27.0210 C.3    48  LYS48       0.0035
      7  CD        18.9820  -36.8540   27.0370 C.3    48  LYS48       0.0206
      8  CE        17.6920  -36.1110   27.3290 C.3    48  LYS48       0.1093
      9  NZ        16.5050  -37.0030   27.2040 N.3    48  LYS48      -0.1314
     10  N         10.6890  -34.1540   16.6640 N.3   157  LYS157     -0.1245
     11  CA        10.4240  -32.9210   17.3920 C.3   157  LYS157      0.1561
     12  C         11.0350  -31.7650   16.5960 C.2   157  LYS157      0.2260
     13  O         11.8760  -31.9980   15.7330 O.2   157  LYS157     -0.2867
     14  CB        11.0240  -32.9740   18.8060 C.3   157  LYS157      0.0271
     15  CG        12.5360  -33.1950   18.8700 C.3   157  LYS157      0.0035
     16  CD        13.0160  -33.1740   20.3190 C.3   157  LYS157      0.0206
     17  CE        14.4780  -33.5340   20.4610 C.3   157  LYS157      0.1093
     18  NZ        14.8900  -33.4250   21.8950 N.3   157  LYS157     -0.1314
     19  N         11.5060  -45.4200   27.0350 N.3   190  ARG190     -0.1231
     20  CA        12.2320  -44.2030   27.3590 C.3   190  ARG190      0.1694
     21  C         12.8950  -43.6250   26.1080 C.2   190  ARG190      0.2592
     22  O         14.1230  -43.5220   26.0040 O.2   190  ARG190     -0.2718
     23  CB        13.2610  -44.4740   28.4590 C.3   190  ARG190      0.0321
     24  CG        12.6220  -44.7500   29.8090 C.3   190  ARG190      0.0489
     25  CD        13.6740  -44.8720   30.9060 C.3   190  ARG190      0.2205
     26  NE        14.5460  -43.6960   30.9840 N.pl3 190  ARG190     -0.0865
     27  CZ        14.4370  -42.7140   31.8790 C.cat 190  ARG190      0.5346
     28  NH1       13.4880  -42.7330   32.8080 N.pl3 190  ARG190      0.1354
     29  NH2       15.2910  -41.7000   31.8480 N.pl3 190  ARG190      0.1354
     30  N         12.0570  -43.2380   25.1590 N.am  191  VAL191     -0.1966
     31  CA        12.5050  -42.6190   23.9310 C.3   191  VAL191      0.1727
     32  C         11.6460  -41.3860   23.6940 C.2   191  VAL191      0.2616
     33  O         10.6950  -41.1230   24.4400 O.2   191  VAL191     -0.2715
     34  CB        12.3950  -43.5880   22.7250 C.3   191  VAL191      0.0290
     35  CG1       13.3030  -44.8020   22.9350 C.3   191  VAL191      0.0023
     36  CG2       10.9500  -44.0070   22.4940 C.3   191  VAL191      0.0023
     37  N         11.9830  -40.6470   22.6410 N.am  192  ALA192     -0.1963
     38  CA        11.3650  -39.3660   22.3250 C.3   192  ALA192      0.1728
     39  C         11.5710  -38.3670   23.4610 C.2   192  ALA192      0.2617
     40  O         12.1600  -38.6640   24.4960 O.2   192  ALA192     -0.2715
     41  CB         9.8910  -39.5350   21.9810 C.3   192  ALA192      0.0334
     42  N         11.0990  -37.1630   23.2390 N.am  193  SER193     -0.1936
     43  CA        11.2240  -36.1030   24.2070 C.3   193  SER193      0.2055
     44  C          9.8280  -35.8260   24.7760 C.2   193  SER193      0.2643
     45  O          8.8440  -35.9730   24.0680 O.2   193  SER193     -0.2714
     46  CB        11.8340  -34.8880   23.5230 C.3   193  SER193      0.2130
     47  OG        13.1130  -35.2280   22.9900 O.3   193  SER193     -0.2179
     48  N          9.7540  -35.4480   26.0510 N.am  194  ARG194     -0.1963
     49  CA         8.4930  -35.4280   26.8010 C.3   194  ARG194      0.1729
     50  C          7.2690  -34.9660   26.0210 C.2   194  ARG194      0.2616
     51  O          6.2610  -35.6710   25.9860 O.2   194  ARG194     -0.2715
     52  CB         8.6280  -34.5590   28.0540 C.3   194  ARG194      0.0348
     53  CG         7.4090  -34.6340   28.9550 C.3   194  ARG194      0.0492
     54  CD         7.4480  -33.5880   30.0640 C.3   194  ARG194      0.2205
     55  NE         8.6540  -33.7170   30.8650 N.pl3 194  ARG194     -0.0865
     56  CZ         9.3000  -32.7110   31.4430 C.cat 194  ARG194      0.5346
     57  NH1        8.8650  -31.4620   31.3500 N.pl3 194  ARG194      0.1354
     58  NH2       10.3950  -32.9650   32.1390 N.pl3 194  ARG194      0.1354
     59  N          7.3350  -33.7830   25.4200 N.am  195  TYR195     -0.1974
     60  CA         6.1410  -33.1700   24.8410 C.3   195  TYR195      0.1639
     61  C          5.6500  -33.9200   23.6150 C.2   195  TYR195      0.2290
     62  O          4.5000  -33.7250   23.1980 O.2   195  TYR195     -0.2864
     63  CB         6.4080  -31.7150   24.4510 C.3   195  TYR195      0.0560
     64  CG         7.0130  -30.8700   25.5400 C.ar  195  TYR195     -0.0198
     65  CD1        6.5170  -30.9020   26.8350 C.ar  195  TYR195     -0.0009
     66  CD2        8.0890  -30.0310   25.2670 C.ar  195  TYR195     -0.0009
     67  CE1        7.0690  -30.1200   27.8310 C.ar  195  TYR195      0.0417
     68  CE2        8.6540  -29.2540   26.2530 C.ar  195  TYR195      0.0417
     69  CZ         8.1420  -29.3020   27.5340 C.ar  195  TYR195      0.1957
     70  OH         8.7040  -28.5210   28.5260 O.3   195  TYR195     -0.2866
     71  N          6.1540  -37.4200   23.2820 N.3   197  LYS197     -0.1245
     72  CA         5.9840  -38.8310   23.6050 C.3   197  LYS197      0.1561
     73  C          4.5650  -39.3010   23.2980 C.2   197  LYS197      0.2260
     74  O          3.5840  -38.6840   23.7180 O.2   197  LYS197     -0.2867
     75  CB         6.2790  -39.1110   25.0830 C.3   197  LYS197      0.0271
     76  CG         7.7540  -39.0320   25.4430 C.3   197  LYS197      0.0035
     77  CD         7.9300  -39.1880   26.9300 C.3   197  LYS197      0.0206
     78  CE         9.3850  -39.0250   27.3550 C.3   197  LYS197      0.1093
     79  NZ        10.2050  -40.2180   27.0440 N.3   197  LYS197     -0.1314
     80  N          6.3920  -36.8550   33.0080 N.3   237  ASN237     -0.1240
     81  CA         5.7790  -37.8410   32.1190 C.3   237  ASN237      0.1653
     82  C          4.3580  -38.2230   32.5230 C.2   237  ASN237      0.2266
     83  O          3.5820  -38.6900   31.6970 O.2   237  ASN237     -0.2867
     84  CB         6.6350  -39.1060   32.0130 C.3   237  ASN237      0.1155
     85  CG         7.9420  -38.8750   31.2850 C.2   237  ASN237      0.2627
     86  OD1        8.0730  -37.9610   30.4780 O.2   237  ASN237     -0.2716
     87  ND2        8.9250  -39.7120   31.5720 N.am  237  ASN237     -0.0877
@<TRIPOS>BOND
     1    13    12    2
     2    12    11    1
     3    10    11    1
     4    11    14    1
     5    14    15    1
     6    15    16    1
     7    16    17    1
     8    17    18    1
     9    41    38    1
    10    38    37    1
    11    38    39    1
    12    36    34    1
    13    37    32   am
    14    34    35    1
    15    34    31    1
    16    47    46    1
    17    62    61    2
    18    42    39   am
    19    42    43    1
    20    71    72    1
    21    73    72    1
    22    73    74    2
    23    39    40    2
    24    46    43    1
    25    72    75    1
    26    61    60    1
    27    32    31    1
    28    32    33    2
    29    31    30    1
    30    45    44    2
    31    43    44    1
    32    63    60    1
    33    63    64    1
    34    44    48   am
    35    60    59    1
    36    75    76    1
    37    30    21   am
    38    66    64   ar
    39    66    68   ar
    40     1     2    1
    41    59    50   am
    42    76    77    1
    43    64    65   ar
    44     3     2    1
    45     3     4    2
    46    51    50    2
    47    22    21    2
    48    50    49    1
    49    48    49    1
    50    21    20    1
    51    68    69   ar
    52     2     5    1
    53     5     6    1
    54    49    52    1
    55    65    67   ar
    56    77    78    1
    57     6     7    1
    58    19    20    1
    59     7     8    1
    60    79    78    1
    61     9     8    1
    62    20    23    1
    63    69    67   ar
    64    69    70    1
    65    52    53    1
    66    23    24    1
    67    53    54    1
    68    24    25    1
    69    54    55    1
    70    86    85    2
    71    55    56    2
    72    25    26    1
    73    26    27    2
    74    85    87   am
    75    85    84    1
    76    57    56    1
    77    56    58    1
    78    83    82    2
    79    29    27    1
    80    27    28    1
    81    84    81    1
    82    81    82    1
    83    81    80    1
