@<TRIPOS>MOLECULE
tmp/4kwpA00.pdb
 127 118 0 0 0
SMALL
GASTEIGER

@<TRIPOS>ATOM
      1  N         33.3030  -23.7340   15.6310 N.3    42  ARG42      -0.1245
      2  CA        32.6450  -23.2480   16.8330 C.3    42  ARG42       0.1563
      3  C         31.7260  -24.3020   17.4160 C.2    42  ARG42       0.2260
      4  O         31.1350  -25.1020   16.6950 O.2    42  ARG42      -0.2867
      5  CB        31.8650  -21.9600   16.5560 C.3    42  ARG42       0.0307
      6  CG        30.7710  -22.1030   15.5390 C.3    42  ARG42       0.0489
      7  CD        29.8790  -20.8760   15.5260 C.3    42  ARG42       0.2205
      8  NE        28.8450  -20.9780   14.4960 N.pl3  42  ARG42      -0.0865
      9  CZ        27.5480  -20.7330   14.6790 C.cat  42  ARG42       0.5346
     10  NH1       27.0750  -20.3580   15.8640 N.pl3  42  ARG42       0.1354
     11  NH2       26.7110  -20.8650   13.6600 N.pl3  42  ARG42       0.1354
     12  N         28.3730  -25.5430   18.8760 N.3    44  LEU44      -0.1245
     13  CA        26.9640  -25.1860   18.7550 C.3    44  LEU44       0.1561
     14  C         26.1670  -25.5600   19.9950 C.2    44  LEU44       0.2260
     15  O         25.1630  -24.9240   20.3050 O.2    44  LEU44      -0.2867
     16  CB        26.3490  -25.8850   17.5430 C.3    44  LEU44       0.0270
     17  CG        26.9490  -25.5070   16.1910 C.3    44  LEU44       0.0019
     18  CD1       26.2220  -26.2260   15.0830 C.3    44  LEU44       0.0001
     19  CD2       26.8880  -24.0060   15.9810 C.3    44  LEU44       0.0001
     20  N         28.2370  -30.7880   19.8070 N.3    52  VAL52      -0.1245
     21  CA        27.9820  -30.5020   18.4130 C.3    52  VAL52       0.1561
     22  C         28.7510  -29.2560   18.0080 C.2    52  VAL52       0.2260
     23  O         28.7470  -28.2530   18.7350 O.2    52  VAL52      -0.2867
     24  CB        26.4750  -30.2720   18.1860 C.3    52  VAL52       0.0252
     25  CG1       26.2060  -30.0020   16.7210 C.3    52  VAL52       0.0019
     26  CG2       25.6820  -31.4760   18.6800 C.3    52  VAL52       0.0019
     27  N         28.7240  -30.2290    9.9410 N.3    65  VAL65      -0.1245
     28  CA        28.4290  -30.2870   11.3650 C.3    65  VAL65       0.1561
     29  C         29.0380  -31.5650   11.9270 C.2    65  VAL65       0.2260
     30  O         28.8960  -32.6450   11.3570 O.2    65  VAL65      -0.2867
     31  CB        26.9170  -30.2090   11.6350 C.3    65  VAL65       0.0252
     32  CG1       26.6050  -30.4720   13.1080 C.3    65  VAL65       0.0019
     33  CG2       26.3810  -28.8350   11.2030 C.3    65  VAL65       0.0019
     34  N         29.4310  -34.0640   15.2720 N.3    67  LYS67      -0.1245
     35  CA        28.9410  -34.4660   16.5830 C.3    67  LYS67       0.1561
     36  C         29.9410  -35.4130   17.2050 C.2    67  LYS67       0.2260
     37  O         30.1480  -36.5270   16.7250 O.2    67  LYS67      -0.2867
     38  CB        27.5770  -35.1500   16.4740 C.3    67  LYS67       0.0271
     39  CG        26.5300  -34.3050   15.7980 C.3    67  LYS67       0.0035
     40  CD        25.1370  -34.9560   15.8380 C.3    67  LYS67       0.0206
     41  CE        24.5210  -34.7970   17.1990 C.3    67  LYS67       0.1093
     42  NZ        23.3430  -35.6850   17.4320 N.3    67  LYS67      -0.1314
     43  N         19.0550  -36.3960    6.6350 N.3    94  ILE94      -0.1245
     44  CA        20.3840  -35.7910    6.7810 C.3    94  ILE94       0.1561
     45  C         21.4470  -36.7470    6.2690 C.2    94  ILE94       0.2260
     46  O         21.4000  -37.9420    6.5200 O.2    94  ILE94      -0.2867
     47  CB        20.6620  -35.3870    8.2500 C.3    94  ILE94       0.0252
     48  CG1       21.8390  -34.4150    8.3460 C.3    94  ILE94       0.0019
     49  CG2       20.9140  -36.6070    9.1320 C.3    94  ILE94       0.0019
     50  CD1       21.5540  -33.0470    7.7630 C.3    94  ILE94       0.0001
     51  N         28.2370  -34.4950    9.3970 N.3   112  PHE112     -0.1227
     52  CA        27.0020  -34.3370    8.6320 C.3   112  PHE112      0.1736
     53  C         27.0650  -33.1510    7.6980 C.2   112  PHE112      0.2595
     54  O         27.7350  -32.1490    7.9770 O.2   112  PHE112     -0.2718
     55  CB        25.7990  -34.1200    9.5710 C.3   112  PHE112      0.0547
     56  CG        25.5420  -35.2660   10.4920 C.ar  112  PHE112     -0.0202
     57  CD1       24.7540  -36.3230   10.0890 C.ar  112  PHE112     -0.0042
     58  CD2       26.0850  -35.2870   11.7640 C.ar  112  PHE112     -0.0042
     59  CE1       24.5140  -37.3890   10.9290 C.ar  112  PHE112     -0.0003
     60  CE2       25.8530  -36.3400   12.6140 C.ar  112  PHE112     -0.0003
     61  CZ        25.0630  -37.4000   12.1950 C.ar  112  PHE112     -0.0000
     62  N         26.3130  -33.2350    6.6060 N.am  113  GLU113     -0.1965
     63  CA        26.1290  -32.0710    5.7630 C.3   113  GLU113      0.1733
     64  C         25.5140  -30.9500    6.5880 C.2   113  GLU113      0.2616
     65  O         24.6820  -31.1730    7.4730 O.2   113  GLU113     -0.2715
     66  CB        25.2260  -32.3900    4.5780 C.3   113  GLU113      0.0429
     67  CG        23.7830  -32.6100    4.9660 C.3   113  GLU113      0.1163
     68  CD        22.9180  -33.0190    3.7980 C.2   113  GLU113      0.3649
     69  OE1       23.2610  -32.6630    2.6430 O.co2 113  GLU113     -0.2457
     70  OE2       21.9130  -33.7140    4.0300 O.co2 113  GLU113     -0.2457
     71  N         25.9370  -29.7330    6.2950 N.am  114  HIS114     -0.1959
     72  CA        25.4280  -28.5640    6.9880 C.3   114  HIS114      0.1787
     73  C         24.1040  -28.0950    6.3890 C.2   114  HIS114      0.2620
     74  O         23.9170  -28.1560    5.1810 O.2   114  HIS114     -0.2715
     75  CB        26.4710  -27.4470    6.9200 C.3   114  HIS114      0.0785
     76  CG        26.0460  -26.1860    7.5980 C.ar  114  HIS114      0.0821
     77  ND1       25.5440  -25.1030    6.9100 N.ar  114  HIS114     -0.2267
     78  CD2       26.0340  -25.8410    8.9060 C.ar  114  HIS114      0.1154
     79  CE1       25.2510  -24.1400    7.7640 C.ar  114  HIS114      0.1986
     80  NE2       25.5360  -24.5640    8.9820 N.ar  114  HIS114     -0.2212
     81  N         23.2090  -27.6250    7.2480 N.am  115  VAL115     -0.1977
     82  CA        21.9680  -26.9870    6.8220 C.3   115  VAL115      0.1596
     83  C         21.9470  -25.5830    7.4240 C.2   115  VAL115      0.2287
     84  O         22.1740  -25.4120    8.6190 O.2   115  VAL115     -0.2864
     85  CB        20.7220  -27.7700    7.3120 C.3   115  VAL115      0.0276
     86  CG1       19.4160  -27.1040    6.8310 C.3   115  VAL115      0.0022
     87  CG2       20.7750  -29.1850    6.8360 C.3   115  VAL115      0.0022
     88  N         20.1110  -23.4810    8.9970 N.3   117  ASN117     -0.1240
     89  CA        18.8550  -23.5270    9.7420 C.3   117  ASN117      0.1653
     90  C         18.4460  -22.2110   10.3820 C.2   117  ASN117      0.2266
     91  O         19.2950  -21.4090   10.7700 O.2   117  ASN117     -0.2867
     92  CB        18.9870  -24.5840   10.8370 C.3   117  ASN117      0.1155
     93  CG        17.7280  -24.7360   11.6800 C.2   117  ASN117      0.2627
     94  OD1       16.7160  -25.2570   11.2160 O.2   117  ASN117     -0.2716
     95  ND2       17.8010  -24.3130   12.9350 N.am  117  ASN117     -0.0877
     96  N         16.4200  -21.0300   13.6720 N.3   119  ASP119     -0.1239
     97  CA        15.9320  -21.4960   14.9670 C.3   119  ASP119      0.1674
     98  C         14.4190  -21.6840   14.9290 C.2   119  ASP119      0.2266
     99  O         13.6820  -20.7680   14.5670 O.2   119  ASP119     -0.2867
    100  CB        16.3160  -20.4830   16.0490 C.3   119  ASP119      0.1410
    101  CG        15.6740  -20.7770   17.3920 C.2   119  ASP119      0.3668
    102  OD1       15.3850  -21.9580   17.6820 O.co2 119  ASP119     -0.2456
    103  OD2       15.4670  -19.8150   18.1640 O.co2 119  ASP119     -0.2456
    104  N         15.6770  -29.6800   10.7010 N.3   162  MET162     -0.1245
    105  CA        16.4660  -28.5110   10.3150 C.3   162  MET162      0.1570
    106  C         15.9550  -27.9780    8.9920 C.2   162  MET162      0.2261
    107  O         15.8130  -28.7220    8.0250 O.2   162  MET162     -0.2867
    108  CB        17.9520  -28.8520   10.2120 C.3   162  MET162      0.0387
    109  CG        18.6060  -29.1660   11.5520 C.3   162  MET162      0.0595
    110  SD        18.6090  -27.7840   12.7090 S.3   162  MET162     -0.1393
    111  CE        19.1040  -28.6010   14.2260 C.3   162  MET162      0.0692
    112  N         17.0300  -34.9090   11.2470 N.3   173  ILE173     -0.1231
    113  CA        18.3280  -35.2080   11.8410 C.3   173  ILE173      0.1692
    114  C         18.1770  -36.0160   13.1310 C.2   173  ILE173      0.2592
    115  O         17.0730  -36.3650   13.5500 O.2   173  ILE173     -0.2718
    116  CB        19.1300  -33.9110   12.1550 C.3   173  ILE173      0.0266
    117  CG1       18.4680  -33.1240   13.2850 C.3   173  ILE173      0.0019
    118  CG2       19.2970  -33.0250   10.9210 C.3   173  ILE173      0.0020
    119  CD1       19.4430  -32.1710   13.9660 C.3   173  ILE173      0.0001
    120  N         19.3300  -36.3280   13.7210 N.am  174  ASP174     -0.1974
    121  CA        19.4490  -36.9350   15.0450 C.3   174  ASP174      0.1709
    122  C         18.7470  -38.2830   15.1660 C.2   174  ASP174      0.2293
    123  O         17.7190  -38.4360   15.8270 O.2   174  ASP174     -0.2864
    124  CB        19.0310  -35.9490   16.1330 C.3   174  ASP174      0.1436
    125  CG        20.1190  -34.9300   16.4270 C.2   174  ASP174      0.3671
    126  OD1       21.2140  -35.0190   15.8030 O.co2 174  ASP174     -0.2456
    127  OD2       19.8830  -34.0600   17.2900 O.co2 174  ASP174     -0.2456
@<TRIPOS>BOND
     1    69    68   ar
     2    68    70   ar
     3    68    67    1
     4    66    67    1
     5    66    63    1
     6    74    73    2
     7    63    64    1
     8    63    62    1
     9    45    46    2
    10    45    44    1
    11    71    64   am
    12    71    72    1
    13    73    72    1
    14    73    81   am
    15    64    65    2
    16    62    53   am
    17    43    44    1
    18    44    47    1
    19    82    81    1
    20    82    85    1
    21    82    83    1
    22    86    85    1
    23    87    85    1
    24    77    76   ar
    25    77    79   ar
    26    75    72    1
    27    75    76    1
    28    83    84    2
    29    76    78   ar
    30    53    54    2
    31    53    52    1
    32    50    48    1
    33    79    80   ar
    34   107   106    2
    35    47    48    1
    36    47    49    1
    37    52    51    1
    38    52    55    1
    39    78    80   ar
    40   106   105    1
    41    88    89    1
    42    55    56    1
    43    89    90    1
    44    89    92    1
    45    27    28    1
    46    57    56   ar
    47    57    59   ar
    48   108   105    1
    49   108   109    1
    50   105   104    1
    51    90    91    2
    52    56    58   ar
    53    92    93    1
    54   118   116    1
    55    59    61   ar
    56    33    31    1
    57    94    93    2
    58   112   113    1
    59    30    29    2
    60    28    31    1
    61    28    29    1
    62   109   110    1
    63    31    32    1
    64    93    95   am
    65    58    60   ar
    66   113   116    1
    67   113   114    1
    68   116   117    1
    69    61    60   ar
    70   110   111    1
    71   114   115    2
    72   114   120   am
    73   117   119    1
    74    11     9    1
    75    96    97    1
    76   120   121    1
    77     8     9    2
    78     8     7    1
    79    99    98    2
    80     9    10    1
    81    98    97    1
    82    97   100    1
    83   121   122    1
    84   121   124    1
    85    18    17    1
    86   122   123    2
    87    34    35    1
    88     7     6    1
    89     6     5    1
    90     1     2    1
    91    39    40    1
    92    39    38    1
    93   126   125   ar
    94    40    41    1
    95    19    17    1
    96   100   101    1
    97   124   125    1
    98    17    16    1
    99   125   127   ar
   100    38    35    1
   101     5     2    1
   102    35    36    1
   103     4     3    2
   104    25    24    1
   105    37    36    2
   106     2     3    1
   107    41    42    1
   108   101   102   ar
   109   101   103   ar
   110    16    13    1
   111    22    21    1
   112    22    23    2
   113    24    21    1
   114    24    26    1
   115    21    20    1
   116    13    12    1
   117    13    14    1
   118    14    15    2
