@<TRIPOS>MOLECULE
tmp/4kwwE00.pdb
 103 95 0 0 0
SMALL
GASTEIGER

@<TRIPOS>ATOM
      1  N        -44.2570   16.7700  -14.2510 N.3   135  THR135     -0.1203
      2  CA       -44.8530   16.6280  -15.5550 C.3   135  THR135      0.1994
      3  C        -45.8410   15.4930  -15.4700 C.2   135  THR135      0.2618
      4  O        -46.1360   14.9630  -14.3440 O.2   135  THR135     -0.2717
      5  CB       -43.7730   16.1700  -16.5610 C.3   135  THR135      0.1784
      6  OG1      -43.2820   14.8690  -16.1950 O.3   135  THR135     -0.2211
      7  CG2      -42.6050   17.1230  -16.6350 C.3   135  THR135      0.0376
      8  N        -46.3030   15.0400  -16.6380 N.am  136  ARG136     -0.1965
      9  CA       -47.1520   13.8340  -16.6620 C.3   136  ARG136      0.1729
     10  C        -46.3240   12.6100  -16.9150 C.2   136  ARG136      0.2616
     11  O        -46.8670   11.5360  -17.1580 O.2   136  ARG136     -0.2715
     12  CB       -48.3350   13.9370  -17.6380 C.3   136  ARG136      0.0348
     13  CG       -49.5650   14.5610  -16.9840 C.3   136  ARG136      0.0492
     14  CD       -50.6640   15.0260  -17.9750 C.3   136  ARG136      0.2205
     15  NE       -51.2060   13.9790  -18.8470 N.pl3 136  ARG136     -0.0865
     16  CZ       -50.9090   13.8080  -20.1460 C.cat 136  ARG136      0.5346
     17  NH1      -50.0550   14.5960  -20.7970 N.pl3 136  ARG136      0.1354
     18  NH2      -51.4880   12.8240  -20.8130 N.pl3 136  ARG136      0.1354
     19  N        -44.9990   12.7560  -16.8480 N.am  137  LYS137     -0.1977
     20  CA       -44.0870   11.6140  -17.1040 C.3   137  LYS137      0.1596
     21  C        -43.9400   10.7370  -15.8610 C.2   137  LYS137      0.2287
     22  O        -42.8810   10.6670  -15.2170 O.2   137  LYS137     -0.2864
     23  CB       -42.7460   12.1070  -17.6130 C.3   137  LYS137      0.0298
     24  CG       -42.8400   12.6240  -19.0180 C.3   137  LYS137      0.0038
     25  CD       -41.5070   13.1440  -19.5610 C.3   137  LYS137      0.0206
     26  CE       -41.6730   13.6920  -20.9890 C.3   137  LYS137      0.1093
     27  NZ       -40.4500   14.3710  -21.4960 N.3   137  LYS137     -0.1314
     28  N        -47.7540   20.2060  -10.9720 N.3   158  HIS158     -0.1226
     29  CA       -48.3130   20.4880  -12.2910 C.3   158  HIS158      0.1752
     30  C        -49.6670   19.8410  -12.4140 C.2   158  HIS158      0.2595
     31  O        -50.1070   19.1810  -11.4940 O.2   158  HIS158     -0.2718
     32  CB       -47.3980   20.0350  -13.4300 C.3   158  HIS158      0.0759
     33  CG       -47.4650   20.9390  -14.6330 C.ar  158  HIS158      0.0818
     34  ND1      -46.3940   21.6250  -15.1010 N.ar  158  HIS158     -0.2268
     35  CD2      -48.5600   21.3250  -15.4280 C.ar  158  HIS158      0.1154
     36  CE1      -46.7790   22.3940  -16.1590 C.ar  158  HIS158      0.1986
     37  NE2      -48.0990   22.2090  -16.3510 N.ar  158  HIS158     -0.2212
     38  N        -50.3770   20.0240  -13.5260 N.am  159  ARG159     -0.1980
     39  CA       -51.7080   19.4000  -13.6480 C.3   159  ARG159      0.1597
     40  C        -51.6250   17.9140  -13.2520 C.2   159  ARG159      0.2287
     41  O        -50.6750   17.1840  -13.6440 O.2   159  ARG159     -0.2864
     42  CB       -52.2850   19.5590  -15.0510 C.3   159  ARG159      0.0334
     43  CG       -51.4530   18.9420  -16.1620 C.3   159  ARG159      0.0492
     44  CD       -52.2390   18.9490  -17.4630 C.3   159  ARG159      0.2205
     45  NE       -51.5210   18.3210  -18.5850 N.pl3 159  ARG159     -0.0865
     46  CZ       -52.0040   18.2400  -19.8300 C.cat 159  ARG159      0.5346
     47  NH1      -53.2090   18.7420  -20.1120 N.pl3 159  ARG159      0.1354
     48  NH2      -51.2870   17.6800  -20.7980 N.pl3 159  ARG159      0.1354
     49  N        -53.7390   21.6890  -22.2190 N.3   167  MET167     -0.1245
     50  CA       -52.3820   21.9290  -22.6610 C.3   167  MET167      0.1570
     51  C        -52.3090   21.6610  -24.1500 C.2   167  MET167      0.2261
     52  O        -52.5500   20.5380  -24.5890 O.2   167  MET167     -0.2867
     53  CB       -51.4330   21.0030  -21.9180 C.3   167  MET167      0.0387
     54  CG       -50.0150   21.4900  -21.8590 C.3   167  MET167      0.0595
     55  SD       -49.4480   21.0170  -20.2160 S.3   167  MET167     -0.1393
     56  CE       -47.7950   21.6070  -20.4520 C.3   167  MET167      0.0692
     57  N        -50.1360   21.1780  -27.2960 N.3   169  LYS169     -0.1245
     58  CA       -48.7570   20.7910  -27.6130 C.3   169  LYS169      0.1561
     59  C        -48.5010   20.8280  -29.1320 C.2   169  LYS169      0.2260
     60  O        -49.4440   21.0660  -29.9320 O.2   169  LYS169     -0.2867
     61  CB       -48.4660   19.3920  -27.0390 C.3   169  LYS169      0.0271
     62  CG       -48.7510   19.3060  -25.5450 C.3   169  LYS169      0.0035
     63  CD       -48.4050   17.9780  -24.8650 C.3   169  LYS169      0.0206
     64  CE       -48.0950   18.2750  -23.3930 C.3   169  LYS169      0.1093
     65  NZ       -47.8800   17.0730  -22.5690 N.3   169  LYS169     -0.1314
     66  N        -47.5700   24.8820  -25.5030 N.3   199  GLU199     -0.1245
     67  CA       -46.1640   24.5630  -25.7170 C.3   199  GLU199      0.1567
     68  C        -45.6920   25.2600  -26.9900 C.2   199  GLU199      0.2260
     69  O        -46.2340   25.0260  -28.0680 O.2   199  GLU199     -0.2867
     70  CB       -45.9690   23.0660  -25.8650 C.3   199  GLU199      0.0388
     71  CG       -46.1450   22.2730  -24.5750 C.3   199  GLU199      0.1160
     72  CD       -45.5930   20.8560  -24.7230 C.2   199  GLU199      0.3649
     73  OE1      -45.2140   20.4950  -25.8810 O.co2 199  GLU199     -0.2457
     74  OE2      -45.5340   20.1160  -23.6980 O.co2 199  GLU199     -0.2457
     75  N        -45.5220   27.7430  -22.4640 N.3   218  LEU218     -0.1245
     76  CA       -44.4490   26.8760  -22.0680 C.3   218  LEU218      0.1561
     77  C        -43.4450   26.9120  -23.1930 C.2   218  LEU218      0.2260
     78  O        -43.7070   26.4240  -24.2950 O.2   218  LEU218     -0.2867
     79  CB       -44.9380   25.4510  -21.7990 C.3   218  LEU218      0.0270
     80  CG       -43.9150   24.4880  -21.1880 C.3   218  LEU218      0.0019
     81  CD1      -44.6010   23.4940  -20.2660 C.3   218  LEU218      0.0001
     82  CD2      -43.1370   23.7660  -22.2780 C.3   218  LEU218      0.0001
     83  N        -43.5050   29.2590  -18.4800 N.3   244  GLU244     -0.1245
     84  CA       -42.9520   28.0150  -17.9910 C.3   244  GLU244      0.1567
     85  C        -41.8360   27.5870  -18.9520 C.2   244  GLU244      0.2260
     86  O        -42.0020   27.6860  -20.1800 O.2   244  GLU244     -0.2867
     87  CB       -44.0350   26.9270  -17.9410 C.3   244  GLU244      0.0388
     88  CG       -43.4500   25.5280  -17.7060 C.3   244  GLU244      0.1160
     89  CD       -44.5060   24.4730  -17.4230 C.2   244  GLU244      0.3649
     90  OE1      -45.7130   24.8260  -17.4090 O.co2 244  GLU244     -0.2457
     91  OE2      -44.1340   23.2870  -17.2060 O.co2 244  GLU244     -0.2457
     92  N        -39.3450   24.3010  -20.0460 N.3   246  SER246     -0.1217
     93  CA       -39.2650   22.8370  -19.8980 C.3   246  SER246      0.1889
     94  C        -38.5310   22.2680  -21.0860 C.2   246  SER246      0.2288
     95  O        -38.5390   22.8990  -22.1460 O.2   246  SER246     -0.2866
     96  CB       -40.6920   22.2230  -19.8050 C.3   246  SER246      0.2089
     97  OG       -40.6630   20.8660  -19.4030 O.3   246  SER246     -0.2183
     98  N        -40.3040   22.9920  -15.1820 N.3   266  SER266     -0.1217
     99  CA       -40.7600   21.6180  -15.0430 C.3   266  SER266      0.1889
    100  C        -39.7250   20.6410  -15.5720 C.2   266  SER266      0.2288
    101  O        -39.0410   20.9070  -16.5690 O.2   266  SER266     -0.2866
    102  CB       -42.1010   21.3990  -15.7450 C.3   266  SER266      0.2089
    103  OG       -42.0240   21.6900  -17.1200 O.3   266  SER266     -0.2183
@<TRIPOS>BOND
     1    60    59    2
     2    59    58    1
     3    69    68    2
     4    58    57    1
     5    58    61    1
     6    61    62    1
     7    68    67    1
     8    73    72   ar
     9    70    67    1
    10    70    71    1
    11    67    66    1
    12    62    63    1
    13    63    64    1
    14    72    71    1
    15    72    74   ar
    16    52    51    2
    17    78    77    2
    18    51    50    1
    19    64    65    1
    20    77    76    1
    21    50    49    1
    22    50    53    1
    23    75    76    1
    24    82    80    1
    25    95    94    2
    26    76    79    1
    27    53    54    1
    28    54    55    1
    29    79    80    1
    30    27    26    1
    31    80    81    1
    32    94    93    1
    33    26    25    1
    34    18    16    1
    35    48    46    1
    36    17    16    1
    37    56    55    1
    38    86    85    2
    39    16    15    2
    40    47    46    1
    41    92    93    1
    42    93    96    1
    43    46    45    2
    44    96    97    1
    45    25    24    1
    46    24    23    1
    47    85    84    1
    48    15    14    1
    49    45    44    1
    50    83    84    1
    51    84    87    1
    52    14    13    1
    53    87    88    1
    54    88    89    1
    55    12    13    1
    56    12     9    1
    57    23    20    1
    58    44    43    1
    59    89    90   ar
    60    89    91   ar
    61    11    10    2
    62   103   102    1
    63    20    19    1
    64    20    21    1
    65    10    19   am
    66    10     9    1
    67     9     8    1
    68     8     3   am
    69     7     5    1
    70   101   100    2
    71     5     6    1
    72     5     2    1
    73    37    36   ar
    74    37    35   ar
    75    43    42    1
    76    36    34   ar
    77    21    22    2
    78   102    99    1
    79   100    99    1
    80     2     3    1
    81     2     1    1
    82     3     4    2
    83    35    33   ar
    84    98    99    1
    85    34    33   ar
    86    42    39    1
    87    33    32    1
    88    39    38    1
    89    39    40    1
    90    41    40    2
    91    38    30   am
    92    32    29    1
    93    30    29    1
    94    30    31    2
    95    29    28    1
