@<TRIPOS>MOLECULE
tmp/4kx3A00.pdb
 177 169 0 0 0
SMALL
GASTEIGER

@<TRIPOS>ATOM
      1  N        -13.2020  -16.7970   18.4980 N.3    43  ASP43      -0.1225
      2  CA       -12.1540  -17.7950   18.3850 C.3    43  ASP43       0.1805
      3  C        -10.9710  -17.3160   19.2160 C.2    43  ASP43       0.2598
      4  O        -10.8870  -16.1220   19.5530 O.2    43  ASP43      -0.2718
      5  CB       -11.7390  -17.9330   16.8980 C.3    43  ASP43       0.1424
      6  CG       -10.6010  -18.8530   16.6810 C.2    43  ASP43       0.3668
      7  OD1      -10.7360  -19.9960   17.1160 O.co2  43  ASP43      -0.2456
      8  OD2       -9.5640  -18.4260   16.0970 O.co2  43  ASP43      -0.2456
      9  N        -10.0210  -18.2130   19.4440 N.am   44  PHE44      -0.1962
     10  CA        -8.7480  -17.8030   20.0760 C.3    44  PHE44       0.1771
     11  C         -7.4970  -17.7180   19.1870 C.2    44  PHE44       0.2620
     12  O         -7.0340  -16.6100   18.8700 O.2    44  PHE44      -0.2715
     13  CB        -8.4610  -18.6190   21.3620 C.3    44  PHE44       0.0574
     14  CG        -7.3080  -18.0970   22.0940 C.ar   44  PHE44      -0.0200
     15  CD1       -7.4490  -16.9990   22.9730 C.ar   44  PHE44      -0.0042
     16  CD2       -6.0490  -18.6140   21.8650 C.ar   44  PHE44      -0.0042
     17  CE1       -6.3710  -16.4580   23.6130 C.ar   44  PHE44      -0.0003
     18  CE2       -4.9330  -18.0460   22.5510 C.ar   44  PHE44      -0.0003
     19  CZ        -5.0870  -16.9590   23.3570 C.ar   44  PHE44      -0.0000
     20  N         -6.9150  -18.8750   18.8340 N.am   45  ASN45      -0.1958
     21  CA        -5.6500  -18.9250   18.1140 C.3    45  ASN45       0.1819
     22  C         -5.7670  -18.2100   16.7420 C.2    45  ASN45       0.2621
     23  O         -6.6230  -18.5470   15.9050 O.2    45  ASN45      -0.2715
     24  CB        -5.1840  -20.3660   17.8860 C.3    45  ASN45       0.1195
     25  CG        -4.7640  -21.0700   19.1430 C.2    45  ASN45       0.2630
     26  OD1       -3.8620  -20.6190   19.8350 O.2    45  ASN45      -0.2716
     27  ND2       -5.4570  -22.1650   19.4770 N.am   45  ASN45      -0.0877
     28  N         -4.9250  -17.1880   16.5660 N.am   46  MET46      -0.1977
     29  CA        -4.8020  -16.3720   15.3380 C.3    46  MET46       0.1605
     30  C         -5.9540  -15.3920   15.1270 C.2    46  MET46       0.2287
     31  O         -6.0390  -14.7340   14.0560 O.2    46  MET46      -0.2864
     32  CB        -4.5950  -17.2450   14.1240 C.3    46  MET46       0.0413
     33  CG        -3.5750  -18.4010   14.2770 C.3    46  MET46       0.0598
     34  SD        -1.9150  -18.0040   14.8190 S.3    46  MET46      -0.1393
     35  CE        -1.7640  -18.2520   16.5630 C.3    46  MET46       0.0692
     36  N          0.3560  -21.1620   18.1720 N.3    60  THR60      -0.1218
     37  CA        -0.9120  -21.5510   18.7320 C.3    60  THR60       0.1862
     38  C         -0.6730  -22.1000   20.1200 C.2    60  THR60       0.2287
     39  O          0.4840  -22.3610   20.5070 O.2    60  THR60      -0.2866
     40  CB        -1.5870  -22.6430   17.9340 C.3    60  THR60       0.1770
     41  OG1       -0.7590  -23.8260   17.9650 O.3    60  THR60      -0.2211
     42  CG2       -1.8770  -22.1800   16.4680 C.3    60  THR60       0.0375
     43  N         -1.4610  -25.1150   21.0980 N.3    62  HIS62      -0.1226
     44  CA        -0.7800  -26.3670   20.9430 C.3    62  HIS62       0.1752
     45  C          0.7410  -26.1730   20.7110 C.2    62  HIS62       0.2596
     46  O          1.5240  -26.9080   21.2770 O.2    62  HIS62      -0.2718
     47  CB        -1.3150  -27.1730   19.7740 C.3    62  HIS62       0.0759
     48  CG        -2.5770  -27.9080   20.0630 C.ar   62  HIS62       0.0818
     49  ND1       -3.8200  -27.3050   19.9640 N.ar   62  HIS62      -0.2268
     50  CD2       -2.8000  -29.1970   20.4240 C.ar   62  HIS62       0.1154
     51  CE1       -4.7470  -28.1920   20.2510 C.ar   62  HIS62       0.1986
     52  NE2       -4.1590  -29.3460   20.5360 N.ar   62  HIS62      -0.2212
     53  N          1.1300  -25.2190   19.8880 N.am   63  ASN63      -0.1974
     54  CA         2.5580  -24.9960   19.5630 C.3    63  ASN63       0.1688
     55  C          3.3670  -24.6100   20.8020 C.2    63  ASN63       0.2292
     56  O          4.5690  -24.8900   20.8750 O.2    63  ASN63      -0.2864
     57  CB         2.7490  -23.8690   18.5560 C.3    63  ASN63       0.1181
     58  CG         2.1380  -24.1550   17.1670 C.2    63  ASN63       0.2629
     59  OD1        1.8510  -23.2090   16.4390 O.2    63  ASN63      -0.2716
     60  ND2        1.9650  -25.4420   16.7830 N.am   63  ASN63      -0.0877
     61  N          4.3040  -27.9390   22.0190 N.3    66  ASP66      -0.1239
     62  CA         5.2160  -28.5750   21.0670 C.3    66  ASP66       0.1674
     63  C          6.6510  -28.0900   21.2930 C.2    66  ASP66       0.2266
     64  O          7.5990  -28.8560   21.1710 O.2    66  ASP66      -0.2867
     65  CB         4.9220  -28.1800   19.6350 C.3    66  ASP66       0.1410
     66  CG         3.5510  -28.6180   19.1170 C.2    66  ASP66       0.3668
     67  OD1        2.8500  -29.5330   19.6710 O.co2  66  ASP66      -0.2456
     68  OD2        3.2490  -28.0320   18.0370 O.co2  66  ASP66      -0.2456
     69  N          6.0050  -33.7370   16.2050 N.3    79  LEU79      -0.1245
     70  CA         4.9270  -32.7340   16.2930 C.3    79  LEU79       0.1561
     71  C          5.0440  -31.6860   15.2150 C.2    79  LEU79       0.2260
     72  O          4.0270  -31.3050   14.6170 O.2    79  LEU79      -0.2867
     73  CB         4.9140  -32.1010   17.6810 C.3    79  LEU79       0.0270
     74  CG         4.4600  -33.0670   18.7860 C.3    79  LEU79       0.0019
     75  CD1        4.7990  -32.5320   20.1760 C.3    79  LEU79       0.0001
     76  CD2        2.9710  -33.3490   18.6420 C.3    79  LEU79       0.0001
     77  N          2.4820  -30.9670   12.2000 N.3    83  LYS83      -0.1245
     78  CA         2.0240  -29.5930   11.9730 C.3    83  LYS83       0.1561
     79  C          2.1580  -29.1960   10.5180 C.2    83  LYS83       0.2260
     80  O          1.1840  -28.7030    9.9150 O.2    83  LYS83      -0.2867
     81  CB         2.8170  -28.6380   12.8320 C.3    83  LYS83       0.0271
     82  CG         2.2390  -27.2240   12.7650 C.3    83  LYS83       0.0035
     83  CD         3.2960  -26.1560   12.7520 C.3    83  LYS83       0.0206
     84  CE         4.1870  -26.1790   13.9600 C.3    83  LYS83       0.1093
     85  NZ         5.2290  -25.1470   13.7840 N.3    83  LYS83      -0.1314
     86  N         -1.3390  -28.6930    8.8340 N.3    87  TYR87      -0.1241
     87  CA        -1.6580  -27.2640    8.5810 C.3    87  TYR87       0.1605
     88  C         -1.9050  -27.0620    7.0990 C.2    87  TYR87       0.2264
     89  O         -2.8670  -26.4070    6.6680 O.2    87  TYR87      -0.2867
     90  CB        -0.5800  -26.3200    9.1520 C.3    87  TYR87       0.0534
     91  CG        -0.8660  -24.8490    8.8450 C.ar   87  TYR87      -0.0201
     92  CD1       -1.7820  -24.1180    9.5850 C.ar   87  TYR87      -0.0009
     93  CD2       -0.2590  -24.2290    7.7680 C.ar   87  TYR87      -0.0009
     94  CE1       -2.0510  -22.7730    9.2780 C.ar   87  TYR87       0.0417
     95  CE2       -0.5190  -22.8950    7.4480 C.ar   87  TYR87       0.0417
     96  CZ        -1.4270  -22.1720    8.1780 C.ar   87  TYR87       0.1957
     97  OH        -1.6850  -20.8340    7.7850 O.3    87  TYR87      -0.2866
     98  N         -5.3830  -28.1150    6.5450 N.3    90  GLU90      -0.1245
     99  CA        -6.2900  -27.1460    7.1970 C.3    90  GLU90       0.1567
    100  C         -6.5350  -25.9280    6.3320 C.2    90  GLU90       0.2260
    101  O         -7.6910  -25.5200    6.1560 O.2    90  GLU90      -0.2867
    102  CB        -5.7470  -26.7070    8.5870 C.3    90  GLU90       0.0388
    103  CG        -6.6370  -25.6940    9.3070 C.3    90  GLU90       0.1160
    104  CD        -6.0530  -25.1460   10.6070 C.2    90  GLU90       0.3649
    105  OE1       -4.8860  -25.3810   10.9570 O.co2  90  GLU90      -0.2457
    106  OE2       -6.7980  -24.4310   11.2940 O.co2  90  GLU90      -0.2457
    107  N         -5.3110  -35.3240   12.9770 N.3   107  TRP107     -0.1227
    108  CA        -4.2500  -34.4510   13.5090 C.3   107  TRP107      0.1737
    109  C         -4.3860  -34.4040   15.0080 C.2   107  TRP107      0.2595
    110  O         -3.3860  -34.5340   15.7390 O.2   107  TRP107     -0.2718
    111  CB        -4.3550  -33.0350   12.9130 C.3   107  TRP107      0.0564
    112  CG        -3.3120  -32.0890   13.2870 C.ar  107  TRP107      0.0003
    113  CD1       -2.0980  -32.3570   13.8850 C.ar  107  TRP107      0.0946
    114  CD2       -3.3000  -30.6730   12.9810 C.ar  107  TRP107      0.0152
    115  NE1       -1.3840  -31.1940   14.0100 N.ar  107  TRP107     -0.2442
    116  CE2       -2.0980  -30.1510   13.4700 C.ar  107  TRP107      0.0810
    117  CE3       -4.1950  -29.8180   12.3330 C.ar  107  TRP107      0.0012
    118  CZ2       -1.7650  -28.7950   13.3560 C.ar  107  TRP107      0.0191
    119  CZ3       -3.8930  -28.4470   12.2530 C.ar  107  TRP107      0.0001
    120  CH2       -2.6570  -27.9690   12.7110 C.ar  107  TRP107      0.0015
    121  N         -5.6130  -34.2200   15.4830 N.am  108  TYR108     -0.1976
    122  CA        -5.8190  -34.0910   16.9180 C.3   108  TYR108      0.1639
    123  C         -5.4910  -35.3930   17.6520 C.2   108  TYR108      0.2290
    124  O         -4.8670  -35.3750   18.7020 O.2   108  TYR108     -0.2864
    125  CB        -7.2530  -33.6130   17.2650 C.3   108  TYR108      0.0560
    126  CG        -7.4330  -32.0960   17.1300 C.ar  108  TYR108     -0.0198
    127  CD1       -7.6190  -31.5130   15.9070 C.ar  108  TYR108     -0.0009
    128  CD2       -7.3320  -31.2880   18.2080 C.ar  108  TYR108     -0.0009
    129  CE1       -7.7600  -30.1350   15.7550 C.ar  108  TYR108      0.0417
    130  CE2       -7.4940  -29.8830   18.1010 C.ar  108  TYR108      0.0417
    131  CZ        -7.7080  -29.3170   16.8900 C.ar  108  TYR108      0.1957
    132  OH        -7.8160  -27.9580   16.7870 O.3   108  TYR108     -0.2866
    133  N         -1.5460  -35.7920   17.5500 N.3   111  SER111     -0.1217
    134  CA        -0.9550  -34.7850   18.4160 C.3   111  SER111      0.1889
    135  C         -1.2170  -35.1480   19.8520 C.2   111  SER111      0.2288
    136  O         -0.2880  -35.1750   20.6920 O.2   111  SER111     -0.2866
    137  CB        -1.5530  -33.3640   18.1190 C.3   111  SER111      0.2089
    138  OG        -1.1930  -32.4860   19.1940 O.3   111  SER111     -0.2183
    139  N        -12.5430  -22.2400   21.4450 N.3   158  SER158     -0.1202
    140  CA       -11.2710  -22.5050   20.8200 C.3   158  SER158      0.2020
    141  C        -11.1010  -23.9630   20.6500 C.2   158  SER158      0.2619
    142  O        -11.3750  -24.7230   21.5760 O.2   158  SER158     -0.2717
    143  CB       -10.1050  -21.9770   21.6530 C.3   158  SER158      0.2103
    144  OG        -8.8750  -22.4610   21.1140 O.3   158  SER158     -0.2182
    145  N        -10.6390  -24.3860   19.4750 N.am  159  ALA159     -0.1965
    146  CA       -10.3220  -25.8030   19.2700 C.3   159  ALA159      0.1728
    147  C         -8.8710  -26.0720   19.7060 C.2   159  ALA159      0.2616
    148  O         -8.2310  -27.0810   19.2820 O.2   159  ALA159     -0.2715
    149  CB       -10.5530  -26.1610   17.8320 C.3   159  ALA159      0.0334
    150  N         -8.3280  -25.1740   20.5380 N.am  160  GLY160     -0.1955
    151  CA        -6.9390  -25.3140   21.0300 C.3   160  GLY160      0.1869
    152  C         -6.8420  -26.1700   22.3110 C.2   160  GLY160      0.2309
    153  O         -7.5250  -27.2270   22.4260 O.2   160  GLY160     -0.2863
    154  N        -11.3230  -28.0830   14.3590 N.3   204  VAL204     -0.1245
    155  CA       -11.4950  -26.9220   13.4640 C.3   204  VAL204      0.1561
    156  C        -12.8850  -26.8910   12.8010 C.2   204  VAL204      0.2260
    157  O        -13.4900  -25.8020   12.6340 O.2   204  VAL204     -0.2867
    158  CB       -10.4300  -26.8890   12.3620 C.3   204  VAL204      0.0252
    159  CG1      -10.7450  -25.7580   11.3670 C.3   204  VAL204      0.0019
    160  CG2       -9.0220  -26.7240   12.9700 C.3   204  VAL204      0.0019
    161  N        -17.1560  -26.8230   15.4060 N.3   207  LYS207     -0.1245
    162  CA       -17.6110  -25.8780   16.4320 C.3   207  LYS207      0.1561
    163  C        -19.1590  -25.7890   16.5100 C.2   207  LYS207      0.2260
    164  O        -19.6840  -25.4370   17.5330 O.2   207  LYS207     -0.2867
    165  CB       -16.9340  -24.5110   16.3360 C.3   207  LYS207      0.0271
    166  CG       -15.3870  -24.5880   16.6670 C.3   207  LYS207      0.0035
    167  CD       -14.7790  -23.1980   16.7820 C.3   207  LYS207      0.0206
    168  CE       -13.3060  -23.2980   17.1420 C.3   207  LYS207      0.1093
    169  NZ       -12.6510  -21.9730   17.1190 N.3   207  LYS207     -0.1314
    170  N        -10.8830  -16.6860   12.5150 N.3   232  ASP232     -0.1239
    171  CA        -9.9160  -16.6610   11.4190 C.3   232  ASP232      0.1674
    172  C        -10.1020  -17.8360   10.3730 C.2   232  ASP232      0.2266
    173  O         -9.4190  -17.8700    9.3610 O.2   232  ASP232     -0.2867
    174  CB        -8.5020  -16.6060   11.9680 C.3   232  ASP232      0.1410
    175  CG        -8.0730  -17.9380   12.6450 C.2   232  ASP232      0.3668
    176  OD1       -8.6270  -18.2590   13.6960 O.co2 232  ASP232     -0.2456
    177  OD2       -7.1690  -18.6510   12.1500 O.co2 232  ASP232     -0.2456
@<TRIPOS>BOND
     1   101   100    2
     2   100    99    1
     3    98    99    1
     4    89    88    2
     5    88    87    1
     6    99   102    1
     7    95    93   ar
     8    95    96   ar
     9    93    91   ar
    10    97    96    1
    11    96    94   ar
    12    87    86    1
    13    87    90    1
    14   102   103    1
    15    91    90    1
    16    91    92   ar
    17    94    92   ar
    18   103   104    1
    19   173   172    2
    20    80    79    2
    21   172   171    1
    22    79    78    1
    23   104   105   ar
    24   104   106   ar
    25   159   158    1
    26   171   174    1
    27   171   170    1
    28   174   175    1
    29    78    77    1
    30    78    81    1
    31   177   175   ar
    32   119   117   ar
    33   119   120   ar
    34   117   114   ar
    35   158   160    1
    36   158   155    1
    37   157   156    2
    38   175   176   ar
    39   120   118   ar
    40    83    82    1
    41    83    84    1
    42    82    81    1
    43   156   155    1
    44   111   112    1
    45   111   108    1
    46   107   108    1
    47   114   112   ar
    48   114   116   ar
    49   112   113   ar
    50   118   116   ar
    51   155   154    1
    52   116   115   ar
    53   108   109    1
    54    85    84    1
    55   113   115   ar
    56    31    30    2
    57    32    33    1
    58    32    29    1
    59    33    34    1
    60    72    71    2
    61    34    35    1
    62   109   121   am
    63   109   110    2
    64    30    29    1
    65    71    70    1
    66    29    28    1
    67   161   162    1
    68   121   122    1
    69   129   127   ar
    70   129   131   ar
    71    23    22    2
    72   127   126   ar
    73     8     6   ar
    74    69    70    1
    75    70    73    1
    76   165   162    1
    77   165   166    1
    78   162   163    1
    79    59    58    2
    80    42    40    1
    81   163   164    2
    82    28    22   am
    83   166   167    1
    84     6     5    1
    85     6     7   ar
    86    22    21    1
    87   167   168    1
    88    60    58   am
    89   132   131    1
    90   131   130   ar
    91     5     2    1
    92   122   125    1
    93   122   123    1
    94   169   168    1
    95   126   125    1
    96   126   128   ar
    97    58    57    1
    98   133   134    1
    99   123   124    2
   100    73    74    1
   101   149   146    1
   102    24    21    1
   103    24    25    1
   104    40    41    1
   105    40    37    1
   106    68    66   ar
   107   130   128   ar
   108    21    20    1
   109   137   134    1
   110   137   138    1
   111    36    37    1
   112     2     1    1
   113     2     3    1
   114   134   135    1
   115    57    54    1
   116    76    74    1
   117    37    38    1
   118    74    75    1
   119    20    11   am
   120    12    11    2
   121    66    65    1
   122    66    67   ar
   123    25    27   am
   124    25    26    2
   125    11    10    1
   126     3     9   am
   127     3     4    2
   128   146   145    1
   129   146   147    1
   130   148   147    2
   131     9    10    1
   132   145   141   am
   133    54    53    1
   134    54    55    1
   135    65    62    1
   136   147   150   am
   137    47    48    1
   138    47    44    1
   139   135   136    2
   140    53    45   am
   141    49    48   ar
   142    49    51   ar
   143    48    50   ar
   144    10    13    1
   145    38    39    2
   146    51    52   ar
   147    50    52   ar
   148   150   151    1
   149   141   140    1
   150   141   142    2
   151    45    44    1
   152    45    46    2
   153    55    56    2
   154   140   139    1
   155   140   143    1
   156    44    43    1
   157   151   152    1
   158    62    63    1
   159    62    61    1
   160   144   143    1
   161    64    63    2
   162    13    14    1
   163    16    14   ar
   164    16    18   ar
   165    14    15   ar
   166   152   153    2
   167    18    19   ar
   168    15    17   ar
   169    19    17   ar
