@<TRIPOS>MOLECULE
tmp/4kx4A00.pdb
 140 139 0 0 0
SMALL
GASTEIGER

@<TRIPOS>ATOM
      1  N          9.4750  -14.2060   32.3190 N.3     8  TYR8       -0.1241
      2  CA         9.8040  -15.5120   31.7410 C.3     8  TYR8        0.1605
      3  C          8.6310  -16.4110   32.0810 C.2     8  TYR8        0.2264
      4  O          8.0850  -16.3260   33.1880 O.2     8  TYR8       -0.2867
      5  CB        11.0740  -16.1240   32.3400 C.3     8  TYR8        0.0534
      6  CG        12.2880  -15.2350   32.2980 C.ar    8  TYR8       -0.0201
      7  CD1       12.5020  -14.3550   31.2410 C.ar    8  TYR8       -0.0009
      8  CD2       13.2360  -15.2910   33.3140 C.ar    8  TYR8       -0.0009
      9  CE1       13.6170  -13.5240   31.2230 C.ar    8  TYR8        0.0417
     10  CE2       14.3460  -14.4710   33.3000 C.ar    8  TYR8        0.0417
     11  CZ        14.5260  -13.5940   32.2550 C.ar    8  TYR8        0.1957
     12  OH        15.6360  -12.7800   32.2550 O.3     8  TYR8       -0.2866
     13  N          8.5920  -19.6320   32.6250 N.3    10  HIS10      -0.1226
     14  CA         8.8960  -20.6130   33.6810 C.3    10  HIS10       0.1752
     15  C          8.9830  -20.0070   35.0770 C.2    10  HIS10       0.2596
     16  O          8.9410  -20.7390   36.0710 O.2    10  HIS10      -0.2718
     17  CB        10.2190  -21.3430   33.3990 C.3    10  HIS10       0.0759
     18  CG        11.4390  -20.5460   33.7560 C.ar   10  HIS10       0.0818
     19  ND1       12.1010  -19.7510   32.8420 N.ar   10  HIS10      -0.2268
     20  CD2       12.1220  -20.4210   34.9210 C.ar   10  HIS10       0.1154
     21  CE1       13.1360  -19.1770   33.4290 C.ar   10  HIS10       0.1986
     22  NE2       13.1660  -19.5580   34.6950 N.ar   10  HIS10      -0.2212
     23  N          9.1470  -18.6850   35.1600 N.am   11  CYS11      -0.1957
     24  CA         9.5100  -18.0400   36.4230 C.3    11  CYS11       0.1828
     25  C          8.3390  -18.0020   37.4080 C.2    11  CYS11       0.2467
     26  O          7.2860  -17.4290   37.1080 O.2    11  CYS11      -0.2730
     27  CB        10.0500  -16.6170   36.1740 C.3    11  CYS11       0.0996
     28  SG        10.2480  -15.6340   37.6900 S.3    11  CYS11      -0.0797
     29  N          8.5220  -18.5880   38.6020 N.am   12  PRO12      -0.2715
     30  CA         7.4040  -18.6100   39.5590 C.3    12  PRO12       0.1536
     31  C          7.0410  -17.2170   40.0850 C.2    12  PRO12       0.2598
     32  O          5.8770  -16.9880   40.4410 O.2    12  PRO12      -0.2715
     33  CB         7.9200  -19.5140   40.6880 C.3    12  PRO12       0.0310
     34  CG         9.4170  -19.4470   40.5940 C.3    12  PRO12       0.0237
     35  CD         9.7100  -19.2990   39.1100 C.3    12  PRO12       0.0939
     36  N          8.0020  -16.2980   40.1210 N.am   13  TYR13      -0.1974
     37  CA         7.7030  -14.9450   40.5760 C.3    13  TYR13       0.1639
     38  C          6.8470  -14.2430   39.5250 C.2    13  TYR13       0.2290
     39  O          5.9160  -13.5050   39.8590 O.2    13  TYR13      -0.2864
     40  CB         8.9900  -14.1770   40.8670 C.3    13  TYR13       0.0560
     41  CG         9.8570  -14.8970   41.8580 C.ar   13  TYR13      -0.0198
     42  CD1        9.5530  -14.8650   43.2160 C.ar   13  TYR13      -0.0009
     43  CD2       10.9460  -15.6400   41.4390 C.ar   13  TYR13      -0.0009
     44  CE1       10.3230  -15.5300   44.1240 C.ar   13  TYR13       0.0417
     45  CE2       11.7340  -16.3180   42.3490 C.ar   13  TYR13       0.0417
     46  CZ        11.4090  -16.2620   43.6880 C.ar   13  TYR13       0.1957
     47  OH        12.1820  -16.9310   44.6110 O.3    13  TYR13      -0.2866
     48  N         15.8200  -15.0180   27.8410 N.3    35  ASN35      -0.1240
     49  CA        16.4750  -15.2290   29.1220 C.3    35  ASN35       0.1653
     50  C         17.8480  -14.5570   29.2310 C.2    35  ASN35       0.2266
     51  O         18.3100  -14.2630   30.3370 O.2    35  ASN35      -0.2867
     52  CB        16.5740  -16.7300   29.4140 C.3    35  ASN35       0.1155
     53  CG        16.9130  -17.0260   30.8580 C.2    35  ASN35       0.2627
     54  OD1       17.9800  -17.5640   31.1600 O.2    35  ASN35      -0.2716
     55  ND2       16.0120  -16.6650   31.7650 N.am   35  ASN35      -0.0877
     56  N         18.9380   -6.8400   36.0100 N.3    48  LYS48      -0.1231
     57  CA        18.2930   -7.9310   35.2920 C.3    48  LYS48       0.1693
     58  C         17.4300   -8.7300   36.2620 C.2    48  LYS48       0.2592
     59  O         17.9470   -9.4760   37.1060 O.2    48  LYS48      -0.2718
     60  CB        19.3400   -8.8370   34.6330 C.3    48  LYS48       0.0285
     61  CG        18.7570   -9.8920   33.7020 C.3    48  LYS48       0.0035
     62  CD        19.8450  -10.7830   33.1050 C.3    48  LYS48       0.0206
     63  CE        19.2630  -11.8480   32.1700 C.3    48  LYS48       0.1093
     64  NZ        18.4150  -12.8630   32.8720 N.3    48  LYS48      -0.1314
     65  N         16.1130   -8.5420   36.1610 N.am   49  GLN49      -0.1966
     66  CA        15.1590   -9.3210   36.9460 C.3    49  GLN49       0.1733
     67  C         13.7910   -9.2930   36.2720 C.2    49  GLN49       0.2616
     68  O         13.4830   -8.3720   35.5010 O.2    49  GLN49      -0.2715
     69  CB        15.0280   -8.7450   38.3550 C.3    49  GLN49       0.0408
     70  CG        14.2940   -7.4110   38.4030 C.3    49  GLN49       0.0908
     71  CD        14.2470   -6.8350   39.8020 C.2    49  GLN49       0.2608
     72  OE1       15.0100   -5.9260   40.1360 O.2    49  GLN49      -0.2717
     73  NE2       13.3500   -7.3630   40.6340 N.am   49  GLN49      -0.0878
     74  N         12.9870  -10.3120   36.5600 N.am   50  VAL50      -0.1964
     75  CA        11.5810  -10.3520   36.1640 C.3    50  VAL50       0.1712
     76  C         10.8060  -10.9630   37.3330 C.2    50  VAL50       0.2458
     77  O         11.3660  -11.7280   38.1110 O.2    50  VAL50      -0.2730
     78  CB        11.3380  -11.2000   34.8720 C.3    50  VAL50       0.0289
     79  CG1       11.8960  -10.5170   33.6250 C.3    50  VAL50       0.0023
     80  CG2       11.8840  -12.6330   35.0250 C.3    50  VAL50       0.0023
     81  N          9.5090  -10.6460   37.4650 N.am   51  PRO51      -0.2727
     82  CA         8.6900   -9.8070   36.5890 C.3    51  PRO51       0.1402
     83  C          8.9130   -8.3070   36.7280 C.2    51  PRO51       0.2269
     84  O          9.3820   -7.8160   37.7630 O.2    51  PRO51      -0.2865
     85  CB         7.2650  -10.1350   37.0410 C.3    51  PRO51       0.0296
     86  CG         7.4190  -10.4730   38.5040 C.3    51  PRO51       0.0237
     87  CD         8.7060  -11.2650   38.5380 C.3    51  PRO51       0.0939
     88  N          9.3740   -6.6140   41.2920 N.3    63  GLU63      -0.1231
     89  CA         9.0090   -7.3210   42.5300 C.3    63  GLU63       0.1699
     90  C          7.5990   -7.8920   42.5170 C.2    63  GLU63       0.2593
     91  O          6.6150   -7.1710   42.6480 O.2    63  GLU63      -0.2718
     92  CB         9.2630   -6.4820   43.7920 C.3    63  GLU63       0.0402
     93  CG        10.7110   -6.0690   43.9690 C.3    63  GLU63       0.1161
     94  CD        11.6500   -7.2530   44.0670 C.2    63  GLU63       0.3649
     95  OE1       12.7820   -7.1570   43.5410 O.co2  63  GLU63      -0.2457
     96  OE2       11.2630   -8.2810   44.6720 O.co2  63  GLU63      -0.2457
     97  N          7.5270   -9.2080   42.3620 N.am   64  SER64      -0.1938
     98  CA         6.2620   -9.9160   42.2560 C.3    64  SER64       0.2055
     99  C          5.2300   -9.5360   43.3170 C.2    64  SER64       0.2642
    100  O          4.0800   -9.2870   42.9820 O.2    64  SER64      -0.2714
    101  CB         6.4950  -11.4270   42.2660 C.3    64  SER64       0.2130
    102  OG         7.0860  -11.8410   43.4840 O.3    64  SER64      -0.2179
    103  N          5.6140   -9.4870   44.5900 N.am   65  MET65      -0.1976
    104  CA         4.5970   -9.2170   45.6060 C.3    65  MET65       0.1605
    105  C          4.1940   -7.7430   45.6400 C.2    65  MET65       0.2287
    106  O          3.0530   -7.4240   45.9860 O.2    65  MET65      -0.2864
    107  CB         5.0280   -9.7210   46.9870 C.3    65  MET65       0.0413
    108  CG         5.0680  -11.2370   47.1070 C.3    65  MET65       0.0598
    109  SD         3.6040  -12.0540   46.4530 S.3    65  MET65      -0.1393
    110  CE         2.3120  -11.3780   47.4860 C.3    65  MET65       0.0692
    111  N         22.3930  -19.8560   27.5670 N.3   123  TYR123     -0.1241
    112  CA        22.6690  -18.9650   28.6870 C.3   123  TYR123      0.1605
    113  C         22.0650  -19.5400   29.9660 C.2   123  TYR123      0.2264
    114  O         22.7190  -19.5920   31.0170 O.2   123  TYR123     -0.2867
    115  CB        22.1000  -17.5740   28.3760 C.3   123  TYR123      0.0534
    116  CG        22.0960  -16.6130   29.5410 C.ar  123  TYR123     -0.0201
    117  CD1       20.9900  -16.5140   30.3780 C.ar  123  TYR123     -0.0009
    118  CD2       23.1790  -15.7750   29.7770 C.ar  123  TYR123     -0.0009
    119  CE1       20.9750  -15.6300   31.4410 C.ar  123  TYR123      0.0417
    120  CE2       23.1700  -14.8880   30.8320 C.ar  123  TYR123      0.0417
    121  CZ        22.0670  -14.8210   31.6570 C.ar  123  TYR123      0.1957
    122  OH        22.0550  -13.9310   32.7050 O.3   123  TYR123     -0.2866
    123  N         24.1900  -21.1080   33.1930 N.3   127  LYS127     -0.1231
    124  CA        24.0040  -20.4840   34.4990 C.3   127  LYS127      0.1693
    125  C         23.4760  -21.4870   35.5230 C.2   127  LYS127      0.2591
    126  O         23.9860  -21.5720   36.6510 O.2   127  LYS127     -0.2718
    127  CB        23.0360  -19.3030   34.3860 C.3   127  LYS127      0.0285
    128  CG        22.7490  -18.5830   35.6990 C.3   127  LYS127      0.0035
    129  CD        22.4760  -17.1040   35.4280 C.3   127  LYS127      0.0206
    130  CE        21.0350  -16.7240   35.6730 C.3   127  LYS127      0.1093
    131  NZ        20.6910  -15.4660   34.9530 N.3   127  LYS127     -0.1314
    132  N         22.4580  -22.2490   35.1340 N.am  128  LYS128     -0.1980
    133  CA        21.7960  -23.1470   36.0760 C.3   128  LYS128      0.1596
    134  C         22.5590  -24.4450   36.3360 C.2   128  LYS128      0.2287
    135  O         22.4590  -25.0100   37.4300 O.2   128  LYS128     -0.2864
    136  CB        20.3520  -23.4280   35.6490 C.3   128  LYS128      0.0298
    137  CG        19.5030  -22.1660   35.5090 C.3   128  LYS128      0.0038
    138  CD        19.4970  -21.3480   36.8010 C.3   128  LYS128      0.0206
    139  CE        18.5910  -20.1270   36.6640 C.3   128  LYS128      0.1093
    140  NZ        18.5340  -19.3410   37.9280 N.3   128  LYS128     -0.1314
@<TRIPOS>BOND
     1   111   112    1
     2    48    49    1
     3   115   112    1
     4   115   116    1
     5   112   113    1
     6    49    50    1
     7    49    52    1
     8    50    51    2
     9    52    53    1
    10   116   118   ar
    11   116   117   ar
    12   118   120   ar
    13   113   114    2
    14   117   119   ar
    15   120   121   ar
    16    53    54    2
    17    53    55   am
    18     9     7   ar
    19     9    11   ar
    20     7     6   ar
    21   119   121   ar
    22   121   122    1
    23     2     3    1
    24     2     1    1
    25     2     5    1
    26     3     4    2
    27    63    64    1
    28    63    62    1
    29    12    11    1
    30    11    10   ar
    31     6     5    1
    32     6     8   ar
    33    13    14    1
    34    19    21   ar
    35    19    18   ar
    36    62    61    1
    37   123   124    1
    38    10     8   ar
    39    17    14    1
    40    17    18    1
    41    21    22   ar
    42    79    78    1
    43    14    15    1
    44    61    60    1
    45    18    20   ar
    46   127   124    1
    47   127   128    1
    48   124   125    1
    49    60    57    1
    50    22    20   ar
    51    78    80    1
    52    78    75    1
    53   131   130    1
    54    15    23   am
    55    15    16    2
    56   132   125   am
    57   132   133    1
    58    23    24    1
    59    57    56    1
    60    57    58    1
    61   129   130    1
    62   129   128    1
    63    68    67    2
    64   137   136    1
    65   137   138    1
    66   125   126    2
    67   136   133    1
    68   133   134    1
    69    65    58   am
    70    65    66    1
    71    75    74    1
    72    75    76    1
    73    27    24    1
    74    27    28    1
    75    58    59    2
    76    67    74   am
    77    67    66    1
    78   134   135    2
    79    24    25    1
    80    82    83    1
    81    82    85    1
    82    82    81    1
    83   139   138    1
    84   139   140    1
    85    83    84    2
    86    66    69    1
    87    85    86    1
    88    26    25    2
    89    76    81   am
    90    76    77    2
    91    25    29   am
    92    81    87    1
    93    69    70    1
    94    70    71    1
    95    86    87    1
    96    29    35    1
    97    29    30    1
    98    35    34    1
    99    38    39    2
   100    38    37    1
   101    30    31    1
   102    30    33    1
   103    71    72    2
   104    71    73   am
   105    31    36   am
   106    31    32    2
   107    36    37    1
   108    37    40    1
   109    34    33    1
   110    40    41    1
   111    88    89    1
   112    43    41   ar
   113    43    45   ar
   114    41    42   ar
   115    98   101    1
   116    98    97    1
   117    98    99    1
   118   101   102    1
   119    45    46   ar
   120    97    90   am
   121    90    89    1
   122    90    91    2
   123    89    92    1
   124   100    99    2
   125    42    44   ar
   126    99   103   am
   127    95    94   ar
   128    46    44   ar
   129    46    47    1
   130    92    93    1
   131    93    94    1
   132    94    96   ar
   133   103   104    1
   134   104   105    1
   135   104   107    1
   136   105   106    2
   137   109   108    1
   138   109   110    1
   139   107   108    1
