@<TRIPOS>MOLECULE
tmp/4kx5A00.pdb
 156 147 0 0 0
SMALL
GASTEIGER

@<TRIPOS>ATOM
      1  N         10.2980    6.7790   18.5160 N.3    43  ASP43      -0.1239
      2  CA        11.3510    5.8160   18.4070 C.3    43  ASP43       0.1674
      3  C         12.5400    6.2670   19.1990 C.2    43  ASP43       0.2266
      4  O         12.6070    7.3980   19.6170 O.2    43  ASP43      -0.2867
      5  CB        11.7760    5.7210   16.9230 C.3    43  ASP43       0.1410
      6  CG        12.8290    4.7350   16.6940 C.2    43  ASP43       0.3668
      7  OD1       12.6310    3.5740   17.0950 O.co2  43  ASP43      -0.2456
      8  OD2       13.8540    5.1450   16.1180 O.co2  43  ASP43      -0.2456
      9  N         16.5060    4.6600   18.8030 N.3    45  ASN45      -0.1240
     10  CA        17.7500    4.6060   18.0740 C.3    45  ASN45       0.1653
     11  C         17.6610    5.3540   16.7120 C.2    45  ASN45       0.2266
     12  O         16.8030    5.0370   15.8780 O.2    45  ASN45      -0.2867
     13  CB        18.2150    3.1890   17.8370 C.3    45  ASN45       0.1155
     14  CG        18.6990    2.4880   19.0960 C.2    45  ASN45       0.2627
     15  OD1       19.6350    2.9320   19.7510 O.2    45  ASN45      -0.2716
     16  ND2       18.1330    1.3080   19.3770 N.am   45  ASN45      -0.0877
     17  N         23.9360    2.3090   18.1180 N.3    60  THR60      -0.1218
     18  CA        22.6180    1.9490   18.6410 C.3    60  THR60       0.1862
     19  C         22.8130    1.3990   20.0580 C.2    60  THR60       0.2287
     20  O         23.9450    1.1280   20.4870 O.2    60  THR60      -0.2866
     21  CB        21.9560    0.8510   17.7890 C.3    60  THR60       0.1770
     22  OG1       22.7440   -0.3680   17.8680 O.3    60  THR60      -0.2211
     23  CG2       21.7670    1.2700   16.3090 C.3    60  THR60       0.0375
     24  N         22.0210   -1.5900   21.0880 N.3    62  HIS62      -0.1226
     25  CA        22.7460   -2.8450   20.9260 C.3    62  HIS62       0.1752
     26  C         24.2750   -2.6590   20.7050 C.2    62  HIS62       0.2596
     27  O         25.0660   -3.4140   21.2490 O.2    62  HIS62      -0.2718
     28  CB        22.2090   -3.6920   19.7910 C.3    62  HIS62       0.0759
     29  CG        20.9160   -4.3960   20.0800 C.ar   62  HIS62       0.0818
     30  ND1       19.6840   -3.7660   19.9600 N.ar   62  HIS62      -0.2268
     31  CD2       20.6490   -5.6920   20.3740 C.ar   62  HIS62       0.1154
     32  CE1       18.7250   -4.6490   20.1650 C.ar   62  HIS62       0.1986
     33  NE2       19.2820   -5.8250   20.4150 N.ar   62  HIS62      -0.2212
     34  N         24.6590   -1.7250   19.8530 N.am   63  ASN63      -0.1974
     35  CA        26.0590   -1.4570   19.5310 C.3    63  ASN63       0.1688
     36  C         26.8750   -1.0560   20.7590 C.2    63  ASN63       0.2292
     37  O         28.0790   -1.4030   20.8820 O.2    63  ASN63      -0.2864
     38  CB        26.2030   -0.3530   18.4710 C.3    63  ASN63       0.1181
     39  CG        25.6220   -0.6810   17.0900 C.2    63  ASN63       0.2629
     40  OD1       25.3320    0.2660   16.3090 O.2    63  ASN63      -0.2716
     41  ND2       25.4630   -1.9810   16.7450 N.am   63  ASN63      -0.0877
     42  N         27.7350   -4.3740   22.0510 N.3    66  ASP66      -0.1239
     43  CA        28.6160   -5.0240   21.0740 C.3    66  ASP66       0.1674
     44  C         30.0680   -4.5370   21.2860 C.2    66  ASP66       0.2266
     45  O         31.0270   -5.3160   21.2050 O.2    66  ASP66      -0.2867
     46  CB        28.2910   -4.6490   19.6290 C.3    66  ASP66       0.1410
     47  CG        26.9080   -5.0960   19.1350 C.2    66  ASP66       0.3668
     48  OD1       26.2400   -5.9620   19.7560 O.co2  66  ASP66      -0.2456
     49  OD2       26.5550   -4.5890   18.0150 O.co2  66  ASP66      -0.2456
     50  N         25.8930   -7.3480   12.1600 N.3    83  LYS83      -0.1245
     51  CA        25.4620   -5.9770   11.9020 C.3    83  LYS83       0.1561
     52  C         25.6190   -5.6600   10.4350 C.2    83  LYS83       0.2260
     53  O         24.6790   -5.2000    9.7720 O.2    83  LYS83      -0.2867
     54  CB        26.2370   -4.9890   12.7680 C.3    83  LYS83       0.0271
     55  CG        25.9200   -3.5170   12.4950 C.3    83  LYS83       0.0035
     56  CD        26.6640   -2.5820   13.4570 C.3    83  LYS83       0.0206
     57  CE        28.1640   -2.6360   13.2940 C.3    83  LYS83       0.1093
     58  NZ        28.8800   -1.7450   14.2500 N.3    83  LYS83      -0.1314
     59  N         21.9980   -5.2260    8.8110 N.3    87  TYR87      -0.1241
     60  CA        21.6710   -3.8120    8.5600 C.3    87  TYR87       0.1605
     61  C         21.4590   -3.5650    7.0840 C.2    87  TYR87       0.2264
     62  O         20.5350   -2.8630    6.6280 O.2    87  TYR87      -0.2867
     63  CB        22.7620   -2.8940    9.1330 C.3    87  TYR87       0.0534
     64  CG        22.4340   -1.4280    8.8810 C.ar   87  TYR87      -0.0201
     65  CD1       21.4360   -0.7910    9.5960 C.ar   87  TYR87      -0.0009
     66  CD2       23.1210   -0.7030    7.9190 C.ar   87  TYR87      -0.0009
     67  CE1       21.1000    0.5240    9.3520 C.ar   87  TYR87       0.0417
     68  CE2       22.8080    0.6020    7.6500 C.ar   87  TYR87       0.0417
     69  CZ        21.8140    1.2350    8.3830 C.ar   87  TYR87       0.1957
     70  OH        21.5070    2.5450    8.0880 O.3    87  TYR87      -0.2866
     71  N         17.9810   -4.6130    6.4440 N.3    90  GLU90      -0.1245
     72  CA        17.0710   -3.6250    7.0840 C.3    90  GLU90       0.1567
     73  C         16.7690   -2.3690    6.2540 C.2    90  GLU90       0.2260
     74  O         15.6170   -1.9910    6.0570 O.2    90  GLU90      -0.2867
     75  CB        17.6420   -3.2120    8.4380 C.3    90  GLU90       0.0388
     76  CG        16.7480   -2.2100    9.1850 C.3    90  GLU90       0.1160
     77  CD        17.3330   -1.7440   10.4910 C.2    90  GLU90       0.3649
     78  OE1       18.4340   -2.1650   10.9140 O.co2  90  GLU90      -0.2457
     79  OE2       16.6390   -0.9470   11.1540 O.co2  90  GLU90      -0.2457
     80  N         18.2010  -11.8540   12.8210 N.3   107  TRP107     -0.1227
     81  CA        19.2980  -11.0290   13.3720 C.3   107  TRP107      0.1737
     82  C         19.1880  -10.9530   14.8780 C.2   107  TRP107      0.2595
     83  O         20.1880  -11.0890   15.5870 O.2   107  TRP107     -0.2718
     84  CB        19.2130   -9.6300   12.7590 C.3   107  TRP107      0.0564
     85  CG        20.2190   -8.6810   13.1800 C.ar  107  TRP107      0.0003
     86  CD1       21.4490   -8.9400   13.7170 C.ar  107  TRP107      0.0946
     87  CD2       20.1670   -7.2740   12.9380 C.ar  107  TRP107      0.0152
     88  NE1       22.1330   -7.7670   13.8860 N.ar  107  TRP107     -0.2442
     89  CE2       21.3530   -6.7250   13.4440 C.ar  107  TRP107      0.0810
     90  CE3       19.2160   -6.4280   12.3480 C.ar  107  TRP107      0.0012
     91  CZ2       21.6400   -5.3280   13.3740 C.ar  107  TRP107      0.0191
     92  CZ3       19.4750   -5.0350   12.3080 C.ar  107  TRP107      0.0001
     93  CH2       20.7150   -4.5230   12.7750 C.ar  107  TRP107      0.0015
     94  N         17.9860  -10.6320   15.3780 N.am  108  TYR108     -0.1976
     95  CA        17.7790  -10.5250   16.8080 C.3   108  TYR108      0.1639
     96  C         18.0130  -11.8360   17.5620 C.2   108  TYR108      0.2290
     97  O         18.6190  -11.8570   18.5950 O.2   108  TYR108     -0.2864
     98  CB        16.3830  -10.0280   17.1020 C.3   108  TYR108      0.0560
     99  CG        16.2360   -8.5120   16.9940 C.ar  108  TYR108     -0.0198
    100  CD1       16.0530   -7.9090   15.7790 C.ar  108  TYR108     -0.0009
    101  CD2       16.2520   -7.7170   18.1230 C.ar  108  TYR108     -0.0009
    102  CE1       15.9310   -6.5090   15.6890 C.ar  108  TYR108      0.0417
    103  CE2       16.0790   -6.3080   18.0560 C.ar  108  TYR108      0.0417
    104  CZ        15.8990   -5.7220   16.8550 C.ar  108  TYR108      0.1957
    105  OH        15.7440   -4.3230   16.7450 O.3   108  TYR108     -0.2866
    106  N         21.9490  -12.3120   17.4520 N.3   111  SER111     -0.1217
    107  CA        22.6540  -11.4010   18.3040 C.3   111  SER111      0.1889
    108  C         22.2990  -11.5700   19.7500 C.2   111  SER111      0.2288
    109  O         23.1910  -11.4860   20.6220 O.2   111  SER111     -0.2866
    110  CB        22.4530   -9.9180   17.8600 C.3   111  SER111      0.2089
    111  OG        21.1010   -9.6110   17.8490 O.3   111  SER111     -0.2183
    112  N         10.9490    1.3710   21.4200 N.3   158  SER158     -0.1202
    113  CA        12.2150    1.0360   20.7920 C.3   158  SER158      0.2020
    114  C         12.3830   -0.4810   20.6200 C.2   158  SER158      0.2619
    115  O         12.1350   -1.2330   21.5370 O.2   158  SER158     -0.2717
    116  CB        13.3760    1.5670   21.6230 C.3   158  SER158      0.2103
    117  OG        14.6210    1.0910   21.1320 O.3   158  SER158     -0.2182
    118  N         12.8860   -0.9020   19.4590 N.am  159  ALA159     -0.1965
    119  CA        13.2530   -2.3000   19.2260 C.3   159  ALA159      0.1728
    120  C         14.7070   -2.5460   19.6250 C.2   159  ALA159      0.2616
    121  O         15.3780   -3.4340   19.0750 O.2   159  ALA159     -0.2715
    122  CB        13.0420   -2.6440   17.7780 C.3   159  ALA159      0.0334
    123  N         15.2490   -1.6990   20.4860 N.am  160  GLY160     -0.1955
    124  CA        16.6210   -1.8320   20.9670 C.3   160  GLY160      0.1869
    125  C         16.6670   -2.6430   22.2730 C.2   160  GLY160      0.2309
    126  O         16.0070   -3.7140   22.3710 O.2   160  GLY160     -0.2863
    127  N         12.2450   -4.4230   14.2980 N.3   204  VAL204     -0.1245
    128  CA        12.0100   -3.2700   13.4230 C.3   204  VAL204      0.1561
    129  C         10.6370   -3.2280   12.7720 C.2   204  VAL204      0.2260
    130  O         10.0270   -2.1590   12.6330 O.2   204  VAL204     -0.2867
    131  CB        13.0640   -3.2420   12.2880 C.3   204  VAL204      0.0252
    132  CG1       12.8090   -2.0590   11.3810 C.3   204  VAL204      0.0019
    133  CG2       14.4660   -3.1960   12.8720 C.3   204  VAL204      0.0019
    134  N          6.3770   -3.3650   15.3370 N.3   207  LYS207     -0.1245
    135  CA         5.9230   -2.4460   16.3700 C.3   207  LYS207      0.1561
    136  C          4.3870   -2.3680   16.4310 C.2   207  LYS207      0.2260
    137  O          3.8460   -2.0450   17.4640 O.2   207  LYS207     -0.2867
    138  CB         6.5780   -1.0780   16.2260 C.3   207  LYS207      0.0271
    139  CG         8.0390   -1.1480   16.6100 C.3   207  LYS207      0.0035
    140  CD         8.6880    0.2270   16.6480 C.3   207  LYS207      0.0206
    141  CE        10.1450    0.1600   17.0740 C.3   207  LYS207      0.1093
    142  NZ        10.7950    1.5000   17.0620 N.3   207  LYS207     -0.1314
    143  N         12.5790    6.8590   12.4450 N.3   232  ASP232     -0.1225
    144  CA        13.5750    6.8500   11.3580 C.3   232  ASP232      0.1805
    145  C         13.3810    5.6850   10.3530 C.2   232  ASP232      0.2598
    146  O         14.0170    5.6750    9.2940 O.2   232  ASP232     -0.2718
    147  CB        15.0140    6.8610   11.8890 C.3   232  ASP232      0.1424
    148  CG        15.4280    5.5310   12.5600 C.2   232  ASP232      0.3668
    149  OD1       14.9050    5.2720   13.6570 O.co2 232  ASP232     -0.2456
    150  OD2       16.2390    4.7530   11.9850 O.co2 232  ASP232     -0.2456
    151  N         12.4710    4.7760   10.6960 N.am  233  SER233     -0.1952
    152  CA        12.2040    3.5810    9.9110 C.3   233  SER233      0.1924
    153  C         10.7580    3.6190    9.4150 C.2   233  SER233      0.2314
    154  O          9.8840    4.2670   10.0180 O.2   233  SER233     -0.2863
    155  CB        12.4510    2.3440   10.7670 C.3   233  SER233      0.2116
    156  OG        12.0220    1.1480   10.1120 O.3   233  SER233     -0.2180
@<TRIPOS>BOND
     1    74    73    2
     2    73    72    1
     3    71    72    1
     4    62    61    2
     5    61    60    1
     6    72    75    1
     7    68    66   ar
     8    68    69   ar
     9    66    64   ar
    10    70    69    1
    11    69    67   ar
    12    75    76    1
    13    60    59    1
    14    60    63    1
    15    64    63    1
    16    64    65   ar
    17    76    77    1
    18   146   145    2
    19    67    65   ar
    20   153   152    1
    21   153   154    2
    22    53    52    2
    23   152   151    1
    24   152   155    1
    25   156   155    1
    26   145   151   am
    27   145   144    1
    28    52    51    1
    29    77    78   ar
    30    77    79   ar
    31   144   147    1
    32   144   143    1
    33   132   131    1
    34   147   148    1
    35    51    50    1
    36    51    54    1
    37   150   148   ar
    38   131   133    1
    39   131   128    1
    40    92    90   ar
    41    92    93   ar
    42    90    87   ar
    43    55    54    1
    44    55    56    1
    45   148   149   ar
    46   130   129    2
    47    84    85    1
    48    84    81    1
    49   129   128    1
    50    93    91   ar
    51    80    81    1
    52    87    85   ar
    53    87    89   ar
    54    85    86   ar
    55    57    56    1
    56    57    58    1
    57    81    82    1
    58    91    89   ar
    59   128   127    1
    60    89    88   ar
    61    86    88   ar
    62    82    94   am
    63    82    83    2
    64   134   135    1
    65    94    95    1
    66   102   100   ar
    67   102   104   ar
    68   100    99   ar
    69    12    11    2
    70     8     6   ar
    71   138   135    1
    72   138   139    1
    73    23    21    1
    74    40    39    2
    75   135   136    1
    76   136   137    2
    77   139   140    1
    78   140   141    1
    79     6     5    1
    80     6     7   ar
    81    11    10    1
    82   105   104    1
    83    41    39   am
    84    95    98    1
    85    95    96    1
    86   104   103   ar
    87     5     2    1
    88    99    98    1
    89    99   101   ar
    90   142   141    1
    91    39    38    1
    92   106   107    1
    93    96    97    2
    94   122   119    1
    95    21    22    1
    96    21    18    1
    97    13    10    1
    98    13    14    1
    99   111   110    1
   100   110   107    1
   101    49    47   ar
   102   103   101   ar
   103    10     9    1
   104    17    18    1
   105   107   108    1
   106     2     1    1
   107     2     3    1
   108    38    35    1
   109    18    19    1
   110   121   120    2
   111    14    16   am
   112    14    15    2
   113    47    46    1
   114    47    48   ar
   115     3     4    2
   116   119   118    1
   117   119   120    1
   118   118   114   am
   119    35    34    1
   120    35    36    1
   121   120   123   am
   122    46    43    1
   123   108   109    2
   124    28    29    1
   125    28    25    1
   126    34    26   am
   127    30    29   ar
   128    30    32   ar
   129    19    20    2
   130    29    31   ar
   131    32    33   ar
   132    31    33   ar
   133   123   124    1
   134   114   113    1
   135   114   115    2
   136    26    25    1
   137    26    27    2
   138    36    37    2
   139   113   112    1
   140   113   116    1
   141    25    24    1
   142   124   125    1
   143    43    44    1
   144    43    42    1
   145   117   116    1
   146    45    44    2
   147   125   126    2
