@<TRIPOS>MOLECULE
tmp/4kx7A05.pdb
 93 89 0 0 0
SMALL
GASTEIGER

@<TRIPOS>ATOM
      1  N          1.6670   50.5070   63.9690 N.3    20  ASP20      -0.1239
      2  CA         2.7730   49.6190   63.6320 C.3    20  ASP20       0.1674
      3  C          3.1460   48.6640   64.7770 C.2    20  ASP20       0.2266
      4  O          3.6430   47.5560   64.5390 O.2    20  ASP20      -0.2867
      5  CB         3.9900   50.4810   63.2750 C.3    20  ASP20       0.1410
      6  CG         4.8070   49.9090   62.1330 C.2    20  ASP20       0.3668
      7  OD1        4.2680   49.1030   61.3420 O.co2  20  ASP20      -0.2456
      8  OD2        5.9920   50.2840   62.0180 O.co2  20  ASP20      -0.2456
      9  N          0.7990   43.8160   66.6930 N.3    23  ASN23      -0.1226
     10  CA         0.8170   42.7630   65.6980 C.3    23  ASN23       0.1770
     11  C          0.1770   41.4990   66.2340 C.2    23  ASN23       0.2439
     12  O          0.4640   41.0940   67.3630 O.2    23  ASN23      -0.2733
     13  CB         2.2440   42.4460   65.2820 C.3    23  ASN23       0.1168
     14  CG         2.5810   42.9910   63.9130 C.2    23  ASN23       0.2627
     15  OD1        3.0250   44.1320   63.7750 O.2    23  ASN23      -0.2716
     16  ND2        2.3630   42.1640   62.8910 N.am   23  ASN23      -0.0877
     17  N         -0.7040   40.8760   65.4160 N.am   24  PRO24      -0.2718
     18  CA        -1.2930   39.6240   65.8580 C.3    24  PRO24       0.1535
     19  C         -0.4230   38.4560   65.4260 C.2    24  PRO24       0.2598
     20  O          0.3640   38.5740   64.4860 O.2    24  PRO24      -0.2715
     21  CB        -2.6470   39.5960   65.1400 C.3    24  PRO24       0.0310
     22  CG        -2.5100   40.5380   63.9640 C.3    24  PRO24       0.0237
     23  CD        -1.1860   41.2460   64.0550 C.3    24  PRO24       0.0939
     24  N         -0.5380   37.3450   66.1390 N.am   25  VAL25      -0.1978
     25  CA         0.2390   36.1540   65.8100 C.3    25  VAL25       0.1596
     26  C         -0.7220   35.0110   65.5030 C.2    25  VAL25       0.2287
     27  O         -0.5890   34.3460   64.4720 O.2    25  VAL25      -0.2864
     28  CB         1.2380   35.7920   66.9420 C.3    25  VAL25       0.0276
     29  CG1        1.8170   34.3860   66.7660 C.3    25  VAL25       0.0022
     30  CG2        2.3540   36.8290   67.0160 C.3    25  VAL25       0.0022
     31  N         -1.3920   43.2320   55.5150 N.3   163  ASN163     -0.1225
     32  CA        -0.0690   42.9480   56.0680 C.3   163  ASN163      0.1785
     33  C         -0.0820   42.3960   57.4930 C.2   163  ASN163      0.2597
     34  O          0.9310   41.9170   57.9550 O.2   163  ASN163     -0.2718
     35  CB         0.9250   44.1220   55.8970 C.3   163  ASN163      0.1169
     36  CG         0.7790   45.2160   56.9520 C.2   163  ASN163      0.2627
     37  OD1       -0.1600   45.2440   57.7480 O.2   163  ASN163     -0.2716
     38  ND2        1.7280   46.1430   56.9450 N.am  163  ASN163     -0.0877
     39  N         -1.2300   42.4360   58.1700 N.am  164  LYS164     -0.1966
     40  CA        -1.3250   41.8960   59.5330 C.3   164  LYS164      0.1728
     41  C         -1.5640   40.3830   59.5280 C.2   164  LYS164      0.2616
     42  O         -2.4970   39.8900   60.1600 O.2   164  LYS164     -0.2715
     43  CB        -2.4110   42.6220   60.3380 C.3   164  LYS164      0.0311
     44  CG        -2.2170   44.1300   60.4480 C.3   164  LYS164      0.0038
     45  CD        -1.1060   44.5070   61.4230 C.3   164  LYS164      0.0206
     46  CE        -0.7990   45.9950   61.3390 C.3   164  LYS164      0.1093
     47  NZ        -0.0690   46.4860   62.5390 N.3   164  LYS164     -0.1314
     48  N         -0.7060   39.6550   58.8130 N.am  165  LYS165     -0.1963
     49  CA        -0.8180   38.2050   58.7000 C.3   165  LYS165      0.1728
     50  C         -0.6950   37.5300   60.0560 C.2   165  LYS165      0.2616
     51  O          0.1650   37.8750   60.8720 O.2   165  LYS165     -0.2715
     52  CB         0.2310   37.6330   57.7410 C.3   165  LYS165      0.0311
     53  CG        -0.0300   37.9260   56.2710 C.3   165  LYS165      0.0038
     54  CD         0.8070   37.0400   55.3580 C.3   165  LYS165      0.0206
     55  CE         0.7570   37.5610   53.9290 C.3   165  LYS165      0.1093
     56  NZ         1.2370   36.5860   52.9070 N.3   165  LYS165     -0.1314
     57  N         -1.5810   36.5730   60.2860 N.am  166  ALA166     -0.1977
     58  CA        -1.5840   35.7830   61.5010 C.3   166  ALA166      0.1597
     59  C         -2.0000   34.3640   61.1540 C.2   166  ALA166      0.2287
     60  O         -2.4480   34.0850   60.0420 O.2   166  ALA166     -0.2864
     61  CB        -2.5290   36.3870   62.5260 C.3   166  ALA166      0.0319
     62  N          0.4470   31.2560   58.3010 N.3   206  PRO206     -0.2116
     63  CA         0.1890   32.6960   58.3780 C.3   206  PRO206      0.1372
     64  C         -0.5360   33.2070   57.1220 C.2   206  PRO206      0.2244
     65  O         -0.1370   32.8690   56.0040 O.2   206  PRO206     -0.2868
     66  CB         1.5940   33.2900   58.4800 C.3   206  PRO206      0.0268
     67  CG         2.3910   32.2310   59.1800 C.3   206  PRO206      0.0207
     68  CD         1.8240   30.9140   58.7170 C.3   206  PRO206      0.0892
     69  N          1.6970   44.4460   50.4290 N.3   332  ASP332     -0.1239
     70  CA         1.8120   45.0450   51.7560 C.3   332  ASP332      0.1674
     71  C          0.6190   45.9490   52.0690 C.2   332  ASP332      0.2266
     72  O          0.1170   45.9630   53.1970 O.2   332  ASP332     -0.2867
     73  CB         3.1280   45.8250   51.8870 C.3   332  ASP332      0.1410
     74  CG         3.2340   46.5750   53.2050 C.2   332  ASP332      0.3668
     75  OD1        3.3880   45.9140   54.2560 O.co2 332  ASP332     -0.2456
     76  OD2        3.1530   47.8250   53.1880 O.co2 332  ASP332     -0.2456
     77  N          4.7870   36.2690   53.5950 N.3   437  LYS437     -0.1231
     78  CA         5.0200   37.6530   53.9690 C.3   437  LYS437      0.1693
     79  C          4.3860   38.5730   52.9410 C.2   437  LYS437      0.2592
     80  O          3.6490   38.1230   52.0560 O.2   437  LYS437     -0.2718
     81  CB         6.5220   37.9360   54.1070 C.3   437  LYS437      0.0285
     82  CG         7.0340   37.8740   55.5410 C.3   437  LYS437      0.0035
     83  CD         8.5000   37.4850   55.5950 C.3   437  LYS437      0.0206
     84  CE         8.6530   35.9830   55.7910 C.3   437  LYS437      0.1093
     85  NZ        10.0350   35.5180   55.5180 N.3   437  LYS437     -0.1314
     86  N          4.6740   39.8630   53.0710 N.am  438  ASN438     -0.1974
     87  CA         4.1390   40.8660   52.1720 C.3   438  ASN438      0.1688
     88  C          5.2330   41.5560   51.3720 C.2   438  ASN438      0.2292
     89  O          6.3660   41.6880   51.8330 O.2   438  ASN438     -0.2864
     90  CB         3.3070   41.8860   52.9460 C.3   438  ASN438      0.1181
     91  CG         2.1060   41.2600   53.6240 C.2   438  ASN438      0.2629
     92  OD1        2.2230   40.6490   54.6880 O.2   438  ASN438     -0.2716
     93  ND2        0.9420   41.4050   53.0060 N.am  438  ASN438     -0.0877
@<TRIPOS>BOND
     1    69    70    1
     2    88    89    2
     3    88    87    1
     4    70    73    1
     5    70    71    1
     6    73    74    1
     7    80    79    2
     8    71    72    2
     9    87    90    1
    10    87    86    1
    11    56    55    1
    12    79    86   am
    13    79    78    1
    14    90    91    1
    15    93    91   am
    16    76    74   ar
    17    74    75   ar
    18    77    78    1
    19    91    92    2
    20    55    54    1
    21    78    81    1
    22    81    82    1
    23    54    53    1
    24    31    32    1
    25    85    84    1
    26    82    83    1
    27    83    84    1
    28    35    32    1
    29    35    36    1
    30    65    64    2
    31    32    33    1
    32    53    52    1
    33    38    36   am
    34    36    37    2
    35    64    63    1
    36    33    34    2
    37    33    39   am
    38    52    49    1
    39    39    40    1
    40    62    63    1
    41    62    68    1
    42    63    66    1
    43    66    67    1
    44    49    48    1
    45    49    50    1
    46    68    67    1
    47    48    41   am
    48    41    40    1
    49    41    42    2
    50    40    43    1
    51    60    59    2
    52    50    57   am
    53    50    51    2
    54    57    58    1
    55    43    44    1
    56    44    45    1
    57    59    58    1
    58    46    45    1
    59    46    47    1
    60     7     6   ar
    61    58    61    1
    62     8     6   ar
    63     6     5    1
    64    16    14   am
    65     5     2    1
    66     2     1    1
    67     2     3    1
    68    15    14    2
    69    14    13    1
    70    22    23    1
    71    22    21    1
    72    23    17    1
    73    27    26    2
    74    20    19    2
    75     4     3    2
    76    21    18    1
    77    13    10    1
    78    17    18    1
    79    17    11   am
    80    19    18    1
    81    19    24   am
    82    26    25    1
    83    10    11    1
    84    10     9    1
    85    25    24    1
    86    25    28    1
    87    11    12    2
    88    29    28    1
    89    28    30    1
