@<TRIPOS>MOLECULE
tmp/4kx8A00.pdb
 207 195 0 0 0
SMALL
GASTEIGER

@<TRIPOS>ATOM
      1  N        -17.6040   36.2990   53.0440 N.3   146  ASP146     -0.1239
      2  CA       -16.8840   36.9770   51.9790 C.3   146  ASP146      0.1674
      3  C        -16.3290   38.2890   52.5110 C.2   146  ASP146      0.2266
      4  O        -17.0860   39.1220   53.0050 O.2   146  ASP146     -0.2867
      5  CB       -17.7930   37.2460   50.7740 C.3   146  ASP146      0.1410
      6  CG       -17.0040   37.7500   49.5780 C.2   146  ASP146      0.3668
      7  OD1      -16.1110   37.0050   49.1140 O.co2 146  ASP146     -0.2456
      8  OD2      -17.2370   38.8930   49.1230 O.co2 146  ASP146     -0.2456
      9  N        -13.0500   40.2910   51.1740 N.3   148  GLU148     -0.1245
     10  CA       -12.2230   41.2660   50.4480 C.3   148  GLU148      0.1567
     11  C        -13.0150   42.4800   49.9560 C.2   148  GLU148      0.2260
     12  O        -14.0580   42.3250   49.3280 O.2   148  GLU148     -0.2867
     13  CB       -11.4930   40.6120   49.2810 C.3   148  GLU148      0.0388
     14  CG       -10.2820   41.3870   48.8040 C.3   148  GLU148      0.1160
     15  CD        -9.4090   40.5650   47.8890 C.2   148  GLU148      0.3649
     16  OE1       -9.9310   39.6050   47.2740 O.co2 148  GLU148     -0.2457
     17  OE2       -8.2050   40.8810   47.7790 O.co2 148  GLU148     -0.2457
     18  N        -21.8950   37.8690   45.9690 N.3   280  GLY280     -0.1210
     19  CA       -21.7830   39.2800   45.5920 C.3   280  GLY280      0.1956
     20  C        -20.7500   39.6420   44.5410 C.2   280  GLY280      0.2613
     21  O        -20.9360   40.6280   43.8240 O.2   280  GLY280     -0.2717
     22  N        -19.6550   38.8790   44.4740 N.am  281  THR281     -0.1938
     23  CA       -18.6470   39.0090   43.4080 C.3   281  THR281      0.2028
     24  C        -18.6690   37.8310   42.4480 C.2   281  THR281      0.2643
     25  O        -19.5910   37.0220   42.4500 O.2   281  THR281     -0.2714
     26  CB       -17.1980   39.1940   43.9220 C.3   281  THR281      0.1808
     27  OG1      -17.0440   38.6250   45.2260 O.3   281  THR281     -0.2208
     28  CG2      -16.8600   40.6480   43.9950 C.3   281  THR281      0.0379
     29  N        -17.6550   37.7460   41.6060 N.am  282  GLY282     -0.1939
     30  CA       -17.5780   36.6480   40.6660 C.3   282  GLY282      0.2014
     31  C        -17.0310   35.4140   41.3300 C.2   282  GLY282      0.2639
     32  O        -17.5470   34.3080   41.1260 O.2   282  GLY282     -0.2714
     33  N        -15.9800   35.6230   42.1230 N.am  283  ALA283     -0.1963
     34  CA       -15.2460   34.5550   42.7940 C.3   283  ALA283      0.1728
     35  C        -14.2220   35.1500   43.7570 C.2   283  ALA283      0.2616
     36  O        -13.7730   36.2880   43.5650 O.2   283  ALA283     -0.2715
     37  CB       -14.5590   33.6560   41.7750 C.3   283  ALA283      0.0334
     38  N        -13.8510   34.3730   44.7770 N.am  284  MET284     -0.1963
     39  CA       -12.9510   34.8280   45.8390 C.3   284  MET284      0.1736
     40  C        -11.9500   33.7260   46.2190 C.2   284  MET284      0.2616
     41  O        -12.3310   32.5750   46.4340 O.2   284  MET284     -0.2715
     42  CB       -13.7770   35.2770   47.0470 C.3   284  MET284      0.0427
     43  CG       -13.0000   35.8770   48.1840 C.3   284  MET284      0.0599
     44  SD       -11.7630   37.0300   47.5920 S.3   284  MET284     -0.1393
     45  CE       -10.6860   37.0560   49.0200 C.3   284  MET284      0.0692
     46  N        -10.6760   34.0910   46.3190 N.am  285  GLU285     -0.1977
     47  CA        -9.5830   33.1150   46.3850 C.3   285  GLU285      0.1602
     48  C         -9.2620   32.5750   47.7760 C.2   285  GLU285      0.2287
     49  O         -8.1480   32.0830   48.0060 O.2   285  GLU285     -0.2864
     50  CB        -8.3030   33.7060   45.7730 C.3   285  GLU285      0.0415
     51  CG        -7.6910   34.8730   46.5460 C.3   285  GLU285      0.1163
     52  CD        -8.1770   36.2320   46.0650 C.2   285  GLU285      0.3649
     53  OE1       -9.3320   36.3250   45.6100 O.co2 285  GLU285     -0.2457
     54  OE2       -7.4020   37.2120   46.1460 O.co2 285  GLU285     -0.2457
     55  N        -19.5260   32.4770   42.1390 N.3   293  ARG293     -0.1245
     56  CA       -20.8540   32.6830   41.6340 C.3   293  ARG293      0.1563
     57  C        -21.0480   31.5500   40.6270 C.2   293  ARG293      0.2260
     58  O        -20.1100   31.1970   39.8910 O.2   293  ARG293     -0.2867
     59  CB       -20.8900   34.0470   40.9620 C.3   293  ARG293      0.0307
     60  CG       -22.1710   34.4080   40.2450 C.3   293  ARG293      0.0489
     61  CD       -22.0410   35.7750   39.5940 C.3   293  ARG293      0.2205
     62  NE       -21.8270   36.8170   40.5930 N.pl3 293  ARG293     -0.0865
     63  CZ       -22.4580   37.9860   40.5950 C.cat 293  ARG293      0.5346
     64  NH1      -22.2050   38.8910   41.5320 N.pl3 293  ARG293      0.1354
     65  NH2      -23.3560   38.2430   39.6580 N.pl3 293  ARG293      0.1354
     66  N        -22.3180   31.1040   37.7370 N.3   295  THR295     -0.1203
     67  CA       -22.0020   31.3240   36.3180 C.3   295  THR295      0.1994
     68  C        -20.5150   31.1650   36.0130 C.2   295  THR295      0.2617
     69  O        -20.1450   30.8890   34.8760 O.2   295  THR295     -0.2717
     70  CB       -22.5150   32.6750   35.7660 C.3   295  THR295      0.1784
     71  OG1      -22.0220   33.7550   36.5680 O.3   295  THR295     -0.2211
     72  CG2      -24.0210   32.7120   35.7510 C.3   295  THR295      0.0376
     73  N        -19.6770   31.3240   37.0300 N.am  296  ASN296     -0.1974
     74  CA       -18.2210   31.2420   36.8840 C.3   296  ASN296      0.1688
     75  C        -17.6090   29.8770   37.2010 C.2   296  ASN296      0.2292
     76  O        -16.3940   29.7010   37.0870 O.2   296  ASN296     -0.2864
     77  CB       -17.5660   32.3040   37.7670 C.3   296  ASN296      0.1181
     78  CG       -17.7630   33.7110   37.2350 C.2   296  ASN296      0.2629
     79  OD1      -17.8430   33.9310   36.0250 O.2   296  ASN296     -0.2716
     80  ND2      -17.8270   34.6760   38.1360 N.am  296  ASN296     -0.0877
     81  N        -15.0920   31.1550   30.1810 N.3   311  ARG311     -0.1245
     82  CA       -15.2460   31.9350   31.3940 C.3   311  ARG311      0.1563
     83  C        -14.9690   31.0790   32.6210 C.2   311  ARG311      0.2260
     84  O        -14.2760   31.5160   33.5400 O.2   311  ARG311     -0.2867
     85  CB       -16.6570   32.5170   31.4520 C.3   311  ARG311      0.0307
     86  CG       -16.9840   33.3310   32.6900 C.3   311  ARG311      0.0489
     87  CD       -16.0320   34.4940   32.8750 C.3   311  ARG311      0.2205
     88  NE       -16.4760   35.3660   33.9510 N.pl3 311  ARG311     -0.0865
     89  CZ       -16.0060   36.5920   34.1670 C.cat 311  ARG311      0.5346
     90  NH1      -15.0590   37.1080   33.3890 N.pl3 311  ARG311      0.1354
     91  NH2      -16.4830   37.3050   35.1680 N.pl3 311  ARG311      0.1354
     92  N        -11.7030   31.8270   35.1160 N.3   315  VAL315     -0.1245
     93  CA       -11.9160   32.2710   36.4950 C.3   315  VAL315      0.1561
     94  C        -11.3030   31.2690   37.4630 C.2   315  VAL315      0.2260
     95  O        -10.6680   31.6580   38.4420 O.2   315  VAL315     -0.2867
     96  CB       -13.4030   32.5170   36.8060 C.3   315  VAL315      0.0252
     97  CG1      -13.5820   32.9100   38.2580 C.3   315  VAL315      0.0019
     98  CG2      -13.9600   33.6060   35.9010 C.3   315  VAL315      0.0019
     99  N         -7.6610   31.9180   37.2120 N.3   318  HIS318     -0.1226
    100  CA        -7.4300   33.1890   37.9080 C.3   318  HIS318      0.1752
    101  C         -7.3250   32.9580   39.4040 C.2   318  HIS318      0.2595
    102  O         -6.3600   33.3700   40.0470 O.2   318  HIS318     -0.2718
    103  CB        -8.5930   34.1560   37.6140 C.3   318  HIS318      0.0759
    104  CG        -8.4290   35.5170   38.2160 C.ar  318  HIS318      0.0818
    105  ND1       -8.0550   36.6150   37.4750 N.ar  318  HIS318     -0.2268
    106  CD2       -8.5980   35.9610   39.4880 C.ar  318  HIS318      0.1154
    107  CE1       -7.9940   37.6770   38.2600 C.ar  318  HIS318      0.1986
    108  NE2       -8.3170   37.3070   39.4880 N.ar  318  HIS318     -0.2212
    109  N         -8.3350   32.2900   39.9480 N.am  319  GLU319     -0.1979
    110  CA        -8.4280   32.0390   41.3750 C.3   319  GLU319      0.1602
    111  C         -7.3110   31.1240   41.8530 C.2   319  GLU319      0.2287
    112  O         -6.8780   31.2250   42.9970 O.2   319  GLU319     -0.2864
    113  CB        -9.8080   31.4680   41.7190 C.3   319  GLU319      0.0415
    114  CG       -10.8070   32.4420   42.3520 C.3   319  GLU319      0.1163
    115  CD       -10.6190   33.8970   41.9640 C.2   319  GLU319      0.3649
    116  OE1       -9.9650   34.6380   42.7250 O.co2 319  GLU319     -0.2457
    117  OE2      -11.1340   34.3160   40.9140 O.co2 319  GLU319     -0.2457
    118  N         -3.9390   33.0180   42.5040 N.3   322  HIS322     -0.1241
    119  CA        -3.9170   33.6860   43.7930 C.3   322  HIS322      0.1621
    120  C         -3.3790   32.8370   44.9380 C.2   322  HIS322      0.2264
    121  O         -2.9110   33.3790   45.9480 O.2   322  HIS322     -0.2867
    122  CB        -5.2980   34.2220   44.1410 C.3   322  HIS322      0.0745
    123  CG        -5.6290   35.5280   43.4820 C.ar  322  HIS322      0.0817
    124  ND1       -4.8300   36.6450   43.5950 N.ar  322  HIS322     -0.2268
    125  CD2       -6.6830   35.8970   42.7170 C.ar  322  HIS322      0.1154
    126  CE1       -5.3690   37.6440   42.9190 C.ar  322  HIS322      0.1986
    127  NE2       -6.5000   37.2180   42.3840 N.ar  322  HIS322     -0.2212
    128  N         -3.9440   41.1270   41.6830 N.3   341  GLU341     -0.1245
    129  CA        -4.9100   41.0160   40.5860 C.3   341  GLU341      0.1567
    130  C         -4.3140   41.0580   39.1870 C.2   341  GLU341      0.2260
    131  O         -4.7850   40.3530   38.2820 O.2   341  GLU341     -0.2867
    132  CB        -6.0050   42.0770   40.7130 C.3   341  GLU341      0.0388
    133  CG        -6.7150   42.0920   42.0550 C.3   341  GLU341      0.1160
    134  CD        -7.4020   40.7790   42.3930 C.2   341  GLU341      0.3649
    135  OE1       -7.6040   39.9320   41.5000 O.co2 341  GLU341     -0.2457
    136  OE2       -7.7680   40.5900   43.5700 O.co2 341  GLU341     -0.2457
    137  N         -3.6270   33.6720   34.4950 N.3   348  GLU348     -0.1245
    138  CA        -4.8590   32.9710   34.1380 C.3   348  GLU348      0.1567
    139  C         -4.7910   32.4800   32.6900 C.2   348  GLU348      0.2260
    140  O         -5.2190   31.3770   32.3880 O.2   348  GLU348     -0.2867
    141  CB        -6.0920   33.8440   34.3690 C.3   348  GLU348      0.0388
    142  CG        -6.1820   35.0640   33.4700 C.3   348  GLU348      0.1160
    143  CD        -7.4630   35.8560   33.6560 C.2   348  GLU348      0.3649
    144  OE1       -7.9390   36.4240   32.6540 O.co2 348  GLU348     -0.2457
    145  OE2       -8.0000   35.9260   34.7900 O.co2 348  GLU348     -0.2457
    146  N        -10.3930   47.7780   42.6540 N.3   399  PHE399     -0.1241
    147  CA       -10.5630   46.4960   41.9880 C.3   399  PHE399      0.1605
    148  C        -11.1470   46.7830   40.6050 C.2   399  PHE399      0.2264
    149  O        -12.3330   46.5920   40.3740 O.2   399  PHE399     -0.2867
    150  CB       -11.4830   45.5840   42.7980 C.3   399  PHE399      0.0534
    151  CG       -10.8550   45.0700   44.0600 C.ar  399  PHE399     -0.0203
    152  CD1      -10.9210   45.8060   45.2320 C.ar  399  PHE399     -0.0042
    153  CD2      -10.1840   43.8540   44.0670 C.ar  399  PHE399     -0.0042
    154  CE1      -10.3210   45.3390   46.3880 C.ar  399  PHE399     -0.0003
    155  CE2       -9.5820   43.3860   45.2120 C.ar  399  PHE399     -0.0003
    156  CZ        -9.6540   44.1250   46.3760 C.ar  399  PHE399     -0.0000
    157  N         -6.3320   45.1570   37.2040 N.3   404  TYR404     -0.1241
    158  CA        -6.4010   43.8900   36.4940 C.3   404  TYR404      0.1605
    159  C         -5.8090   43.9730   35.0810 C.2   404  TYR404      0.2264
    160  O         -4.7900   43.3480   34.7820 O.2   404  TYR404     -0.2867
    161  CB        -7.8600   43.4420   36.3730 C.3   404  TYR404      0.0534
    162  CG        -8.5090   42.9220   37.6250 C.ar  404  TYR404     -0.0201
    163  CD1       -8.8370   43.7760   38.6810 C.ar  404  TYR404     -0.0009
    164  CD2       -8.8450   41.5850   37.7360 C.ar  404  TYR404     -0.0009
    165  CE1       -9.4620   43.3020   39.8220 C.ar  404  TYR404      0.0417
    166  CE2       -9.4680   41.1020   38.8750 C.ar  404  TYR404      0.0417
    167  CZ        -9.7680   41.9670   39.9030 C.ar  404  TYR404      0.1957
    168  OH       -10.3800   41.4880   41.0180 O.3   404  TYR404     -0.2866
    169  N        -28.9260   33.4720   33.2060 N.3   738  GLU738     -0.1245
    170  CA       -28.3850   34.7650   32.7920 C.3   738  GLU738      0.1567
    171  C        -28.7500   35.1320   31.3390 C.2   738  GLU738      0.2260
    172  O        -29.0760   36.2810   31.0440 O.2   738  GLU738     -0.2867
    173  CB       -26.8690   34.8100   33.0130 C.3   738  GLU738      0.0388
    174  CG       -26.3350   36.2290   33.1080 C.3   738  GLU738      0.1160
    175  CD       -24.9060   36.3010   33.6070 C.2   738  GLU738      0.3649
    176  OE1      -23.9760   35.9450   32.8350 O.co2 738  GLU738     -0.2457
    177  OE2      -24.7180   36.7350   34.7710 O.co2 738  GLU738     -0.2457
    178  N        -19.2540   47.9770   45.4480 N.3   808  ARG808     -0.1231
    179  CA       -18.5580   48.2220   44.1750 C.3   808  ARG808      0.1694
    180  C        -19.5290   48.2670   43.0070 C.2   808  ARG808      0.2592
    181  O        -19.5190   49.2150   42.2100 O.2   808  ARG808     -0.2718
    182  CB       -17.5760   47.0620   43.9620 C.3   808  ARG808      0.0321
    183  CG       -16.4070   47.2820   43.0520 C.3   808  ARG808      0.0489
    184  CD       -15.5080   46.0480   43.0920 C.3   808  ARG808      0.2205
    185  NE       -14.9120   45.8140   44.4170 N.pl3 808  ARG808     -0.0865
    186  CZ       -15.1310   44.7400   45.1910 C.cat 808  ARG808      0.5346
    187  NH1      -15.9330   43.7570   44.7980 N.pl3 808  ARG808      0.1354
    188  NH2      -14.5440   44.6420   46.3820 N.pl3 808  ARG808      0.1354
    189  N        -20.3770   47.2480   42.9140 N.am  809  ASN809     -0.1974
    190  CA       -21.3210   47.1420   41.8080 C.3   809  ASN809      0.1688
    191  C        -22.3130   48.2950   41.7920 C.2   809  ASN809      0.2292
    192  O        -22.6760   48.7810   40.7140 O.2   809  ASN809     -0.2864
    193  CB       -22.0130   45.7840   41.8310 C.3   809  ASN809      0.1181
    194  CG       -21.0230   44.6480   41.9970 C.2   809  ASN809      0.2629
    195  OD1      -20.0120   44.6230   41.3200 O.2   809  ASN809     -0.2716
    196  ND2      -21.2900   43.7250   42.9190 N.am  809  ASN809     -0.0877
    197  N        -20.5860   51.4850   40.4280 N.3   812  ARG812     -0.1245
    198  CA       -20.3730   51.3680   39.0060 C.3   812  ARG812      0.1563
    199  C        -21.6510   51.4720   38.1520 C.2   812  ARG812      0.2260
    200  O        -21.5720   51.6900   36.9260 O.2   812  ARG812     -0.2867
    201  CB       -19.6100   50.0830   38.7130 C.3   812  ARG812      0.0307
    202  CG       -18.1560   50.2210   39.1150 C.3   812  ARG812      0.0489
    203  CD       -17.3840   48.9190   39.1650 C.3   812  ARG812      0.2205
    204  NE       -16.1130   49.1550   39.8550 N.pl3 812  ARG812     -0.0865
    205  CZ       -15.0710   48.3260   39.8640 C.cat 812  ARG812      0.5346
    206  NH1      -15.1180   47.1620   39.2210 N.pl3 812  ARG812      0.1354
    207  NH2      -13.9710   48.6740   40.5230 N.pl3 812  ARG812      0.1354
@<TRIPOS>BOND
     1    81    82    1
     2   172   171    2
     3   171   170    1
     4    82    85    1
     5    82    83    1
     6    85    86    1
     7   140   139    2
     8    83    84    2
     9   144   143   ar
    10   139   138    1
    11    86    87    1
    12   170   173    1
    13   170   169    1
    14   176   175   ar
    15    87    88    1
    16   173   174    1
    17   174   175    1
    18    90    89    1
    19   142   143    1
    20   142   141    1
    21   175   177   ar
    22   143   145   ar
    23    88    89    2
    24   138   141    1
    25   138   137    1
    26    89    91    1
    27   160   159    2
    28    69    68    2
    29   159   158    1
    30    92    93    1
    31    72    70    1
    32    70    67    1
    33    70    71    1
    34    98    96    1
    35    68    67    1
    36    68    73   am
    37    79    78    2
    38    67    66    1
    39   161   158    1
    40   161   162    1
    41   158   157    1
    42    93    96    1
    43    93    94    1
    44    96    97    1
    45    74    73    1
    46    74    75    1
    47    74    77    1
    48   200   199    2
    49    76    75    2
    50    99   100    1
    51    78    77    1
    52    78    80   am
    53    94    95    2
    54   105   104   ar
    55   105   107   ar
    56   103   100    1
    57   103   104    1
    58   162   164   ar
    59   162   163   ar
    60   164   166   ar
    61   100   101    1
    62   199   198    1
    63   104   106   ar
    64   107   108   ar
    65   131   130    2
    66   163   165   ar
    67   201   198    1
    68   201   202    1
    69   166   167   ar
    70   198   197    1
    71   202   203    1
    72   203   204    1
    73   130   129    1
    74   206   205    1
    75   101   109   am
    76   101   102    2
    77   106   108   ar
    78    61    60    1
    79    61    62    1
    80    65    63    1
    81   165   167   ar
    82   204   205    2
    83   205   207    1
    84    58    57    2
    85   167   168    1
    86   109   110    1
    87    60    59    1
    88   149   148    2
    89   129   132    1
    90   129   128    1
    91    62    63    2
    92    63    64    1
    93   148   147    1
    94    57    56    1
    95    30    31    1
    96    30    29    1
    97   132   133    1
    98   192   191    2
    99   117   115   ar
   100    59    56    1
   101    32    31    2
   102   195   194    2
   103    31    33   am
   104   110   113    1
   105   110   111    1
   106   135   134   ar
   107    29    24   am
   108    56    55    1
   109   113   114    1
   110    37    34    1
   111   191   190    1
   112   190   193    1
   113   190   189    1
   114   193   194    1
   115   111   112    2
   116   115   114    1
   117   115   116   ar
   118   147   146    1
   119   147   150    1
   120   194   196   am
   121   133   134    1
   122    33    34    1
   123   181   180    2
   124   127   125   ar
   125   127   126   ar
   126   134   136   ar
   127    24    25    2
   128    24    23    1
   129   118   119    1
   130   125   123   ar
   131    34    35    1
   132   150   151    1
   133   189   180   am
   134   126   124   ar
   135   180   179    1
   136   183   184    1
   137   183   182    1
   138   184   185    1
   139    23    26    1
   140    23    22    1
   141   123   124   ar
   142   123   122    1
   143    36    35    2
   144    35    38   am
   145   119   122    1
   146   119   120    1
   147    21    20    2
   148    26    28    1
   149    26    27    1
   150   182   179    1
   151   151   153   ar
   152   151   152   ar
   153   153   155   ar
   154   179   178    1
   155   185   186    2
   156    22    20   am
   157    20    19    1
   158    38    39    1
   159   187   186    1
   160   120   121    2
   161   186   188    1
   162   155   156   ar
   163   152   154   ar
   164    19    18    1
   165    53    52   ar
   166    50    47    1
   167    50    51    1
   168    39    40    1
   169    39    42    1
   170    52    54   ar
   171    52    51    1
   172    40    46   am
   173    40    41    2
   174    46    47    1
   175   156   154   ar
   176    47    48    1
   177    42    43    1
   178    16    15   ar
   179    44    43    1
   180    44    45    1
   181    48    49    2
   182    17    15   ar
   183    15    14    1
   184    14    13    1
   185     7     6   ar
   186     8     6   ar
   187    13    10    1
   188    12    11    2
   189     6     5    1
   190    11    10    1
   191    10     9    1
   192     5     2    1
   193     2     3    1
   194     2     1    1
   195     3     4    2
