@<TRIPOS>MOLECULE
tmp/4kx9A06.pdb
 163 156 0 0 0
SMALL
GASTEIGER

@<TRIPOS>ATOM
      1  N        -21.7640   40.1380   52.0900 N.3   126  VAL126     -0.1245
      2  CA       -20.4060   40.2510   52.6230 C.3   126  VAL126      0.1561
      3  C        -20.3900   39.8850   54.1010 C.2   126  VAL126      0.2260
      4  O        -21.4390   39.8380   54.7500 O.2   126  VAL126     -0.2867
      5  CB       -19.8150   41.6650   52.4310 C.3   126  VAL126      0.0252
      6  CG1      -19.6590   41.9890   50.9410 C.3   126  VAL126      0.0019
      7  CG2      -20.6790   42.7080   53.1240 C.3   126  VAL126      0.0019
      8  N        -17.5030   36.1520   52.7670 N.3   146  ASP146     -0.1239
      9  CA       -16.7910   36.8410   51.7100 C.3   146  ASP146      0.1674
     10  C        -16.2250   38.1160   52.2950 C.2   146  ASP146      0.2266
     11  O        -16.9740   38.9470   52.7950 O.2   146  ASP146     -0.2867
     12  CB       -17.7190   37.1800   50.5420 C.3   146  ASP146      0.1410
     13  CG       -16.9630   37.7430   49.3640 C.2   146  ASP146      0.3668
     14  OD1      -16.1030   37.0100   48.8430 O.co2 146  ASP146     -0.2456
     15  OD2      -17.2070   38.9080   48.9780 O.co2 146  ASP146     -0.2456
     16  N        -13.0200   40.1210   50.9710 N.3   148  GLU148     -0.1231
     17  CA       -12.1410   41.0580   50.2490 C.3   148  GLU148      0.1684
     18  C        -12.8710   42.3000   49.7280 C.2   148  GLU148      0.2434
     19  O        -13.8630   42.1800   49.0210 O.2   148  GLU148     -0.2733
     20  CB       -11.3790   40.3660   49.1110 C.3   148  GLU148      0.0402
     21  CG       -10.2430   41.2150   48.5530 C.3   148  GLU148      0.1161
     22  CD        -9.3350   40.4810   47.5790 C.2   148  GLU148      0.3649
     23  OE1       -9.7900   39.5320   46.8920 O.co2 148  GLU148     -0.2457
     24  OE2       -8.1590   40.8870   47.4830 O.co2 148  GLU148     -0.2457
     25  N        -12.3630   43.5020   50.0540 N.am  149  PRO149     -0.2729
     26  CA       -11.1520   43.7800   50.8190 C.3   149  PRO149      0.1401
     27  C        -11.3120   44.0260   52.3260 C.2   149  PRO149      0.2269
     28  O        -10.4630   43.5810   53.0980 O.2   149  PRO149     -0.2865
     29  CB       -10.6060   45.0320   50.1400 C.3   149  PRO149      0.0296
     30  CG       -11.8190   45.7460   49.6390 C.3   149  PRO149      0.0237
     31  CD       -12.8640   44.7060   49.3620 C.3   149  PRO149      0.0939
     32  N        -14.0690   43.3500   54.6320 N.3   151  ASP151     -0.1239
     33  CA       -15.2860   42.7670   55.2060 C.3   151  ASP151      0.1674
     34  C        -15.0440   41.6270   56.2250 C.2   151  ASP151      0.2266
     35  O        -15.9880   41.1520   56.8580 O.2   151  ASP151     -0.2867
     36  CB       -16.2680   42.3410   54.0970 C.3   151  ASP151      0.1410
     37  CG       -16.8210   43.5300   53.2950 C.2   151  ASP151      0.3668
     38  OD1      -17.2160   44.5500   53.8900 O.co2 151  ASP151     -0.2456
     39  OD2      -16.8860   43.4420   52.0540 O.co2 151  ASP151     -0.2456
     40  N        -21.6280   37.7400   45.8200 N.3   280  GLY280     -0.1210
     41  CA       -21.4420   39.1450   45.4400 C.3   280  GLY280      0.1956
     42  C        -20.3890   39.5290   44.4120 C.2   280  GLY280      0.2613
     43  O        -20.5020   40.5920   43.7940 O.2   280  GLY280     -0.2717
     44  N        -19.3530   38.7070   44.2400 N.am  281  THR281     -0.1938
     45  CA       -18.4110   38.8910   43.1200 C.3   281  THR281      0.2028
     46  C        -18.3280   37.7060   42.1770 C.2   281  THR281      0.2643
     47  O        -19.1940   36.8260   42.1780 O.2   281  THR281     -0.2714
     48  CB       -16.9830   39.2380   43.5610 C.3   281  THR281      0.1808
     49  OG1      -16.6910   38.6260   44.8300 O.3   281  THR281     -0.2208
     50  CG2      -16.8380   40.7200   43.6290 C.3   281  THR281      0.0379
     51  N        -17.2770   37.6900   41.3670 N.am  282  GLY282     -0.1939
     52  CA       -17.1090   36.6350   40.3920 C.3   282  GLY282      0.2014
     53  C        -16.6870   35.3670   41.0930 C.2   282  GLY282      0.2639
     54  O        -17.2860   34.3040   40.9020 O.2   282  GLY282     -0.2714
     55  N        -15.6480   35.5090   41.9090 N.am  283  ALA283     -0.1963
     56  CA       -15.0660   34.4270   42.6820 C.3   283  ALA283      0.1728
     57  C        -14.0960   35.0320   43.6860 C.2   283  ALA283      0.2616
     58  O        -13.6680   36.1760   43.5270 O.2   283  ALA283     -0.2715
     59  CB       -14.3430   33.4530   41.7680 C.3   283  ALA283      0.0334
     60  N        -13.7540   34.2640   44.7180 N.am  284  MET284     -0.1963
     61  CA       -12.8420   34.7270   45.7570 C.3   284  MET284      0.1736
     62  C        -11.8170   33.6540   46.1230 C.2   284  MET284      0.2616
     63  O        -12.1820   32.5130   46.3880 O.2   284  MET284     -0.2715
     64  CB       -13.6260   35.1760   46.9880 C.3   284  MET284      0.0427
     65  CG       -12.7520   35.7430   48.0790 C.3   284  MET284      0.0599
     66  SD       -11.6140   36.9880   47.4420 S.3   284  MET284     -0.1393
     67  CE       -10.3650   36.9020   48.7170 C.3   284  MET284      0.0692
     68  N        -10.5450   34.0400   46.1730 N.am  285  GLU285     -0.1977
     69  CA        -9.4360   33.0920   46.2170 C.3   285  GLU285      0.1602
     70  C         -9.0990   32.5450   47.6060 C.2   285  GLU285      0.2287
     71  O         -7.9590   32.1230   47.8410 O.2   285  GLU285     -0.2864
     72  CB        -8.1840   33.7310   45.6210 C.3   285  GLU285      0.0415
     73  CG        -7.6170   34.8960   46.4230 C.3   285  GLU285      0.1163
     74  CD        -8.1000   36.2630   45.9600 C.2   285  GLU285      0.3649
     75  OE1       -9.2500   36.3990   45.4820 O.co2 285  GLU285     -0.2457
     76  OE2       -7.3160   37.2200   46.0980 O.co2 285  GLU285     -0.2457
     77  N        -11.5760   31.7580   35.0080 N.3   315  VAL315     -0.1245
     78  CA       -11.7860   32.1550   36.4090 C.3   315  VAL315      0.1561
     79  C        -11.1650   31.1210   37.3570 C.2   315  VAL315      0.2260
     80  O        -10.4880   31.4820   38.3240 O.2   315  VAL315     -0.2867
     81  CB       -13.2730   32.3910   36.7450 C.3   315  VAL315      0.0252
     82  CG1      -13.4330   32.8060   38.1900 C.3   315  VAL315      0.0019
     83  CG2      -13.8610   33.4720   35.8580 C.3   315  VAL315      0.0019
     84  N         -7.5600   31.7920   37.1320 N.3   318  HIS318     -0.1226
     85  CA        -7.3350   33.0470   37.8520 C.3   318  HIS318      0.1752
     86  C         -7.2150   32.7660   39.3380 C.2   318  HIS318      0.2595
     87  O         -6.2430   33.1660   39.9800 O.2   318  HIS318     -0.2718
     88  CB        -8.4960   34.0310   37.5850 C.3   318  HIS318      0.0759
     89  CG        -8.3150   35.3860   38.1990 C.ar  318  HIS318      0.0818
     90  ND1       -7.8610   36.4720   37.4830 N.ar  318  HIS318     -0.2268
     91  CD2       -8.5460   35.8370   39.4540 C.ar  318  HIS318      0.1154
     92  CE1       -7.8130   37.5320   38.2700 C.ar  318  HIS318      0.1986
     93  NE2       -8.2210   37.1730   39.4740 N.ar  318  HIS318     -0.2212
     94  N         -8.2130   32.0620   39.8680 N.am  319  GLU319     -0.1979
     95  CA        -8.2990   31.7610   41.2850 C.3   319  GLU319      0.1602
     96  C         -7.1160   30.9210   41.7370 C.2   319  GLU319      0.2287
     97  O         -6.6050   31.1000   42.8350 O.2   319  GLU319     -0.2864
     98  CB        -9.6210   31.0540   41.6140 C.3   319  GLU319      0.0415
     99  CG       -10.8670   31.8970   41.3980 C.3   319  GLU319      0.1163
    100  CD       -10.7240   33.3250   41.8840 C.2   319  GLU319      0.3649
    101  OE1      -10.2960   33.5290   43.0290 O.co2 319  GLU319     -0.2457
    102  OE2      -11.0450   34.2540   41.1220 O.co2 319  GLU319     -0.2457
    103  N         -3.8440   32.8500   42.3530 N.3   322  HIS322     -0.1241
    104  CA        -3.8330   33.5300   43.6390 C.3   322  HIS322      0.1621
    105  C         -3.2680   32.6860   44.7770 C.2   322  HIS322      0.2264
    106  O         -2.7570   33.2290   45.7590 O.2   322  HIS322     -0.2867
    107  CB        -5.2240   34.0250   44.0030 C.3   322  HIS322      0.0745
    108  CG        -5.5990   35.3370   43.3700 C.ar  322  HIS322      0.0817
    109  ND1       -4.8670   36.4920   43.5500 N.ar  322  HIS322     -0.2268
    110  CD2       -6.6530   35.6800   42.5920 C.ar  322  HIS322      0.1154
    111  CE1       -5.4470   37.4850   42.9010 C.ar  322  HIS322      0.1986
    112  NE2       -6.5380   37.0210   42.3190 N.ar  322  HIS322     -0.2212
    113  N         -3.8230   41.1080   41.6010 N.3   341  GLU341     -0.1245
    114  CA        -4.8050   41.0150   40.5310 C.3   341  GLU341      0.1567
    115  C         -4.2280   41.0030   39.1240 C.2   341  GLU341      0.2260
    116  O         -4.7160   40.2750   38.2590 O.2   341  GLU341     -0.2867
    117  CB        -5.8750   42.0960   40.6900 C.3   341  GLU341      0.0388
    118  CG        -6.5640   42.0800   42.0510 C.3   341  GLU341      0.1160
    119  CD        -7.2890   40.7780   42.3540 C.2   341  GLU341      0.3649
    120  OE1       -7.5640   39.9960   41.4330 O.co2 341  GLU341     -0.2457
    121  OE2       -7.6020   40.5300   43.5280 O.co2 341  GLU341     -0.2457
    122  N        -10.2760   47.7580   42.6100 N.3   399  PHE399     -0.1241
    123  CA       -10.4960   46.4600   41.9830 C.3   399  PHE399      0.1605
    124  C        -11.1250   46.7250   40.6130 C.2   399  PHE399      0.2264
    125  O        -12.3290   46.5650   40.4320 O.2   399  PHE399     -0.2867
    126  CB       -11.4030   45.5880   42.8560 C.3   399  PHE399      0.0534
    127  CG       -10.7220   45.0500   44.0900 C.ar  399  PHE399     -0.0203
    128  CD1      -10.6560   45.8090   45.2570 C.ar  399  PHE399     -0.0042
    129  CD2      -10.1420   43.7820   44.0850 C.ar  399  PHE399     -0.0042
    130  CE1      -10.0270   45.3130   46.3970 C.ar  399  PHE399     -0.0003
    131  CE2       -9.5160   43.2790   45.2200 C.ar  399  PHE399     -0.0003
    132  CZ        -9.4560   44.0460   46.3740 C.ar  399  PHE399     -0.0000
    133  N         -6.3940   44.9990   37.1290 N.3   404  TYR404     -0.1241
    134  CA        -6.4320   43.7220   36.4230 C.3   404  TYR404      0.1605
    135  C         -5.8400   43.7690   35.0210 C.2   404  TYR404      0.2264
    136  O         -4.8850   43.0600   34.7220 O.2   404  TYR404     -0.2867
    137  CB        -7.8710   43.2250   36.2900 C.3   404  TYR404      0.0534
    138  CG        -8.5060   42.7330   37.5680 C.ar  404  TYR404     -0.0201
    139  CD1       -8.8810   43.6240   38.5650 C.ar  404  TYR404     -0.0009
    140  CD2       -8.7580   41.3790   37.7630 C.ar  404  TYR404     -0.0009
    141  CE1       -9.4690   43.1810   39.7340 C.ar  404  TYR404      0.0417
    142  CE2       -9.3440   40.9180   38.9290 C.ar  404  TYR404      0.0417
    143  CZ        -9.6960   41.8300   39.9040 C.ar  404  TYR404      0.1957
    144  OH       -10.2790   41.4130   41.0530 O.3   404  TYR404     -0.2866
    145  N        -19.0770   47.9580   45.3740 N.3   808  ARG808     -0.1231
    146  CA       -18.3790   48.2950   44.1280 C.3   808  ARG808      0.1694
    147  C        -19.3380   48.2770   42.9360 C.2   808  ARG808      0.2592
    148  O        -19.3740   49.2260   42.1660 O.2   808  ARG808     -0.2718
    149  CB       -17.2380   47.2890   43.9280 C.3   808  ARG808      0.0321
    150  CG       -16.2810   47.5130   42.7730 C.3   808  ARG808      0.0489
    151  CD       -15.2900   46.3580   42.7240 C.3   808  ARG808      0.2205
    152  NE       -14.7680   46.0870   44.0660 N.pl3 808  ARG808     -0.0865
    153  CZ       -14.5530   44.8770   44.5850 C.cat 808  ARG808      0.5346
    154  NH1      -14.8050   43.7770   43.8900 N.pl3 808  ARG808      0.1354
    155  NH2      -14.0850   44.7690   45.8200 N.pl3 808  ARG808      0.1354
    156  N        -20.1290   47.2150   42.8110 N.am  809  ASN809     -0.1974
    157  CA       -21.0750   47.0780   41.7040 C.3   809  ASN809      0.1688
    158  C        -22.1170   48.1880   41.6920 C.2   809  ASN809      0.2292
    159  O        -22.5050   48.6640   40.6090 O.2   809  ASN809     -0.2864
    160  CB       -21.7270   45.6920   41.6970 C.3   809  ASN809      0.1181
    161  CG       -20.7030   44.5820   41.5930 C.2   809  ASN809      0.2629
    162  OD1      -19.8490   44.6110   40.7190 O.2   809  ASN809     -0.2716
    163  ND2      -20.7610   43.6170   42.5010 N.am  809  ASN809     -0.0877
@<TRIPOS>BOND
     1   136   135    2
     2    77    78    1
     3   135   134    1
     4    83    81    1
     5   137   134    1
     6   137   138    1
     7    78    81    1
     8    78    79    1
     9   134   133    1
    10    81    82    1
    11    84    85    1
    12    79    80    2
    13    90    89   ar
    14    90    92   ar
    15   138   140   ar
    16   138   139   ar
    17    88    85    1
    18    88    89    1
    19   140   142   ar
    20    85    86    1
    21    89    91   ar
    22   116   115    2
    23    92    93   ar
    24   139   141   ar
    25   142   143   ar
    26   115   114    1
    27    86    94   am
    28    86    87    2
    29    91    93   ar
    30   141   143   ar
    31    94    95    1
    32   143   144    1
    33    52    53    1
    34    52    51    1
    35   125   124    2
    36   114   117    1
    37   114   113    1
    38   159   158    2
    39   124   123    1
    40   117   118    1
    41   162   161    2
    42    54    53    2
    43    53    55   am
    44   102   100   ar
    45    95    98    1
    46    95    96    1
    47    51    46   am
    48    99    98    1
    49    99   100    1
    50   120   119   ar
    51   161   160    1
    52   161   163   am
    53   158   157    1
    54   160   157    1
    55   157   156    1
    56    96    97    2
    57    59    56    1
    58   100   101   ar
    59    55    56    1
    60   123   122    1
    61   123   126    1
    62   118   119    1
    63   148   147    2
    64    46    47    2
    65    46    45    1
    66   112   110   ar
    67   112   111   ar
    68   103   104    1
    69   119   121   ar
    70   110   108   ar
    71    56    57    1
    72   151   150    1
    73   151   152    1
    74   150   149    1
    75   156   147   am
    76   126   127    1
    77   111   109   ar
    78   147   146    1
    79    45    48    1
    80    45    44    1
    81   108   109   ar
    82   108   107    1
    83    58    57    2
    84    48    50    1
    85    48    49    1
    86   104   107    1
    87   104   105    1
    88    57    60   am
    89    43    42    2
    90   154   153    1
    91   149   146    1
    92   152   153    2
    93   129   127   ar
    94   129   131   ar
    95   127   128   ar
    96   146   145    1
    97    44    42   am
    98    42    41    1
    99   153   155    1
   100    60    61    1
   101   105   106    2
   102   131   132   ar
   103   128   130   ar
   104    41    40    1
   105    75    74   ar
   106    72    69    1
   107    72    73    1
   108    61    62    1
   109    61    64    1
   110    74    76   ar
   111    74    73    1
   112    62    68   am
   113    62    63    2
   114    68    69    1
   115    69    70    1
   116   132   130   ar
   117    23    22   ar
   118    64    65    1
   119    66    65    1
   120    66    67    1
   121    24    22   ar
   122    22    21    1
   123    70    71    2
   124    21    20    1
   125    14    13   ar
   126    15    13   ar
   127    19    18    2
   128    20    17    1
   129    31    30    1
   130    31    25    1
   131    13    12    1
   132    30    29    1
   133    18    25   am
   134    18    17    1
   135    25    26    1
   136    29    26    1
   137    17    16    1
   138    12     9    1
   139    26    27    1
   140     6     5    1
   141     9    10    1
   142     9     8    1
   143    39    37   ar
   144     1     2    1
   145    10    11    2
   146    27    28    2
   147     5     2    1
   148     5     7    1
   149     2     3    1
   150    37    38   ar
   151    37    36    1
   152    36    33    1
   153     3     4    2
   154    32    33    1
   155    33    34    1
   156    34    35    2
