@<TRIPOS>MOLECULE
tmp/4kxaA06.pdb
 112 107 0 0 0
SMALL
GASTEIGER

@<TRIPOS>ATOM
      1  N        -17.3350   36.1020   52.8800 N.3   146  ASP146     -0.1239
      2  CA       -16.6460   36.7870   51.8070 C.3   146  ASP146      0.1674
      3  C        -16.1140   38.0790   52.3850 C.2   146  ASP146      0.2266
      4  O        -16.8920   38.8910   52.8870 O.2   146  ASP146     -0.2867
      5  CB       -17.6090   37.0860   50.6610 C.3   146  ASP146      0.1410
      6  CG       -16.8920   37.5230   49.4060 C.2   146  ASP146      0.3668
      7  OD1      -15.9930   36.7950   48.9420 O.co2 146  ASP146     -0.2456
      8  OD2      -17.2200   38.5990   48.8810 O.co2 146  ASP146     -0.2456
      9  N        -12.9040   40.0700   51.0530 N.3   148  GLU148     -0.1245
     10  CA       -12.0510   41.0100   50.3150 C.3   148  GLU148      0.1567
     11  C        -12.8310   42.2460   49.8730 C.2   148  GLU148      0.2260
     12  O        -13.8690   42.1110   49.2390 O.2   148  GLU148     -0.2867
     13  CB       -11.3820   40.3400   49.1140 C.3   148  GLU148      0.0388
     14  CG       -10.2060   41.1360   48.5620 C.3   148  GLU148      0.1160
     15  CD        -9.3140   40.3440   47.6200 C.2   148  GLU148      0.3649
     16  OE1       -9.8270   39.4890   46.8630 O.co2 148  GLU148     -0.2457
     17  OE2       -8.0890   40.5950   47.6280 O.co2 148  GLU148     -0.2457
     18  N        -19.1840   38.6790   44.3030 N.3   281  THR281     -0.1203
     19  CA       -18.2030   38.8710   43.2240 C.3   281  THR281      0.1994
     20  C        -18.1440   37.6740   42.3060 C.2   281  THR281      0.2618
     21  O        -18.9500   36.7590   42.4180 O.2   281  THR281     -0.2717
     22  CB       -16.7860   39.1680   43.7260 C.3   281  THR281      0.1784
     23  OG1      -16.5790   38.5730   45.0180 O.3   281  THR281     -0.2211
     24  CG2      -16.5860   40.6520   43.7940 C.3   281  THR281      0.0376
     25  N        -17.1910   37.6900   41.3870 N.am  282  GLY282     -0.1942
     26  CA       -17.0270   36.5960   40.4490 C.3   282  GLY282      0.2014
     27  C        -16.5640   35.3310   41.1300 C.2   282  GLY282      0.2639
     28  O        -17.0740   34.2450   40.8630 O.2   282  GLY282     -0.2714
     29  N        -15.5880   35.4920   42.0170 N.am  283  ALA283     -0.1963
     30  CA       -14.9480   34.3840   42.7100 C.3   283  ALA283      0.1728
     31  C        -13.9710   34.9460   43.7230 C.2   283  ALA283      0.2616
     32  O        -13.5180   36.0730   43.5830 O.2   283  ALA283     -0.2715
     33  CB       -14.2250   33.4870   41.7210 C.3   283  ALA283      0.0334
     34  N        -13.6330   34.1500   44.7280 N.am  284  MET284     -0.1963
     35  CA       -12.7420   34.6040   45.7820 C.3   284  MET284      0.1736
     36  C        -11.6940   33.5440   46.1200 C.2   284  MET284      0.2616
     37  O        -12.0200   32.3730   46.3160 O.2   284  MET284     -0.2715
     38  CB       -13.5490   35.0010   47.0190 C.3   284  MET284      0.0427
     39  CG       -12.7130   35.5830   48.1320 C.3   284  MET284      0.0599
     40  SD       -11.6540   36.8860   47.4930 S.3   284  MET284     -0.1393
     41  CE       -10.3230   36.7950   48.6780 C.3   284  MET284      0.0692
     42  N        -10.4370   33.9720   46.1980 N.am  285  GLU285     -0.1977
     43  CA        -9.3030   33.0580   46.3010 C.3   285  GLU285      0.1602
     44  C         -8.9370   32.6330   47.7310 C.2   285  GLU285      0.2287
     45  O         -7.7620   32.3630   48.0290 O.2   285  GLU285     -0.2864
     46  CB        -8.0850   33.6760   45.6210 C.3   285  GLU285      0.0415
     47  CG        -7.5150   34.8880   46.3440 C.3   285  GLU285      0.1163
     48  CD        -8.0570   36.2120   45.8450 C.2   285  GLU285      0.3649
     49  OE1       -9.0960   36.2410   45.1340 O.co2 285  GLU285     -0.2457
     50  OE2       -7.4250   37.2370   46.1790 O.co2 285  GLU285     -0.2457
     51  N         -7.4070   31.7290   37.1570 N.3   318  HIS318     -0.1226
     52  CA        -7.1850   32.9840   37.8880 C.3   318  HIS318      0.1752
     53  C         -7.1100   32.7140   39.3870 C.2   318  HIS318      0.2595
     54  O         -6.1970   33.1730   40.0710 O.2   318  HIS318     -0.2718
     55  CB        -8.3220   33.9850   37.5760 C.3   318  HIS318      0.0759
     56  CG        -8.1520   35.3430   38.1940 C.ar  318  HIS318      0.0818
     57  ND1       -7.6700   36.4260   37.4910 N.ar  318  HIS318     -0.2268
     58  CD2       -8.4330   35.8020   39.4370 C.ar  318  HIS318      0.1154
     59  CE1       -7.6420   37.4870   38.2760 C.ar  318  HIS318      0.1986
     60  NE2       -8.1000   37.1360   39.4640 N.ar  318  HIS318     -0.2212
     61  N         -8.0770   31.9560   39.8870 N.am  319  GLU319     -0.1979
     62  CA        -8.1700   31.6700   41.3100 C.3   319  GLU319      0.1602
     63  C         -7.0020   30.8280   41.7930 C.2   319  GLU319      0.2287
     64  O         -6.5590   30.9670   42.9290 O.2   319  GLU319     -0.2864
     65  CB        -9.5090   31.0120   41.6450 C.3   319  GLU319      0.0415
     66  CG       -10.7130   31.8900   41.3320 C.3   319  GLU319      0.1163
     67  CD       -10.5640   33.3190   41.8320 C.2   319  GLU319      0.3649
     68  OE1      -10.1760   33.5100   42.9950 O.co2 319  GLU319     -0.2457
     69  OE2      -10.8410   34.2620   41.0650 O.co2 319  GLU319     -0.2457
     70  N         -3.6680   40.9850   41.5980 N.3   341  GLU341     -0.1245
     71  CA        -4.6430   40.9030   40.5120 C.3   341  GLU341      0.1567
     72  C         -4.0510   40.8990   39.1120 C.2   341  GLU341      0.2260
     73  O         -4.5230   40.1690   38.2410 O.2   341  GLU341     -0.2867
     74  CB        -5.7080   41.9890   40.6520 C.3   341  GLU341      0.0388
     75  CG        -6.4090   42.0110   42.0090 C.3   341  GLU341      0.1160
     76  CD        -7.1440   40.7240   42.3570 C.2   341  GLU341      0.3649
     77  OE1       -7.3810   39.8850   41.4720 O.co2 341  GLU341     -0.2457
     78  OE2       -7.5010   40.5480   43.5340 O.co2 341  GLU341     -0.2457
     79  N        -10.1890   47.6830   42.7170 N.3   399  PHE399     -0.1241
     80  CA       -10.4020   46.3910   42.0580 C.3   399  PHE399      0.1605
     81  C        -11.0240   46.6630   40.6880 C.2   399  PHE399      0.2264
     82  O        -12.2240   46.4740   40.4900 O.2   399  PHE399     -0.2867
     83  CB       -11.2930   45.4750   42.9120 C.3   399  PHE399      0.0534
     84  CG       -10.6080   44.9550   44.1440 C.ar  399  PHE399     -0.0203
     85  CD1      -10.5860   45.7100   45.3120 C.ar  399  PHE399     -0.0042
     86  CD2       -9.9680   43.7150   44.1310 C.ar  399  PHE399     -0.0042
     87  CE1       -9.9400   45.2400   46.4480 C.ar  399  PHE399     -0.0003
     88  CE2       -9.3250   43.2390   45.2630 C.ar  399  PHE399     -0.0003
     89  CZ        -9.3070   44.0040   46.4220 C.ar  399  PHE399     -0.0000
     90  N         -6.3610   44.9040   37.2370 N.3   404  TYR404     -0.1241
     91  CA        -6.4450   43.6320   36.5310 C.3   404  TYR404      0.1605
     92  C         -5.8150   43.7130   35.1420 C.2   404  TYR404      0.2264
     93  O         -4.7960   43.0730   34.8840 O.2   404  TYR404     -0.2867
     94  CB        -7.9050   43.1700   36.4110 C.3   404  TYR404      0.0534
     95  CG        -8.5180   42.6440   37.6900 C.ar  404  TYR404     -0.0201
     96  CD1       -8.9150   43.5110   38.7130 C.ar  404  TYR404     -0.0009
     97  CD2       -8.7280   41.2800   37.8660 C.ar  404  TYR404     -0.0009
     98  CE1       -9.4930   43.0280   39.8810 C.ar  404  TYR404      0.0417
     99  CE2       -9.3040   40.7850   39.0250 C.ar  404  TYR404      0.0417
    100  CZ        -9.6830   41.6600   40.0300 C.ar  404  TYR404      0.1957
    101  OH       -10.2530   41.1610   41.1830 O.3   404  TYR404     -0.2866
    102  N        -19.0370   47.8680   45.4240 N.3   808  ARG808     -0.1245
    103  CA       -18.3510   48.1530   44.1710 C.3   808  ARG808      0.1563
    104  C        -19.3250   48.1670   42.9890 C.2   808  ARG808      0.2260
    105  O        -19.3040   49.0920   42.1660 O.2   808  ARG808     -0.2867
    106  CB       -17.2710   47.0870   43.9660 C.3   808  ARG808      0.0307
    107  CG       -16.1210   47.4330   43.0420 C.3   808  ARG808      0.0489
    108  CD       -15.1720   46.2410   42.9440 C.3   808  ARG808      0.2205
    109  NE       -14.5990   45.8950   44.2490 N.pl3 808  ARG808     -0.0865
    110  CZ       -14.3430   44.6560   44.6750 C.cat 808  ARG808      0.5346
    111  NH1      -14.6090   43.6000   43.9150 N.pl3 808  ARG808      0.1354
    112  NH2      -13.8270   44.4710   45.8820 N.pl3 808  ARG808      0.1354
@<TRIPOS>BOND
     1    93    92    2
     2    92    91    1
     3    94    91    1
     4    94    95    1
     5    91    90    1
     6    51    52    1
     7    57    56   ar
     8    57    59   ar
     9    55    52    1
    10    55    56    1
    11    95    97   ar
    12    95    96   ar
    13    97    99   ar
    14    52    53    1
    15    56    58   ar
    16    73    72    2
    17    59    60   ar
    18    96    98   ar
    19    99   100   ar
    20    72    71    1
    21    53    61   am
    22    53    54    2
    23    58    60   ar
    24    98   100   ar
    25    61    62    1
    26   100   101    1
    27    26    27    1
    28    26    25    1
    29    82    81    2
    30    71    74    1
    31    71    70    1
    32    74    75    1
    33    81    80    1
    34    28    27    2
    35    69    67   ar
    36    27    29   am
    37    62    65    1
    38    62    63    1
    39    66    65    1
    40    66    67    1
    41    25    20   am
    42    77    76   ar
    43    33    30    1
    44    63    64    2
    45    67    68   ar
    46    75    76    1
    47    29    30    1
    48    80    79    1
    49    80    83    1
    50   105   104    2
    51    20    21    2
    52    20    19    1
    53    76    78   ar
    54    30    31    1
    55    83    84    1
    56   108   107    1
    57   108   109    1
    58   104   103    1
    59   107   106    1
    60    19    22    1
    61    19    18    1
    62    32    31    2
    63    31    34   am
    64    22    24    1
    65    22    23    1
    66   111   110    1
    67   106   103    1
    68    86    84   ar
    69    86    88   ar
    70    84    85   ar
    71   103   102    1
    72   109   110    2
    73   110   112    1
    74    34    35    1
    75    49    48   ar
    76    88    89   ar
    77    85    87   ar
    78    46    43    1
    79    46    47    1
    80    35    36    1
    81    35    38    1
    82    48    50   ar
    83    48    47    1
    84    36    42   am
    85    36    37    2
    86    42    43    1
    87    43    44    1
    88    89    87   ar
    89    16    15   ar
    90    38    39    1
    91    40    39    1
    92    40    41    1
    93    15    17   ar
    94    15    14    1
    95    44    45    2
    96    14    13    1
    97     8     6   ar
    98     7     6   ar
    99    13    10    1
   100    12    11    2
   101     6     5    1
   102    11    10    1
   103    10     9    1
   104     5     2    1
   105     2     3    1
   106     2     1    1
   107     3     4    2
