@<TRIPOS>MOLECULE
tmp/4kxbA03.pdb
 76 72 0 0 0
SMALL
GASTEIGER

@<TRIPOS>ATOM
      1  N        -21.5520   40.1350    6.1220 N.3   646  LYS646     -0.1245
      2  CA       -22.4580   39.1510    5.5240 C.3   646  LYS646      0.1561
      3  C        -21.7310   37.8770    5.0680 C.2   646  LYS646      0.2260
      4  O        -22.1440   36.7840    5.4530 O.2   646  LYS646     -0.2867
      5  CB       -23.3100   39.7470    4.3950 C.3   646  LYS646      0.0271
      6  CG       -24.4040   38.8200    3.8680 C.3   646  LYS646      0.0035
      7  CD       -25.7980   39.3770    4.1100 C.3   646  LYS646      0.0206
      8  CE       -26.8840   38.3700    3.7540 C.3   646  LYS646      0.1093
      9  NZ       -27.1590   37.4270    4.8740 N.3   646  LYS646     -0.1314
     10  N        -20.5430   35.7750    8.0730 N.3   649  ALA649     -0.1231
     11  CA       -21.7450   35.3190    8.7680 C.3   649  ALA649      0.1694
     12  C        -22.4390   34.2020    8.0050 C.2   649  ALA649      0.2592
     13  O        -22.8790   33.2180    8.6050 O.2   649  ALA649     -0.2718
     14  CB       -22.7020   36.4750    9.0120 C.3   649  ALA649      0.0304
     15  N        -22.5290   34.3460    6.6860 N.am  650  ASP650     -0.1974
     16  CA       -23.1280   33.3090    5.8540 C.3   650  ASP650      0.1709
     17  C        -22.2480   32.0670    5.8080 C.2   650  ASP650      0.2293
     18  O        -22.7450   30.9520    5.9290 O.2   650  ASP650     -0.2864
     19  CB       -23.4100   33.8330    4.4440 C.3   650  ASP650      0.1436
     20  CG       -24.5640   34.8300    4.4060 C.2   650  ASP650      0.3671
     21  OD1      -25.1810   35.0790    5.4660 O.co2 650  ASP650     -0.2456
     22  OD2      -24.8540   35.3680    3.3090 O.co2 650  ASP650     -0.2456
     23  N        -22.5090   30.1640    9.2380 N.3   653  GLY653     -0.1210
     24  CA       -23.8550   29.5900    9.3590 C.3   653  GLY653      0.1956
     25  C        -24.4030   29.4550   10.7720 C.2   653  GLY653      0.2611
     26  O        -23.6830   29.6280   11.7510 O.2   653  GLY653     -0.2717
     27  N        -25.6870   29.1330   10.8750 N.am  654  TRP654     -0.1976
     28  CA       -26.3300   28.9980   12.1700 C.3   654  TRP654      0.1640
     29  C        -26.2650   27.5620   12.6830 C.2   654  TRP654      0.2290
     30  O        -27.2970   26.8930   12.8060 O.2   654  TRP654     -0.2864
     31  CB       -27.7750   29.5000   12.0960 C.3   654  TRP654      0.0576
     32  CG       -27.8550   30.9830   12.0090 C.ar  654  TRP654      0.0006
     33  CD1      -27.6730   31.7520   10.8960 C.ar  654  TRP654      0.0946
     34  CD2      -28.1170   31.8880   13.0840 C.ar  654  TRP654      0.0152
     35  NE1      -27.8090   33.0850   11.2110 N.ar  654  TRP654     -0.2442
     36  CE2      -28.0800   33.1950   12.5490 C.ar  654  TRP654      0.0810
     37  CE3      -28.3700   31.7220   14.4510 C.ar  654  TRP654      0.0012
     38  CZ2      -28.2970   34.3330   13.3320 C.ar  654  TRP654      0.0191
     39  CZ3      -28.5850   32.8490   15.2300 C.ar  654  TRP654      0.0001
     40  CH2      -28.5480   34.1420   14.6670 C.ar  654  TRP654      0.0015
     41  N        -31.9250   38.3500    7.0900 N.3   680  GLU680     -0.1231
     42  CA       -31.7840   36.8930    7.0790 C.3   680  GLU680      0.1699
     43  C        -31.1820   36.3260    8.3630 C.2   680  GLU680      0.2592
     44  O        -31.5200   35.2150    8.7730 O.2   680  GLU680     -0.2718
     45  CB       -30.9750   36.4610    5.8620 C.3   680  GLU680      0.0402
     46  CG       -31.5480   37.0210    4.5650 C.3   680  GLU680      0.1161
     47  CD       -30.7630   36.6230    3.3400 C.2   680  GLU680      0.3649
     48  OE1      -29.5250   36.4700    3.4350 O.co2 680  GLU680     -0.2457
     49  OE2      -31.3950   36.4780    2.2740 O.co2 680  GLU680     -0.2457
     50  N        -30.2850   37.0840    8.9880 N.am  681  ALA681     -0.1980
     51  CA       -29.7480   36.7110   10.2850 C.3   681  ALA681      0.1597
     52  C        -30.8310   36.8450   11.3580 C.2   681  ALA681      0.2287
     53  O        -30.9980   35.9410   12.1820 O.2   681  ALA681     -0.2864
     54  CB       -28.5330   37.5580   10.6210 C.3   681  ALA681      0.0319
     55  N        -34.0310   36.6580   10.9060 N.3   683  ASN683     -0.1225
     56  CA       -35.0010   35.6050   10.6580 C.3   683  ASN683      0.1785
     57  C        -34.5770   34.2490   11.1890 C.2   683  ASN683      0.2597
     58  O        -35.4220   33.4780   11.6480 O.2   683  ASN683     -0.2718
     59  CB       -35.3360   35.5080    9.1760 C.3   683  ASN683      0.1169
     60  CG       -36.5130   36.3780    8.7950 C.2   683  ASN683      0.2627
     61  OD1      -37.5710   36.3230    9.4320 O.2   683  ASN683     -0.2716
     62  ND2      -36.3450   37.1830    7.7490 N.am  683  ASN683     -0.0877
     63  N        -33.2790   33.9600   11.1110 N.am  684  ASN684     -0.1974
     64  CA       -32.7220   32.7500   11.7050 C.3   684  ASN684      0.1688
     65  C        -32.9510   32.7700   13.2210 C.2   684  ASN684      0.2292
     66  O        -33.3560   31.7670   13.8100 O.2   684  ASN684     -0.2864
     67  CB       -31.2290   32.6250   11.3880 C.3   684  ASN684      0.1181
     68  CG       -30.9600   31.8840   10.0920 C.2   684  ASN684      0.2629
     69  OD1      -30.7990   30.6590   10.0900 O.2   684  ASN684     -0.2716
     70  ND2      -30.9030   32.6260    8.9790 N.am  684  ASN684     -0.0877
     71  N        -36.8050   32.3680   13.8960 N.3   687  SER687     -0.1217
     72  CA       -37.1760   30.9850   13.6020 C.3   687  SER687      0.1889
     73  C        -36.7580   30.0540   14.7410 C.2   687  SER687      0.2288
     74  O        -37.5900   29.3030   15.2510 O.2   687  SER687     -0.2866
     75  CB       -36.5680   30.5320   12.2640 C.3   687  SER687      0.2089
     76  OG       -36.7070   29.1330   12.0730 O.3   687  SER687     -0.2183
@<TRIPOS>BOND
     1    49    47   ar
     2    22    20   ar
     3    47    48   ar
     4    47    46    1
     5     8     7    1
     6     8     9    1
     7     6     7    1
     8     6     5    1
     9     5     2    1
    10    20    19    1
    11    20    21   ar
    12    19    16    1
    13    46    45    1
    14     3     4    2
    15     3     2    1
    16     2     1    1
    17    17    16    1
    18    17    18    2
    19    16    15    1
    20    45    42    1
    21    15    12   am
    22    42    41    1
    23    42    43    1
    24    62    60   am
    25    12    13    2
    26    12    11    1
    27    10    11    1
    28    43    44    2
    29    43    50   am
    30    11    14    1
    31    60    59    1
    32    60    61    2
    33    70    68   am
    34    50    51    1
    35    59    56    1
    36    23    24    1
    37    24    25    1
    38    69    68    2
    39    68    67    1
    40    51    54    1
    41    51    52    1
    42    56    55    1
    43    56    57    1
    44    25    27   am
    45    25    26    2
    46    27    28    1
    47    33    35   ar
    48    33    32   ar
    49    63    57   am
    50    63    64    1
    51    57    58    2
    52    35    36   ar
    53    52    53    2
    54    67    64    1
    55    64    65    1
    56    32    31    1
    57    32    34   ar
    58    76    75    1
    59    31    28    1
    60    28    29    1
    61    75    72    1
    62    36    34   ar
    63    36    38   ar
    64    29    30    2
    65    34    37   ar
    66    65    66    2
    67    38    40   ar
    68    72    71    1
    69    72    73    1
    70    37    39   ar
    71    40    39   ar
    72    73    74    2
