@<TRIPOS>MOLECULE
tmp/4kxbA02.pdb
 117 112 0 0 0
SMALL
GASTEIGER

@<TRIPOS>ATOM
      1  N         -2.5940   54.6860    4.5410 N.3   558  ASP558     -0.1239
      2  CA        -3.2140   54.5240    3.2300 C.3   558  ASP558      0.1674
      3  C         -2.7010   53.2530    2.5490 C.2   558  ASP558      0.2266
      4  O         -3.4830   52.4720    1.9950 O.2   558  ASP558     -0.2867
      5  CB        -2.8990   55.7570    2.3660 C.3   558  ASP558      0.1410
      6  CG        -3.5660   55.7080    0.9920 C.2   558  ASP558      0.3668
      7  OD1       -4.7660   56.0530    0.8980 O.co2 558  ASP558     -0.2456
      8  OD2       -2.8810   55.3450    0.0030 O.co2 558  ASP558     -0.2456
      9  N         -4.1450   50.1130    4.1770 N.3   561  ALA561     -0.1231
     10  CA        -5.5080   49.8630    3.6800 C.3   561  ALA561      0.1694
     11  C         -5.5000   49.0940    2.3540 C.2   561  ALA561      0.2592
     12  O         -6.1560   48.0640    2.2170 O.2   561  ALA561     -0.2718
     13  CB        -6.2540   51.1760    3.5230 C.3   561  ALA561      0.0304
     14  N         -4.7370   49.6060    1.3910 N.am  562  THR562     -0.1953
     15  CA        -4.5570   48.9640    0.1010 C.3   562  THR562      0.1897
     16  C         -4.0010   47.5390    0.2370 C.2   562  THR562      0.2313
     17  O         -4.5110   46.6090   -0.4040 O.2   562  THR562     -0.2863
     18  CB        -3.6470   49.8220   -0.8060 C.3   562  THR562      0.1794
     19  OG1       -4.3540   51.0030   -1.2250 O.3   562  THR562     -0.2208
     20  CG2       -3.2090   49.0420   -2.0310 C.3   562  THR562      0.0378
     21  N         -6.6870   45.2430    1.3310 N.3   565  SER565     -0.1217
     22  CA        -7.6260   44.9670    0.2440 C.3   565  SER565      0.1889
     23  C         -7.0900   43.9090   -0.7040 C.2   565  SER565      0.2288
     24  O         -7.8480   43.0730   -1.1990 O.2   565  SER565     -0.2866
     25  CB        -7.9550   46.2420   -0.5230 C.3   565  SER565      0.2089
     26  OG        -8.8410   47.0430    0.2360 O.3   565  SER565     -0.2183
     27  N        -11.4360   59.1540    7.7910 N.3   595  LYS595     -0.1231
     28  CA       -11.4160   58.5730    6.4380 C.3   595  LYS595      0.1693
     29  C        -10.3110   57.5170    6.3380 C.2   595  LYS595      0.2591
     30  O        -10.5100   56.4400    5.7650 O.2   595  LYS595     -0.2718
     31  CB       -11.1920   59.6560    5.3700 C.3   595  LYS595      0.0285
     32  CG       -12.2080   60.8010    5.3500 C.3   595  LYS595      0.0035
     33  CD       -11.7740   61.8890    4.3670 C.3   595  LYS595      0.0206
     34  CE       -12.8270   62.9690    4.1720 C.3   595  LYS595      0.1093
     35  NZ       -12.7020   64.0890    5.1520 N.3   595  LYS595     -0.1314
     36  N         -9.1540   57.8350    6.9150 N.am  596  VAL596     -0.1980
     37  CA        -8.0250   56.9210    6.9590 C.3   596  VAL596      0.1595
     38  C         -8.3750   55.6420    7.7270 C.2   596  VAL596      0.2287
     39  O         -8.1770   54.5320    7.2150 O.2   596  VAL596     -0.2864
     40  CB        -6.7920   57.6110    7.5710 C.3   596  VAL596      0.0276
     41  CG1       -5.6300   56.6370    7.6950 C.3   596  VAL596      0.0022
     42  CG2       -6.4000   58.8210    6.7340 C.3   596  VAL596      0.0022
     43  N        -11.1600   53.5710    5.9530 N.3   599  ASN599     -0.1240
     44  CA       -10.5500   52.9190    4.7920 C.3   599  ASN599      0.1653
     45  C         -9.9700   51.5400    5.1260 C.2   599  ASN599      0.2266
     46  O         -9.9820   50.6410    4.2860 O.2   599  ASN599     -0.2867
     47  CB        -9.4760   53.8240    4.1450 C.3   599  ASN599      0.1155
     48  CG       -10.0510   54.8070    3.1170 C.2   599  ASN599      0.2627
     49  OD1      -11.2130   54.6920    2.6950 O.2   599  ASN599     -0.2716
     50  ND2       -9.2210   55.7850    2.7050 N.am  599  ASN599     -0.0877
     51  N        -12.3650   48.3810    4.6500 N.3   602  LYS602     -0.1245
     52  CA       -12.8190   48.0530    3.2940 C.3   602  LYS602      0.1561
     53  C        -12.5600   46.6080    2.8720 C.2   602  LYS602      0.2260
     54  O        -13.3120   46.0400    2.0820 O.2   602  LYS602     -0.2867
     55  CB       -12.1800   49.0150    2.2900 C.3   602  LYS602      0.0271
     56  CG       -12.7490   50.4320    2.3140 C.3   602  LYS602      0.0035
     57  CD       -12.0490   51.2760    1.2600 C.3   602  LYS602      0.0206
     58  CE       -12.8870   52.4510    0.7930 C.3   602  LYS602      0.1093
     59  NZ       -12.4640   52.8850   -0.5750 N.3   602  LYS602     -0.1314
     60  N        -19.5950   62.1870    5.1910 N.3   869  GLU869     -0.1231
     61  CA       -18.9380   62.2570    3.8900 C.3   869  GLU869      0.1699
     62  C        -18.4130   60.9030    3.4590 C.2   869  GLU869      0.2592
     63  O        -18.6910   60.4510    2.3440 O.2   869  GLU869     -0.2718
     64  CB       -17.7630   63.2150    3.9410 C.3   869  GLU869      0.0402
     65  CG       -18.0630   64.6220    3.4710 C.3   869  GLU869      0.1161
     66  CD       -16.7880   65.3950    3.2080 C.2   869  GLU869      0.3649
     67  OE1      -15.8940   64.8440    2.5250 O.co2 869  GLU869     -0.2457
     68  OE2      -16.6770   66.5460    3.6850 O.co2 869  GLU869     -0.2457
     69  N        -17.6500   60.2610    4.3420 N.am  870  TRP870     -0.1976
     70  CA       -17.0420   58.9920    4.0030 C.3   870  TRP870      0.1640
     71  C        -18.0990   57.9590    3.6090 C.2   870  TRP870      0.2290
     72  O        -17.9210   57.2460    2.6330 O.2   870  TRP870     -0.2864
     73  CB       -16.1530   58.4770    5.1300 C.3   870  TRP870      0.0576
     74  CG       -15.2800   57.3130    4.7030 C.ar  870  TRP870      0.0006
     75  CD1      -14.0080   57.3810    4.2110 C.ar  870  TRP870      0.0946
     76  CD2      -15.6210   55.9180    4.7330 C.ar  870  TRP870      0.0152
     77  NE1      -13.5340   56.1210    3.9350 N.ar  870  TRP870     -0.2442
     78  CE2      -14.5020   55.2040    4.2440 C.ar  870  TRP870      0.0810
     79  CE3      -16.7640   55.2030    5.1220 C.ar  870  TRP870      0.0012
     80  CZ2      -14.4890   53.8070    4.1350 C.ar  870  TRP870      0.0191
     81  CZ3      -16.7530   53.8170    5.0160 C.ar  870  TRP870      0.0001
     82  CH2      -15.6200   53.1330    4.5250 C.ar  870  TRP870      0.0015
     83  N        -21.4880   58.5610    2.7130 N.3   872  PHE872     -0.1227
     84  CA       -22.2430   59.0460    1.5620 C.3   872  PHE872      0.1736
     85  C        -21.4980   58.7740    0.2550 C.2   872  PHE872      0.2595
     86  O        -22.0660   58.1830   -0.6660 O.2   872  PHE872     -0.2718
     87  CB       -22.5750   60.5360    1.6880 C.3   872  PHE872      0.0547
     88  CG       -23.5960   61.0060    0.6940 C.ar  872  PHE872     -0.0202
     89  CD1      -24.9530   60.9930    1.0100 C.ar  872  PHE872     -0.0042
     90  CD2      -23.2080   61.4500   -0.5730 C.ar  872  PHE872     -0.0042
     91  CE1      -25.9020   61.4200    0.0850 C.ar  872  PHE872     -0.0003
     92  CE2      -24.1520   61.8770   -1.5020 C.ar  872  PHE872     -0.0003
     93  CZ       -25.5010   61.8640   -1.1710 C.ar  872  PHE872     -0.0000
     94  N        -20.2320   59.1960    0.1970 N.am  873  ASN873     -0.1960
     95  CA       -19.3840   59.0510   -0.9960 C.3   873  ASN873      0.1819
     96  C        -19.1730   57.6100   -1.4100 C.2   873  ASN873      0.2621
     97  O        -19.0020   57.3160   -2.5830 O.2   873  ASN873     -0.2715
     98  CB       -18.0110   59.6910   -0.7790 C.3   873  ASN873      0.1195
     99  CG       -18.0770   61.2010   -0.6290 C.2   873  ASN873      0.2630
    100  OD1      -18.8220   61.8850   -1.3360 O.2   873  ASN873     -0.2716
    101  ND2      -17.2810   61.7320    0.2950 N.am  873  ASN873     -0.0877
    102  N        -19.1740   56.7100   -0.4400 N.am  874  LEU874     -0.1963
    103  CA       -18.9270   55.3130   -0.7220 C.3   874  LEU874      0.1728
    104  C        -20.1510   54.6010   -1.3020 C.2   874  LEU874      0.2616
    105  O        -20.0030   53.7220   -2.1430 O.2   874  LEU874     -0.2715
    106  CB       -18.4220   54.6120    0.5360 C.3   874  LEU874      0.0311
    107  CG       -17.9600   53.1740    0.3550 C.3   874  LEU874      0.0022
    108  CD1      -16.6700   52.9370    1.1180 C.3   874  LEU874      0.0001
    109  CD2      -19.0490   52.2070    0.7950 C.3   874  LEU874      0.0001
    110  N        -21.3490   54.9850   -0.8660 N.am  875  LEU875     -0.1977
    111  CA       -22.5650   54.2110   -1.1680 C.3   875  LEU875      0.1596
    112  C        -23.3450   54.6820   -2.3980 C.2   875  LEU875      0.2287
    113  O        -23.1600   55.8020   -2.8810 O.2   875  LEU875     -0.2864
    114  CB       -23.4830   54.1470    0.0640 C.3   875  LEU875      0.0297
    115  CG       -22.9260   53.4130    1.2970 C.3   875  LEU875      0.0022
    116  CD1      -23.7080   53.7410    2.5650 C.3   875  LEU875      0.0001
    117  CD2      -22.8710   51.9040    1.0770 C.3   875  LEU875      0.0001
@<TRIPOS>BOND
     1   113   112    2
     2    97    96    2
     3   112   111    1
     4   105   104    2
     5    20    18    1
     6    92    93   ar
     7    92    90   ar
     8    96    95    1
     9    96   102   am
    10   100    99    2
    11   104   110   am
    12   104   103    1
    13    19    18    1
    14    24    23    2
    15    93    91   ar
    16   111   110    1
    17   111   114    1
    18    95    98    1
    19    95    94    1
    20    18    15    1
    21    98    99    1
    22   103   102    1
    23   103   106    1
    24    23    22    1
    25    86    85    2
    26    99   101   am
    27    59    58    1
    28    90    88   ar
    29    25    26    1
    30    25    22    1
    31    17    16    2
    32     8     6   ar
    33   114   115    1
    34    91    89   ar
    35    15    16    1
    36    15    14    1
    37    94    85   am
    38    22    21    1
    39    85    84    1
    40   107   106    1
    41   107   109    1
    42   107   108    1
    43    88    89   ar
    44    88    87    1
    45    58    57    1
    46     7     6   ar
    47     6     5    1
    48   117   115    1
    49    57    56    1
    50   115   116    1
    51    14    11   am
    52    84    87    1
    53    84    83    1
    54     4     3    2
    55    54    53    2
    56    12    11    2
    57    55    56    1
    58    55    52    1
    59    63    62    2
    60    11    10    1
    61     5     2    1
    62    67    66   ar
    63     3     2    1
    64    72    71    2
    65    49    48    2
    66    50    48   am
    67    53    52    1
    68    48    47    1
    69    66    65    1
    70    66    68   ar
    71     2     1    1
    72    52    51    1
    73    62    61    1
    74    62    69   am
    75    65    64    1
    76    13    10    1
    77    71    70    1
    78    10     9    1
    79    61    64    1
    80    61    60    1
    81    77    75   ar
    82    77    78   ar
    83    70    69    1
    84    70    73    1
    85    80    78   ar
    86    80    82   ar
    87    47    44    1
    88    34    33    1
    89    34    35    1
    90    75    74   ar
    91    78    76   ar
    92    46    45    2
    93    33    32    1
    94    82    81   ar
    95    74    76   ar
    96    74    73    1
    97    76    79   ar
    98    44    45    1
    99    44    43    1
   100    81    79   ar
   101    32    31    1
   102    31    28    1
   103    30    29    2
   104    29    28    1
   105    29    36   am
   106    28    27    1
   107    42    40    1
   108    36    37    1
   109    37    40    1
   110    37    38    1
   111    39    38    2
   112    40    41    1
