@<TRIPOS>MOLECULE
tmp/4kxbA05.pdb
 176 167 0 0 0
SMALL
GASTEIGER

@<TRIPOS>ATOM
      1  N        -17.2560   36.0580   52.8530 N.3   146  ASP146     -0.1239
      2  CA       -16.5550   36.7790   51.8010 C.3   146  ASP146      0.1674
      3  C        -16.0330   38.0830   52.3870 C.2   146  ASP146      0.2266
      4  O        -16.8130   38.8850   52.9070 O.2   146  ASP146     -0.2867
      5  CB       -17.4800   37.0790   50.6230 C.3   146  ASP146      0.1410
      6  CG       -16.7210   37.6140   49.4290 C.2   146  ASP146      0.3668
      7  OD1      -15.8580   36.8870   48.8850 O.co2 146  ASP146     -0.2456
      8  OD2      -16.9670   38.7680   49.0390 O.co2 146  ASP146     -0.2456
      9  N        -12.8550   40.1430   51.0890 N.3   148  GLU148     -0.1231
     10  CA       -12.0050   41.1000   50.3880 C.3   148  GLU148      0.1684
     11  C        -12.7720   42.3150   49.8970 C.2   148  GLU148      0.2434
     12  O        -13.7560   42.1640   49.1980 O.2   148  GLU148     -0.2733
     13  CB       -11.2730   40.4560   49.2190 C.3   148  GLU148      0.0402
     14  CG       -10.1000   41.2910   48.7430 C.3   148  GLU148      0.1161
     15  CD        -9.1830   40.5440   47.8120 C.2   148  GLU148      0.3649
     16  OE1       -9.6400   39.5760   47.1750 O.co2 148  GLU148     -0.2457
     17  OE2       -8.0020   40.9310   47.7140 O.co2 148  GLU148     -0.2457
     18  N        -12.2920   43.5210   50.2320 N.am  149  PRO149     -0.2729
     19  CA       -11.0490   43.7410   50.9810 C.3   149  PRO149      0.1401
     20  C        -11.1750   44.0680   52.4730 C.2   149  PRO149      0.2269
     21  O        -10.2550   43.7700   53.2310 O.2   149  PRO149     -0.2865
     22  CB       -10.4230   44.9200   50.2570 C.3   149  PRO149      0.0296
     23  CG       -11.5820   45.6820   49.7050 C.3   149  PRO149      0.0237
     24  CD       -12.7220   44.7280   49.5040 C.3   149  PRO149      0.0939
     25  N        -19.1640   38.6240   44.2980 N.3   281  THR281     -0.1203
     26  CA       -18.1790   38.8230   43.2270 C.3   281  THR281      0.1994
     27  C        -18.1770   37.6200   42.2910 C.2   281  THR281      0.2618
     28  O        -19.0470   36.7450   42.3850 O.2   281  THR281     -0.2717
     29  CB       -16.7520   39.0910   43.7530 C.3   281  THR281      0.1784
     30  OG1      -16.3500   38.0420   44.6420 O.3   281  THR281     -0.2211
     31  CG2      -16.6890   40.4140   44.4820 C.3   281  THR281      0.0376
     32  N        -17.2160   37.5840   41.3750 N.am  282  GLY282     -0.1942
     33  CA       -17.1250   36.4850   40.4230 C.3   282  GLY282      0.2014
     34  C        -16.5930   35.2310   41.0740 C.2   282  GLY282      0.2639
     35  O        -17.0980   34.1330   40.8300 O.2   282  GLY282     -0.2714
     36  N        -15.5770   35.4190   41.9130 N.am  283  ALA283     -0.1963
     37  CA       -14.8930   34.3470   42.6160 C.3   283  ALA283      0.1728
     38  C        -13.9060   34.9700   43.5900 C.2   283  ALA283      0.2616
     39  O        -13.5160   36.1340   43.4210 O.2   283  ALA283     -0.2715
     40  CB       -14.1630   33.4460   41.6380 C.3   283  ALA283      0.0334
     41  N        -13.5030   34.1870   44.5940 N.am  284  MET284     -0.1963
     42  CA       -12.6290   34.6510   45.6760 C.3   284  MET284      0.1736
     43  C        -11.6050   33.5880   46.0830 C.2   284  MET284      0.2616
     44  O        -11.9670   32.4680   46.4510 O.2   284  MET284     -0.2715
     45  CB       -13.4590   35.0690   46.8930 C.3   284  MET284      0.0427
     46  CG       -12.6260   35.6340   48.0230 C.3   284  MET284      0.0599
     47  SD       -11.5190   36.9250   47.4180 S.3   284  MET284     -0.1393
     48  CE       -10.2900   36.8780   48.7120 C.3   284  MET284      0.0692
     49  N        -10.3330   33.9700   46.0550 N.am  285  GLU285     -0.1977
     50  CA        -9.2130   33.0330   46.1770 C.3   285  GLU285      0.1602
     51  C         -8.8690   32.5860   47.6060 C.2   285  GLU285      0.2287
     52  O         -7.7090   32.2500   47.8920 O.2   285  GLU285     -0.2864
     53  CB        -7.9660   33.6440   45.5370 C.3   285  GLU285      0.0415
     54  CG        -7.3580   34.7930   46.3280 C.3   285  GLU285      0.1163
     55  CD        -7.9020   36.1480   45.9310 C.2   285  GLU285      0.3649
     56  OE1       -9.0830   36.2420   45.5190 O.co2 285  GLU285     -0.2457
     57  OE2       -7.1370   37.1300   46.0400 O.co2 285  GLU285     -0.2457
     58  N        -14.7120   30.9190   30.1180 N.3   311  ARG311     -0.1245
     59  CA       -14.8750   31.6990   31.3320 C.3   311  ARG311      0.1563
     60  C        -14.5600   30.8580   32.5630 C.2   311  ARG311      0.2260
     61  O        -13.7730   31.2750   33.4140 O.2   311  ARG311     -0.2867
     62  CB       -16.2950   32.2560   31.4130 C.3   311  ARG311      0.0307
     63  CG       -16.5760   33.0970   32.6390 C.3   311  ARG311      0.0489
     64  CD       -15.6760   34.3140   32.7680 C.3   311  ARG311      0.2205
     65  NE       -16.0330   35.0690   33.9680 N.pl3 311  ARG311     -0.0865
     66  CZ       -15.5070   36.2400   34.3220 C.cat 311  ARG311      0.5346
     67  NH1      -14.5760   36.8210   33.5710 N.pl3 311  ARG311      0.1354
     68  NH2      -15.9190   36.8330   35.4380 N.pl3 311  ARG311      0.1354
     69  N        -10.8860   30.1150   32.7160 N.3   314  THR314     -0.1203
     70  CA       -10.0830   31.2970   33.0250 C.3   314  THR314      0.1994
     71  C        -10.1870   31.6950   34.4960 C.2   314  THR314      0.2617
     72  O         -9.1760   31.9870   35.1290 O.2   314  THR314     -0.2717
     73  CB       -10.4680   32.5070   32.1480 C.3   314  THR314      0.1784
     74  OG1      -10.4670   32.1310   30.7670 O.3   314  THR314     -0.2211
     75  CG2       -9.4950   33.6380   32.3540 C.3   314  THR314      0.0376
     76  N        -11.4040   31.7050   35.0370 N.am  315  VAL315     -0.1979
     77  CA       -11.6080   32.0950   36.4350 C.3   315  VAL315      0.1595
     78  C        -10.9410   31.0680   37.3450 C.2   315  VAL315      0.2287
     79  O        -10.2110   31.4360   38.2650 O.2   315  VAL315     -0.2864
     80  CB       -13.0910   32.2870   36.7970 C.3   315  VAL315      0.0276
     81  CG1      -13.2160   32.7400   38.2340 C.3   315  VAL315      0.0022
     82  CG2      -13.7410   33.3200   35.8790 C.3   315  VAL315      0.0022
     83  N         -7.3250   31.7520   37.0130 N.3   318  HIS318     -0.1226
     84  CA        -7.1080   32.9910   37.7530 C.3   318  HIS318      0.1752
     85  C         -6.9730   32.7270   39.2440 C.2   318  HIS318      0.2595
     86  O         -5.9330   33.0070   39.8370 O.2   318  HIS318     -0.2718
     87  CB        -8.2520   33.9710   37.4870 C.3   318  HIS318      0.0759
     88  CG        -8.0400   35.3330   38.0690 C.ar  318  HIS318      0.0818
     89  ND1       -7.5880   36.3980   37.3220 N.ar  318  HIS318     -0.2268
     90  CD2       -8.2290   35.8080   39.3220 C.ar  318  HIS318      0.1154
     91  CE1       -7.5000   37.4700   38.0900 C.ar  318  HIS318      0.1986
     92  NE2       -7.8820   37.1390   39.3100 N.ar  318  HIS318     -0.2212
     93  N         -8.0180   32.1630   39.8410 N.am  319  GLU319     -0.1979
     94  CA        -8.0510   31.9440   41.2860 C.3   319  GLU319      0.1602
     95  C         -6.9220   31.0310   41.7450 C.2   319  GLU319      0.2287
     96  O         -6.3900   31.1960   42.8440 O.2   319  GLU319     -0.2864
     97  CB        -9.4180   31.4040   41.7310 C.3   319  GLU319      0.0415
     98  CG       -10.6200   32.2790   41.3520 C.3   319  GLU319      0.1163
     99  CD       -10.4600   33.7490   41.7250 C.2   319  GLU319      0.3649
    100  OE1       -9.8350   34.0710   42.7610 O.co2 319  GLU319     -0.2457
    101  OE2      -10.9730   34.5990   40.9790 O.co2 319  GLU319     -0.2457
    102  N         -3.6260   32.8760   42.3120 N.3   322  HIS322     -0.1241
    103  CA        -3.5660   33.6080   43.5660 C.3   322  HIS322      0.1621
    104  C         -2.9830   32.7960   44.7130 C.2   322  HIS322      0.2264
    105  O         -2.4530   33.3680   45.6680 O.2   322  HIS322     -0.2867
    106  CB        -4.9440   34.1210   43.9570 C.3   322  HIS322      0.0745
    107  CG        -5.3460   35.3910   43.2700 C.ar  322  HIS322      0.0817
    108  ND1       -4.6560   36.5740   43.4220 N.ar  322  HIS322     -0.2268
    109  CD2       -6.3950   35.6690   42.4600 C.ar  322  HIS322      0.1154
    110  CE1       -5.2540   37.5230   42.7230 C.ar  322  HIS322      0.1986
    111  NE2       -6.3150   37.0010   42.1360 N.ar  322  HIS322     -0.2212
    112  N         -3.5990   41.0970   41.5090 N.3   341  GLU341     -0.1245
    113  CA        -4.6000   40.9610   40.4450 C.3   341  GLU341      0.1567
    114  C         -4.0440   40.9350   39.0270 C.2   341  GLU341      0.2260
    115  O         -4.5670   40.2160   38.1620 O.2   341  GLU341     -0.2867
    116  CB        -5.6910   42.0250   40.5800 C.3   341  GLU341      0.0388
    117  CG        -6.4570   41.9880   41.9000 C.3   341  GLU341      0.1160
    118  CD        -7.1570   40.6650   42.1800 C.2   341  GLU341      0.3649
    119  OE1       -7.3070   39.8290   41.2640 O.co2 341  GLU341     -0.2457
    120  OE2       -7.5710   40.4600   43.3390 O.co2 341  GLU341     -0.2457
    121  N         -4.3410   37.9460   36.5630 N.3   345  SER345     -0.1217
    122  CA        -4.8260   38.2570   35.2110 C.3   345  SER345      0.1889
    123  C         -3.8330   37.8490   34.1080 C.2   345  SER345      0.2288
    124  O         -4.2500   37.4450   33.0240 O.2   345  SER345     -0.2866
    125  CB        -5.2120   39.7360   35.0710 C.3   345  SER345      0.2089
    126  OG        -6.3840   40.0320   35.8100 O.3   345  SER345     -0.2183
    127  N         -3.2640   33.6390   34.2840 N.3   348  GLU348     -0.1245
    128  CA        -4.4890   32.8950   33.9750 C.3   348  GLU348      0.1567
    129  C         -4.4390   32.3470   32.5490 C.2   348  GLU348      0.2260
    130  O         -4.7860   31.1870   32.3130 O.2   348  GLU348     -0.2867
    131  CB        -5.7460   33.7470   34.2010 C.3   348  GLU348      0.0388
    132  CG        -5.9730   34.8510   33.1830 C.3   348  GLU348      0.1160
    133  CD        -7.1680   35.7300   33.4990 C.2   348  GLU348      0.3649
    134  OE1       -7.6950   36.3730   32.5740 O.co2 348  GLU348     -0.2457
    135  OE2       -7.5930   35.7960   34.6640 O.co2 348  GLU348     -0.2457
    136  N        -11.7730   49.5760   47.7810 N.3   396  THR396     -0.1218
    137  CA       -12.5860   48.6380   47.0240 C.3   396  THR396      0.1862
    138  C        -12.7090   49.0750   45.5660 C.2   396  THR396      0.2287
    139  O        -12.8430   48.2340   44.6740 O.2   396  THR396     -0.2866
    140  CB       -13.9490   48.3470   47.6790 C.3   396  THR396      0.1770
    141  OG1      -14.5550   47.2340   47.0170 O.3   396  THR396     -0.2211
    142  CG2      -14.8750   49.5400   47.6010 C.3   396  THR396      0.0375
    143  N        -10.1930   47.6810   42.6000 N.3   399  PHE399     -0.1241
    144  CA       -10.3760   46.3930   41.9400 C.3   399  PHE399      0.1605
    145  C        -10.9950   46.6890   40.5790 C.2   399  PHE399      0.2264
    146  O        -12.2070   46.5620   40.3960 O.2   399  PHE399     -0.2867
    147  CB       -11.2750   45.4780   42.7790 C.3   399  PHE399      0.0534
    148  CG       -10.6130   44.9610   44.0210 C.ar  399  PHE399     -0.0203
    149  CD1      -10.6160   45.7090   45.1930 C.ar  399  PHE399     -0.0042
    150  CD2       -9.9720   43.7250   44.0150 C.ar  399  PHE399     -0.0042
    151  CE1       -9.9950   45.2310   46.3390 C.ar  399  PHE399     -0.0003
    152  CE2       -9.3490   43.2450   45.1540 C.ar  399  PHE399     -0.0003
    153  CZ        -9.3610   44.0000   46.3160 C.ar  399  PHE399     -0.0000
    154  N         -6.1680   45.0250   37.1450 N.3   404  TYR404     -0.1241
    155  CA        -6.2510   43.7540   36.4360 C.3   404  TYR404      0.1605
    156  C         -5.6160   43.8110   35.0430 C.2   404  TYR404      0.2264
    157  O         -4.6380   43.1140   34.7680 O.2   404  TYR404     -0.2867
    158  CB        -7.7090   43.2990   36.3070 C.3   404  TYR404      0.0534
    159  CG        -8.3530   42.8140   37.5800 C.ar  404  TYR404     -0.0201
    160  CD1       -8.7820   43.7110   38.5540 C.ar  404  TYR404     -0.0009
    161  CD2       -8.5620   41.4570   37.8000 C.ar  404  TYR404     -0.0009
    162  CE1       -9.3930   43.2690   39.7200 C.ar  404  TYR404      0.0417
    163  CE2       -9.1710   41.0030   38.9620 C.ar  404  TYR404      0.0417
    164  CZ        -9.5810   41.9150   39.9150 C.ar  404  TYR404      0.1957
    165  OH       -10.1810   41.4850   41.0700 O.3   404  TYR404     -0.2866
    166  N        -18.8650   47.8330   45.4820 N.3   808  ARG808     -0.1245
    167  CA       -18.2810   48.3190   44.2280 C.3   808  ARG808      0.1563
    168  C        -19.2290   48.2390   43.0440 C.2   808  ARG808      0.2260
    169  O        -19.2460   49.1480   42.2150 O.2   808  ARG808     -0.2867
    170  CB       -16.8890   47.7420   43.9050 C.3   808  ARG808      0.0307
    171  CG       -16.8230   46.2720   43.5530 C.3   808  ARG808      0.0489
    172  CD       -15.3880   45.8820   43.2250 C.3   808  ARG808      0.2205
    173  NE       -15.0720   46.1400   41.8180 N.pl3 808  ARG808     -0.0865
    174  CZ       -15.1310   45.2310   40.8420 C.cat 808  ARG808      0.5346
    175  NH1      -15.4860   43.9760   41.1060 N.pl3 808  ARG808      0.1354
    176  NH2      -14.8290   45.5770   39.5940 N.pl3 808  ARG808      0.1354
@<TRIPOS>BOND
     1    58    59    1
     2    74    73    1
     3    59    62    1
     4    59    60    1
     5    62    63    1
     6    73    75    1
     7    73    70    1
     8   130   129    2
     9   129   128    1
    10    60    61    2
    11   134   133   ar
    12    63    64    1
    13    69    70    1
    14    64    65    1
    15   124   123    2
    16    70    71    1
    17   132   133    1
    18   132   131    1
    19   133   135   ar
    20    67    66    1
    21    65    66    2
    22   128   131    1
    23   128   127    1
    24   123   122    1
    25    66    68    1
    26    71    76   am
    27    71    72    2
    28   157   156    2
    29    76    77    1
    30   156   155    1
    31   125   122    1
    32   125   126    1
    33   122   121    1
    34    82    80    1
    35   158   155    1
    36   158   159    1
    37    77    80    1
    38    77    78    1
    39   155   154    1
    40    80    81    1
    41    83    84    1
    42    89    88   ar
    43    89    91   ar
    44    78    79    2
    45    87    84    1
    46    87    88    1
    47   159   161   ar
    48   159   160   ar
    49    84    85    1
    50   161   163   ar
    51    88    90   ar
    52    91    92   ar
    53   115   114    2
    54   160   162   ar
    55   163   164   ar
    56   114   113    1
    57    85    86    2
    58    85    93   am
    59    92    90   ar
    60   176   174    1
    61   162   164   ar
    62    93    94    1
    63   164   165    1
    64   146   145    2
    65    33    34    1
    66    33    32    1
    67   113   116    1
    68   113   112    1
    69   145   144    1
    70   116   117    1
    71    35    34    2
    72   174   175    1
    73   174   173    2
    74   101    99   ar
    75    34    36   am
    76   119   118   ar
    77    94    97    1
    78    94    95    1
    79    98    99    1
    80    98    97    1
    81    32    27   am
    82    40    37    1
    83    99   100   ar
    84    95    96    2
    85   173   172    1
    86   117   118    1
    87    36    37    1
    88   144   143    1
    89   144   147    1
    90   111   109   ar
    91   111   110   ar
    92   118   120   ar
    93   169   168    2
    94    27    28    2
    95    27    26    1
    96   102   103    1
    97   109   107   ar
    98    37    38    1
    99   110   108   ar
   100   147   148    1
   101   168   167    1
   102   172   171    1
   103    26    29    1
   104    26    25    1
   105   107   108   ar
   106   107   106    1
   107    39    38    2
   108   171   170    1
   109   103   106    1
   110   103   104    1
   111    38    41   am
   112    29    31    1
   113    29    30    1
   114   170   167    1
   115   150   148   ar
   116   150   152   ar
   117   148   149   ar
   118   167   166    1
   119    41    42    1
   120   139   138    2
   121   104   105    2
   122   152   153   ar
   123   149   151   ar
   124    56    55   ar
   125    53    50    1
   126    53    54    1
   127   138   137    1
   128    42    43    1
   129    42    45    1
   130    55    57   ar
   131    55    54    1
   132    49    43   am
   133    49    50    1
   134    43    44    2
   135    50    51    1
   136   153   151   ar
   137    45    46    1
   138   141   140    1
   139   137   140    1
   140   137   136    1
   141    16    15   ar
   142    47    46    1
   143    47    48    1
   144   142   140    1
   145    51    52    2
   146    17    15   ar
   147    15    14    1
   148    14    13    1
   149     7     6   ar
   150     8     6   ar
   151    12    11    2
   152    13    10    1
   153     6     5    1
   154    24    23    1
   155    24    18    1
   156    23    22    1
   157    11    18   am
   158    11    10    1
   159    18    19    1
   160    22    19    1
   161    10     9    1
   162     5     2    1
   163    19    20    1
   164     2     3    1
   165     2     1    1
   166     3     4    2
   167    20    21    2
