@<TRIPOS>MOLECULE
tmp/4kxcA07.pdb
 129 123 0 0 0
SMALL
GASTEIGER

@<TRIPOS>ATOM
      1  N        -17.3790   36.1200   52.8400 N.3   146  ASP146     -0.1239
      2  CA       -16.6720   36.8310   51.7830 C.3   146  ASP146      0.1674
      3  C        -16.1080   38.1350   52.3310 C.2   146  ASP146      0.2266
      4  O        -16.8520   38.9450   52.8850 O.2   146  ASP146     -0.2867
      5  CB       -17.6020   37.1190   50.6060 C.3   146  ASP146      0.1410
      6  CG       -16.8570   37.6410   49.4060 C.2   146  ASP146      0.3668
      7  OD1      -16.0420   36.8920   48.8300 O.co2 146  ASP146     -0.2456
      8  OD2      -17.0750   38.8100   49.0410 O.co2 146  ASP146     -0.2456
      9  N        -12.8730   40.1120   50.9140 N.3   148  GLU148     -0.1245
     10  CA       -11.9950   41.0550   50.2150 C.3   148  GLU148      0.1567
     11  C        -12.7490   42.2970   49.7500 C.2   148  GLU148      0.2260
     12  O        -13.7400   42.1830   49.0250 O.2   148  GLU148     -0.2867
     13  CB       -11.2680   40.3990   49.0440 C.3   148  GLU148      0.0388
     14  CG       -10.0250   41.1560   48.6150 C.3   148  GLU148      0.1160
     15  CD        -9.2000   40.4150   47.5850 C.2   148  GLU148      0.3649
     16  OE1       -9.7670   39.5970   46.8180 O.co2 148  GLU148     -0.2457
     17  OE2       -7.9780   40.6660   47.5420 O.co2 148  GLU148     -0.2457
     18  N        -19.2040   38.6880   44.2680 N.3   281  THR281     -0.1203
     19  CA       -18.2540   38.8960   43.1600 C.3   281  THR281      0.1994
     20  C        -18.1700   37.6950   42.2320 C.2   281  THR281      0.2618
     21  O        -19.0340   36.8110   42.2580 O.2   281  THR281     -0.2717
     22  CB       -16.8290   39.2660   43.6160 C.3   281  THR281      0.1784
     23  OG1      -16.4780   38.5360   44.8040 O.3   281  THR281     -0.2211
     24  CG2      -16.7410   40.7340   43.8730 C.3   281  THR281      0.0376
     25  N        -17.1240   37.6680   41.4130 N.am  282  GLY282     -0.1942
     26  CA       -16.9700   36.6180   40.4160 C.3   282  GLY282      0.2014
     27  C        -16.5290   35.3280   41.0570 C.2   282  GLY282      0.2639
     28  O        -17.0280   34.2460   40.7260 O.2   282  GLY282     -0.2714
     29  N        -15.5950   35.4710   41.9900 N.am  283  ALA283     -0.1963
     30  CA       -14.9380   34.3720   42.6730 C.3   283  ALA283      0.1728
     31  C        -13.9400   34.9770   43.6520 C.2   283  ALA283      0.2616
     32  O        -13.5490   36.1390   43.5050 O.2   283  ALA283     -0.2715
     33  CB       -14.2250   33.4730   41.6790 C.3   283  ALA283      0.0334
     34  N        -13.5290   34.1870   44.6420 N.am  284  MET284     -0.1963
     35  CA       -12.6730   34.6690   45.7180 C.3   284  MET284      0.1736
     36  C        -11.6670   33.5940   46.1380 C.2   284  MET284      0.2616
     37  O        -12.0480   32.4740   46.4640 O.2   284  MET284     -0.2715
     38  CB       -13.5260   35.1250   46.9060 C.3   284  MET284      0.0427
     39  CG       -12.7330   35.7910   48.0120 C.3   284  MET284      0.0599
     40  SD       -11.4740   36.8900   47.3290 S.3   284  MET284     -0.1393
     41  CE       -10.3780   37.0050   48.7360 C.3   284  MET284      0.0692
     42  N        -10.3870   33.9610   46.1480 N.am  285  GLU285     -0.1977
     43  CA        -9.2700   33.0070   46.2660 C.3   285  GLU285      0.1602
     44  C         -8.9050   32.5490   47.6830 C.2   285  GLU285      0.2287
     45  O         -7.7330   32.2430   47.9550 O.2   285  GLU285     -0.2864
     46  CB        -8.0230   33.6100   45.6220 C.3   285  GLU285      0.0415
     47  CG        -7.4650   34.8150   46.3710 C.3   285  GLU285      0.1163
     48  CD        -7.9510   36.1470   45.8280 C.2   285  GLU285      0.3649
     49  OE1       -9.1080   36.2420   45.3570 O.co2 285  GLU285     -0.2457
     50  OE2       -7.1620   37.1130   45.8760 O.co2 285  GLU285     -0.2457
     51  N        -11.4510   31.8130   35.0240 N.3   315  VAL315     -0.1245
     52  CA       -11.6360   32.1890   36.4250 C.3   315  VAL315      0.1561
     53  C        -11.0100   31.1460   37.3500 C.2   315  VAL315      0.2260
     54  O        -10.3220   31.5040   38.3050 O.2   315  VAL315     -0.2867
     55  CB       -13.1150   32.4260   36.7840 C.3   315  VAL315      0.0252
     56  CG1      -13.2440   32.8310   38.2410 C.3   315  VAL315      0.0019
     57  CG2      -13.7160   33.5130   35.8930 C.3   315  VAL315      0.0019
     58  N         -7.3770   31.7260   37.0960 N.3   318  HIS318     -0.1226
     59  CA        -7.1650   32.9660   37.8420 C.3   318  HIS318      0.1752
     60  C         -7.0830   32.7020   39.3430 C.2   318  HIS318      0.2595
     61  O         -6.1360   33.1300   40.0050 O.2   318  HIS318     -0.2718
     62  CB        -8.3010   33.9530   37.5470 C.3   318  HIS318      0.0759
     63  CG        -8.0890   35.3250   38.1130 C.ar  318  HIS318      0.0818
     64  ND1       -7.5560   36.3610   37.3740 N.ar  318  HIS318     -0.2268
     65  CD2       -8.3440   35.8350   39.3420 C.ar  318  HIS318      0.1154
     66  CE1       -7.4890   37.4490   38.1230 C.ar  318  HIS318      0.1986
     67  NE2       -7.9560   37.1560   39.3240 N.ar  318  HIS318     -0.2212
     68  N         -8.0770   31.9850   39.8660 N.am  319  GLU319     -0.1979
     69  CA        -8.1900   31.7390   41.3010 C.3   319  GLU319      0.1602
     70  C         -7.0290   30.9010   41.8070 C.2   319  GLU319      0.2287
     71  O         -6.5850   31.0510   42.9510 O.2   319  GLU319     -0.2864
     72  CB        -9.5230   31.0580   41.6280 C.3   319  GLU319      0.0415
     73  CG       -10.7550   31.8790   41.2740 C.3   319  GLU319      0.1163
     74  CD       -10.6650   33.3220   41.7300 C.2   319  GLU319      0.3649
     75  OE1      -10.2760   33.5640   42.8940 O.co2 319  GLU319     -0.2457
     76  OE2      -10.9930   34.2190   40.9240 O.co2 319  GLU319     -0.2457
     77  N         -3.7200   32.8210   42.3540 N.3   322  HIS322     -0.1241
     78  CA        -3.7270   33.5250   43.6240 C.3   322  HIS322      0.1621
     79  C         -3.1490   32.7170   44.7740 C.2   322  HIS322      0.2264
     80  O         -2.6550   33.2940   45.7410 O.2   322  HIS322     -0.2867
     81  CB        -5.1300   33.9910   43.9730 C.3   322  HIS322      0.0745
     82  CG        -5.5040   35.3070   43.3610 C.ar  322  HIS322      0.0817
     83  ND1       -4.7600   36.4530   43.5400 N.ar  322  HIS322     -0.2268
     84  CD2       -6.5620   35.6620   42.5940 C.ar  322  HIS322      0.1154
     85  CE1       -5.3360   37.4540   42.8990 C.ar  322  HIS322      0.1986
     86  NE2       -6.4330   37.0010   42.3200 N.ar  322  HIS322     -0.2212
     87  N         -3.7100   41.0500   41.5620 N.3   341  GLU341     -0.1245
     88  CA        -4.6840   40.9530   40.4740 C.3   341  GLU341      0.1567
     89  C         -4.0890   40.9520   39.0730 C.2   341  GLU341      0.2260
     90  O         -4.5770   40.2410   38.1870 O.2   341  GLU341     -0.2867
     91  CB        -5.7500   42.0390   40.6030 C.3   341  GLU341      0.0388
     92  CG        -6.5790   41.9340   41.8750 C.3   341  GLU341      0.1160
     93  CD        -7.1670   40.5480   42.1040 C.2   341  GLU341      0.3649
     94  OE1       -7.4300   39.8140   41.1270 O.co2 341  GLU341     -0.2457
     95  OE2       -7.3710   40.1880   43.2760 O.co2 341  GLU341     -0.2457
     96  N        -10.2060   47.7120   42.6090 N.3   399  PHE399     -0.1241
     97  CA       -10.4510   46.4220   41.9660 C.3   399  PHE399      0.1605
     98  C        -11.0830   46.6890   40.6020 C.2   399  PHE399      0.2264
     99  O        -12.2900   46.5290   40.4300 O.2   399  PHE399     -0.2867
    100  CB       -11.3610   45.5490   42.8330 C.3   399  PHE399      0.0534
    101  CG       -10.6770   44.9840   44.0420 C.ar  399  PHE399     -0.0203
    102  CD1      -10.5680   45.7330   45.2140 C.ar  399  PHE399     -0.0042
    103  CD2      -10.1350   43.7050   44.0090 C.ar  399  PHE399     -0.0042
    104  CE1       -9.9200   45.2150   46.3280 C.ar  399  PHE399     -0.0003
    105  CE2       -9.4900   43.1870   45.1200 C.ar  399  PHE399     -0.0003
    106  CZ        -9.3860   43.9400   46.2790 C.ar  399  PHE399     -0.0000
    107  N         -6.2200   45.0110   37.1850 N.3   404  TYR404     -0.1241
    108  CA        -6.3160   43.7290   36.4950 C.3   404  TYR404      0.1605
    109  C         -5.6860   43.7610   35.1030 C.2   404  TYR404      0.2264
    110  O         -4.6840   43.0890   34.8580 O.2   404  TYR404     -0.2867
    111  CB        -7.7880   43.2840   36.3760 C.3   404  TYR404      0.0534
    112  CG        -8.4190   42.7350   37.6430 C.ar  404  TYR404     -0.0201
    113  CD1       -8.7150   43.5690   38.7220 C.ar  404  TYR404     -0.0009
    114  CD2       -8.7510   41.3870   37.7450 C.ar  404  TYR404     -0.0009
    115  CE1       -9.3100   43.0690   39.8740 C.ar  404  TYR404      0.0417
    116  CE2       -9.3500   40.8780   38.8890 C.ar  404  TYR404      0.0417
    117  CZ        -9.6210   41.7230   39.9500 C.ar  404  TYR404      0.1957
    118  OH       -10.2040   41.2250   41.0890 O.3   404  TYR404     -0.2866
    119  N        -18.9140   48.0400   45.2540 N.3   808  ARG808     -0.1245
    120  CA       -18.3420   48.6280   44.0350 C.3   808  ARG808      0.1563
    121  C        -19.2430   48.4660   42.8040 C.2   808  ARG808      0.2260
    122  O        -19.2330   49.3100   41.9080 O.2   808  ARG808     -0.2867
    123  CB       -16.8840   48.1830   43.7840 C.3   808  ARG808      0.0307
    124  CG       -16.7050   46.8470   43.0820 C.3   808  ARG808      0.0489
    125  CD       -15.2410   46.5250   42.8580 C.3   808  ARG808      0.2205
    126  NE       -14.5950   46.1710   44.1160 N.pl3 808  ARG808     -0.0865
    127  CZ       -14.5430   44.9420   44.6290 C.cat 808  ARG808      0.5346
    128  NH1      -13.9390   44.7420   45.7890 N.pl3 808  ARG808      0.1354
    129  NH2      -15.0910   43.9100   44.0000 N.pl3 808  ARG808      0.1354
@<TRIPOS>BOND
     1   110   109    2
     2    51    52    1
     3   109   108    1
     4    57    55    1
     5   111   108    1
     6   111   112    1
     7    52    55    1
     8    52    53    1
     9   108   107    1
    10    55    56    1
    11    58    59    1
    12    53    54    2
    13    64    63   ar
    14    64    66   ar
    15    62    59    1
    16    62    63    1
    17   112   114   ar
    18   112   113   ar
    19   114   116   ar
    20    59    60    1
    21    63    65   ar
    22    66    67   ar
    23    90    89    2
    24   113   115   ar
    25   116   117   ar
    26    89    88    1
    27    67    65   ar
    28    60    68   am
    29    60    61    2
    30    68    69    1
    31   115   117   ar
    32   117   118    1
    33    26    27    1
    34    26    25    1
    35    99    98    2
    36    88    91    1
    37    88    87    1
    38    98    97    1
    39    91    92    1
    40    28    27    2
    41    76    74   ar
    42    27    29   am
    43    94    93   ar
    44    73    72    1
    45    73    74    1
    46    69    72    1
    47    69    70    1
    48    25    20   am
    49    33    30    1
    50    74    75   ar
    51    70    71    2
    52    92    93    1
    53   122   121    2
    54    97    96    1
    55    97   100    1
    56    29    30    1
    57    93    95   ar
    58    20    21    2
    59    20    19    1
    60    86    84   ar
    61    86    85   ar
    62    77    78    1
    63    84    82   ar
    64    30    31    1
    65   121   120    1
    66   100   101    1
    67   125   124    1
    68   125   126    1
    69    85    83   ar
    70   124   123    1
    71    19    22    1
    72    19    18    1
    73    82    83   ar
    74    82    81    1
    75    32    31    2
    76    22    24    1
    77    22    23    1
    78    78    81    1
    79    78    79    1
    80    31    34   am
    81   123   120    1
    82   129   127    1
    83   103   101   ar
    84   103   105   ar
    85   120   119    1
    86   101   102   ar
    87   126   127    2
    88   127   128    1
    89    34    35    1
    90    79    80    2
    91   105   106   ar
    92   102   104   ar
    93    49    48   ar
    94    46    43    1
    95    46    47    1
    96    35    36    1
    97    35    38    1
    98    48    50   ar
    99    48    47    1
   100    36    42   am
   101    36    37    2
   102    42    43    1
   103    43    44    1
   104   106   104   ar
   105    16    15   ar
   106    38    39    1
   107    40    39    1
   108    40    41    1
   109    17    15   ar
   110    15    14    1
   111    44    45    2
   112    14    13    1
   113     7     6   ar
   114    12    11    2
   115     8     6   ar
   116    13    10    1
   117     6     5    1
   118    11    10    1
   119    10     9    1
   120     5     2    1
   121     2     3    1
   122     2     1    1
   123     3     4    2
