@<TRIPOS>MOLECULE
tmp/4kxfH00.pdb
 193 185 0 0 0
SMALL
GASTEIGER

@<TRIPOS>ATOM
      1  N       -193.9320  110.8560   84.1790 N.3    26  PHE26      -0.1241
      2  CA      -194.5460  111.7420   83.1940 C.3    26  PHE26       0.1605
      3  C       -194.7150  111.0620   81.8380 C.2    26  PHE26       0.2264
      4  O       -194.0600  110.0620   81.5460 O.2    26  PHE26      -0.2867
      5  CB      -193.7490  113.0440   83.0320 C.3    26  PHE26       0.0534
      6  CG      -192.3700  112.8500   82.4600 C.ar   26  PHE26      -0.0203
      7  CD1     -192.1460  112.9960   81.0990 C.ar   26  PHE26      -0.0042
      8  CD2     -191.3020  112.5240   83.2780 C.ar   26  PHE26      -0.0042
      9  CE1     -190.8840  112.8190   80.5660 C.ar   26  PHE26      -0.0003
     10  CE2     -190.0370  112.3470   82.7500 C.ar   26  PHE26      -0.0003
     11  CZ      -189.8290  112.4940   81.3930 C.ar   26  PHE26      -0.0000
     12  N       -193.9170  111.3670   78.1110 N.3    28  PRO28      -0.2116
     13  CA      -193.0400  112.0930   77.1890 C.3    28  PRO28       0.1372
     14  C       -193.7840  112.5400   75.9390 C.2    28  PRO28       0.2244
     15  O       -193.5700  113.6520   75.4570 O.2    28  PRO28      -0.2868
     16  CB      -191.9970  111.0360   76.8130 C.3    28  PRO28       0.0268
     17  CG      -191.9900  110.0980   77.9680 C.3    28  PRO28       0.0207
     18  CD      -193.4390  109.9950   78.3370 C.3    28  PRO28       0.0892
     19  N       -192.2550  107.5150   81.5500 N.3    37  PHE37      -0.1241
     20  CA      -190.8690  107.6530   81.9650 C.3    37  PHE37       0.1605
     21  C       -190.7870  107.9280   83.4590 C.2    37  PHE37       0.2264
     22  O       -191.4990  108.7820   83.9880 O.2    37  PHE37      -0.2867
     23  CB      -190.1720  108.7710   81.1850 C.3    37  PHE37       0.0534
     24  CG      -188.6800  108.8060   81.3810 C.ar   37  PHE37      -0.0203
     25  CD1     -187.8370  108.1930   80.4710 C.ar   37  PHE37      -0.0042
     26  CD2     -188.1210  109.4420   82.4790 C.ar   37  PHE37      -0.0042
     27  CE1     -186.4700  108.2180   80.6470 C.ar   37  PHE37      -0.0003
     28  CE2     -186.7550  109.4640   82.6620 C.ar   37  PHE37      -0.0003
     29  CZ      -185.9280  108.8550   81.7430 C.ar   37  PHE37      -0.0000
     30  N       -186.7600  104.4820   84.5910 N.3    42  THR42      -0.1203
     31  CA      -186.5800  104.5540   83.1440 C.3    42  THR42       0.1994
     32  C       -185.2990  105.2870   82.7650 C.2    42  THR42       0.2618
     33  O       -184.9150  105.3240   81.5970 O.2    42  THR42      -0.2717
     34  CB      -187.7670  105.2480   82.4550 C.3    42  THR42       0.1784
     35  OG1     -188.9410  105.1160   83.2640 O.3    42  THR42      -0.2211
     36  CG2     -188.0180  104.6390   81.0810 C.3    42  THR42       0.0376
     37  N       -184.6400  105.8620   83.7630 N.am   43  PHE43      -0.1961
     38  CA      -183.4890  106.7220   83.5360 C.3    43  PHE43       0.1771
     39  C       -182.2230  105.8990   83.3340 C.2    43  PHE43       0.2620
     40  O       -181.8850  105.0420   84.1540 O.2    43  PHE43      -0.2715
     41  CB      -183.3150  107.6520   84.7380 C.3    43  PHE43       0.0574
     42  CG      -182.2000  108.6470   84.5920 C.ar   43  PHE43      -0.0200
     43  CD1     -182.3820  109.8120   83.8680 C.ar   43  PHE43      -0.0042
     44  CD2     -180.9740  108.4270   85.1990 C.ar   43  PHE43      -0.0042
     45  CE1     -181.3600  110.7320   83.7390 C.ar   43  PHE43      -0.0003
     46  CE2     -179.9490  109.3420   85.0740 C.ar   43  PHE43      -0.0003
     47  CZ      -180.1420  110.4960   84.3440 C.ar   43  PHE43      -0.0000
     48  N       -181.5280  106.1660   82.2330 N.am   44  THR44      -0.1951
     49  CA      -180.2290  105.5620   81.9760 C.3    44  THR44       0.1897
     50  C       -179.1850  106.6380   82.1910 C.2    44  THR44       0.2313
     51  O       -179.3980  107.7900   81.8220 O.2    44  THR44      -0.2863
     52  CB      -180.1130  105.0370   80.5310 C.3    44  THR44       0.1794
     53  OG1     -180.7750  105.9400   79.6350 O.3    44  THR44      -0.2208
     54  CG2     -180.7410  103.6580   80.4130 C.3    44  THR44       0.0378
     55  N       -176.5530  109.1450   81.6830 N.3    46  PRO46      -0.2116
     56  CA      -176.0090  109.7680   80.4730 C.3    46  PRO46       0.1372
     57  C       -174.5030  109.9690   80.5830 C.2    46  PRO46       0.2244
     58  O       -173.9540  109.9210   81.6850 O.2    46  PRO46      -0.2868
     59  CB      -176.7150  111.1230   80.4310 C.3    46  PRO46       0.0268
     60  CG      -177.0950  111.4200   81.8520 C.3    46  PRO46       0.0207
     61  CD      -177.0770  110.1350   82.6400 C.3    46  PRO46       0.0892
     62  N       -181.9540  119.4650   70.9610 N.3    80  SER80      -0.1202
     63  CA      -183.3130  119.3450   71.4600 C.3    80  SER80       0.2020
     64  C       -183.6520  117.8640   71.5830 C.2    80  SER80       0.2619
     65  O       -183.4590  117.0950   70.6410 O.2    80  SER80      -0.2717
     66  CB      -184.2900  120.0300   70.5060 C.3    80  SER80       0.2103
     67  OG      -185.0540  121.0150   71.1780 O.3    80  SER80      -0.2182
     68  N       -184.1600  117.4720   72.7480 N.am   81  GLY81      -0.1942
     69  CA      -184.4850  116.0810   73.0090 C.3    81  GLY81       0.2014
     70  C       -183.3370  115.2550   73.5670 C.2    81  GLY81       0.2639
     71  O       -183.4250  114.0310   73.6290 O.2    81  GLY81      -0.2714
     72  N       -182.2660  115.9250   73.9860 N.am   82  LYS82      -0.1963
     73  CA      -181.0580  115.2570   74.4810 C.3    82  LYS82       0.1728
     74  C       -181.1810  114.6640   75.8870 C.2    82  LYS82       0.2617
     75  O       -180.3470  113.8560   76.2950 O.2    82  LYS82      -0.2715
     76  CB      -179.8680  116.2200   74.4150 C.3    82  LYS82       0.0311
     77  CG      -178.8720  115.9620   73.2890 C.3    82  LYS82       0.0038
     78  CD      -178.4370  114.5040   73.2590 C.3    82  LYS82       0.0206
     79  CE      -177.4940  114.2250   72.1000 C.3    82  LYS82       0.1093
     80  NZ      -178.2210  114.1570   70.8050 N.3    82  LYS82      -0.1314
     81  N       -182.2170  115.0560   76.6230 N.am   83  GLY83      -0.1940
     82  CA      -182.4180  114.5470   77.9700 C.3    83  GLY83       0.2014
     83  C       -182.0360  115.5000   79.0890 C.2    83  GLY83       0.2639
     84  O       -181.8950  115.0900   80.2420 O.2    83  GLY83      -0.2714
     85  N       -181.8590  116.7720   78.7490 N.am   84  LYS84      -0.1963
     86  CA      -181.4480  117.7880   79.7160 C.3    84  LYS84       0.1728
     87  C       -182.4760  118.0830   80.8230 C.2    84  LYS84       0.2617
     88  O       -182.1320  118.1500   82.0090 O.2    84  LYS84      -0.2715
     89  CB      -181.0770  119.0780   78.9890 C.3    84  LYS84       0.0311
     90  CG      -180.3120  118.8890   77.6940 C.3    84  LYS84       0.0038
     91  CD      -180.1450  120.2150   76.9690 C.3    84  LYS84       0.0206
     92  CE      -181.2280  120.4160   75.9260 C.3    84  LYS84       0.1093
     93  NZ      -181.2750  119.2810   74.9690 N.3    84  LYS84      -0.1314
     94  N       -183.7290  118.2910   80.4290 N.am   85  SER85      -0.1936
     95  CA      -184.7900  118.5890   81.3890 C.3    85  SER85       0.2055
     96  C       -184.9550  117.4320   82.3640 C.2    85  SER85       0.2644
     97  O       -185.0330  117.6250   83.5840 O.2    85  SER85      -0.2714
     98  CB      -186.1090  118.8420   80.6670 C.3    85  SER85       0.2130
     99  OG      -187.1700  118.9930   81.5940 O.3    85  SER85      -0.2179
    100  N       -184.9950  116.2260   81.8090 N.am   86  THR86      -0.1936
    101  CA      -185.0870  115.0070   82.5980 C.3    86  THR86       0.2028
    102  C       -183.8750  114.8740   83.5140 C.2    86  THR86       0.2642
    103  O       -183.9640  114.2810   84.5880 O.2    86  THR86      -0.2714
    104  CB      -185.1910  113.7720   81.7010 C.3    86  THR86       0.1808
    105  OG1     -185.5470  114.1730   80.3730 O.3    86  THR86      -0.2208
    106  CG2     -186.2400  112.8190   82.2380 C.3    86  THR86       0.0379
    107  N       -182.7450  115.4240   83.0770 N.am   87  LEU87      -0.1977
    108  CA      -181.5380  115.4590   83.8950 C.3    87  LEU87       0.1596
    109  C       -181.7440  116.3570   85.1090 C.2    87  LEU87       0.2287
    110  O       -181.3520  116.0060   86.2240 O.2    87  LEU87      -0.2864
    111  CB      -180.3500  115.9630   83.0710 C.3    87  LEU87       0.0297
    112  CG      -178.9420  115.8150   83.6440 C.3    87  LEU87       0.0022
    113  CD1     -178.5370  114.3550   83.7360 C.3    87  LEU87       0.0001
    114  CD2     -177.9580  116.6120   82.8080 C.3    87  LEU87       0.0001
    115  N       -184.6590  117.0950   86.4610 N.3    89  GLN89      -0.1245
    116  CA      -185.6130  116.3740   87.2980 C.3    89  GLN89       0.1566
    117  C       -184.9090  115.2760   88.0920 C.2    89  GLN89       0.2260
    118  O       -185.2340  115.0210   89.2530 O.2    89  GLN89      -0.2867
    119  CB      -186.7370  115.7810   86.4450 C.3    89  GLN89       0.0367
    120  CG      -187.4640  116.8070   85.5970 C.3    89  GLN89       0.0905
    121  CD      -188.6710  116.2300   84.8900 C.2    89  GLN89       0.2608
    122  OE1     -189.5620  115.6610   85.5200 O.2    89  GLN89      -0.2717
    123  NE2     -188.7050  116.3700   83.5710 N.am   89  GLN89      -0.0878
    124  N       -185.0010  125.2580   83.7040 N.3   157  ASP157     -0.1239
    125  CA      -185.0810  124.3810   82.5490 C.3   157  ASP157      0.1674
    126  C       -185.4430  125.1370   81.2790 C.2   157  ASP157      0.2266
    127  O       -186.4010  125.9120   81.2570 O.2   157  ASP157     -0.2867
    128  CB      -186.1180  123.2890   82.8060 C.3   157  ASP157      0.1410
    129  CG      -186.1670  122.2600   81.7010 C.2   157  ASP157      0.3668
    130  OD1     -187.2740  121.7660   81.4050 O.co2 157  ASP157     -0.2456
    131  OD2     -185.1020  121.9480   81.1300 O.co2 157  ASP157     -0.2456
    132  N       -180.5380  124.9840   81.9310 N.3   187  THR187     -0.1218
    133  CA      -180.5920  124.0480   80.8150 C.3   187  THR187      0.1862
    134  C       -180.8280  124.7620   79.4910 C.2   187  THR187      0.2287
    135  O       -181.6690  125.6570   79.4040 O.2   187  THR187     -0.2866
    136  CB      -181.7090  123.0180   81.0400 C.3   187  THR187      0.1770
    137  OG1     -181.2980  122.1050   82.0630 O.3   187  THR187     -0.2211
    138  CG2     -181.9730  122.2310   79.7850 C.3   187  THR187      0.0375
    139  N       -180.3230  124.5670   74.7850 N.3   189  THR189     -0.1218
    140  CA      -179.8900  123.9780   73.5320 C.3   189  THR189      0.1862
    141  C       -178.5540  124.5950   73.1360 C.2   189  THR189      0.2287
    142  O       -178.2390  125.7140   73.5430 O.2   189  THR189     -0.2866
    143  CB      -180.9210  124.2050   72.4160 C.3   189  THR189      0.1770
    144  OG1     -181.2630  125.5950   72.3580 O.3   189  THR189     -0.2211
    145  CG2     -182.1810  123.3960   72.6860 C.3   189  THR189      0.0375
    146  N       -176.7120  109.3760   72.8770 N.3   209  MET209     -0.1245
    147  CA      -177.1380  108.2190   73.6500 C.3   209  MET209      0.1570
    148  C       -176.5150  106.9510   73.0910 C.2   209  MET209      0.2261
    149  O       -176.6000  106.6760   71.8930 O.2   209  MET209     -0.2867
    150  CB      -178.6610  108.0930   73.6440 C.3   209  MET209      0.0387
    151  CG      -179.1830  106.9660   74.5210 C.3   209  MET209      0.0595
    152  SD      -180.9740  106.7880   74.4570 S.3   209  MET209     -0.1393
    153  CE      -181.3310  106.4110   76.1710 C.3   209  MET209      0.0692
    154  N       -183.9150  101.5550   76.9570 N.3   217  LEU217     -0.1245
    155  CA      -185.1160  102.3770   76.9430 C.3   217  LEU217      0.1561
    156  C       -186.2060  101.6990   76.1240 C.2   217  LEU217      0.2260
    157  O       -187.3430  101.5960   76.5770 O.2   217  LEU217     -0.2867
    158  CB      -184.8170  103.7690   76.3890 C.3   217  LEU217      0.0270
    159  CG      -185.9900  104.7510   76.4120 C.3   217  LEU217      0.0019
    160  CD1     -186.1640  105.3350   77.8040 C.3   217  LEU217      0.0001
    161  CD2     -185.7850  105.8570   75.3870 C.3   217  LEU217      0.0001
    162  N       -182.6250  110.4400   72.7030 N.3   247  PRO247     -0.2102
    163  CA      -183.6400  109.6650   73.4280 C.3   247  PRO247      0.1504
    164  C       -185.0760  110.0220   73.0470 C.2   247  PRO247      0.2575
    165  O       -185.9280  109.1320   72.9870 O.2   247  PRO247     -0.2718
    166  CB      -183.3710  110.0310   74.8880 C.3   247  PRO247      0.0282
    167  CG      -181.9270  110.3830   74.9200 C.3   247  PRO247      0.0208
    168  CD      -181.7010  111.1180   73.6280 C.3   247  PRO247      0.0893
    169  N       -185.3310  111.3030   72.7920 N.am  248  LEU248     -0.1980
    170  CA      -186.6640  111.7700   72.4220 C.3   248  LEU248      0.1596
    171  C       -187.0780  111.0640   71.1380 C.2   248  LEU248      0.2287
    172  O       -188.2040  110.5750   71.0100 O.2   248  LEU248     -0.2864
    173  CB      -186.6580  113.2890   72.2120 C.3   248  LEU248      0.0297
    174  CG      -187.9320  114.1460   72.3370 C.3   248  LEU248      0.0022
    175  CD1     -187.7790  115.4400   71.5440 C.3   248  LEU248      0.0001
    176  CD2     -189.2180  113.4300   71.9410 C.3   248  LEU248      0.0001
    177  N       -188.0480  107.4990   71.7970 N.3   251  VAL251     -0.1245
    178  CA      -189.4120  107.4040   72.3100 C.3   251  VAL251      0.1561
    179  C       -190.4400  107.5760   71.1850 C.2   251  VAL251      0.2260
    180  O       -191.4290  106.8320   71.1070 O.2   251  VAL251     -0.2867
    181  CB      -189.6660  108.4500   73.4170 C.3   251  VAL251      0.0252
    182  CG1     -191.0450  108.2740   74.0150 C.3   251  VAL251      0.0019
    183  CG2     -188.6030  108.3460   74.4960 C.3   251  VAL251      0.0019
    184  N       -193.4420  118.2270   73.1210 N.3   350  HIS350     -0.1241
    185  CA      -192.0920  118.7650   73.1690 C.3   350  HIS350      0.1621
    186  C       -192.0620  120.0140   72.3000 C.2   350  HIS350      0.2264
    187  O       -192.9260  120.1930   71.4420 O.2   350  HIS350     -0.2867
    188  CB      -191.0820  117.7450   72.6530 C.3   350  HIS350      0.0745
    189  CG      -189.6730  118.0200   73.0840 C.ar  350  HIS350      0.0817
    190  ND1     -188.8250  118.8480   72.3810 N.ar  350  HIS350     -0.2268
    191  CD2     -188.9670  117.5780   74.1510 C.ar  350  HIS350      0.1154
    192  CE1     -187.6560  118.9020   72.9950 C.ar  350  HIS350      0.1986
    193  NE2     -187.7160  118.1400   74.0720 N.ar  350  HIS350     -0.2212
@<TRIPOS>BOND
     1    66    67    1
     2    66    63    1
     3    65    64    2
     4    80    79    1
     5    62    63    1
     6   172   171    2
     7   180   179    2
     8   171   170    1
     9   179   178    1
    10   187   186    2
    11    63    64    1
    12   175   174    1
    13    64    68   am
    14   177   178    1
    15   149   148    2
    16   176   174    1
    17    79    78    1
    18   173   174    1
    19   173   170    1
    20   186   185    1
    21   178   181    1
    22   144   143    1
    23   190   192   ar
    24   190   189   ar
    25   143   145    1
    26   143   140    1
    27   170   169    1
    28   188   189    1
    29   188   185    1
    30   162   163    1
    31   162   168    1
    32    68    69    1
    33   169   164   am
    34   146   147    1
    35   165   164    2
    36   192   193   ar
    37    69    70    1
    38   164   163    1
    39   189   191   ar
    40   148   147    1
    41   184   185    1
    42   141   140    1
    43   141   142    2
    44    78    77    1
    45    77    76    1
    46   181   182    1
    47   181   183    1
    48   163   166    1
    49   140   139    1
    50    70    71    2
    51    70    72   am
    52   168   167    1
    53   150   147    1
    54   150   151    1
    55    72    73    1
    56   193   191   ar
    57    76    73    1
    58   152   151    1
    59   152   153    1
    60    73    74    1
    61   166   167    1
    62    93    92    1
    63   161   159    1
    64    15    14    2
    65    74    75    2
    66    74    81   am
    67    92    91    1
    68    14    13    1
    69   156   157    2
    70   156   155    1
    71   158   159    1
    72   158   155    1
    73   159   160    1
    74    81    82    1
    75    16    13    1
    76    16    17    1
    77   155   154    1
    78    91    90    1
    79    13    12    1
    80    90    89    1
    81    17    18    1
    82    82    83    1
    83    12    18    1
    84    85    83   am
    85    85    86    1
    86    89    86    1
    87    83    84    2
    88   135   134    2
    89   134   133    1
    90    53    52    1
    91    86    87    1
    92   138   136    1
    93   105   104    1
    94    54    52    1
    95    94    87   am
    96    94    95    1
    97    59    56    1
    98    59    60    1
    99    25    27   ar
   100    25    24   ar
   101    56    57    1
   102    56    55    1
   103    52    49    1
   104     9     7   ar
   105     9    11   ar
   106    57    58    2
   107    27    29   ar
   108    98    95    1
   109    98    99    1
   110   133   136    1
   111   133   132    1
   112    87    88    2
   113   136   137    1
   114    36    34    1
   115     7     6   ar
   116   131   129   ar
   117    23    24    1
   118    23    20    1
   119   127   126    2
   120   126   125    1
   121    24    26   ar
   122    95    96    1
   123    11    10   ar
   124   130   129   ar
   125     4     3    2
   126    19    20    1
   127    33    32    2
   128    55    61    1
   129   104   106    1
   130   104   101    1
   131   129   128    1
   132    29    28   ar
   133   100    96   am
   134   100   101    1
   135    51    50    2
   136     3     2    1
   137    60    61    1
   138    20    21    1
   139    49    50    1
   140    49    48    1
   141    48    39   am
   142    96    97    2
   143    34    31    1
   144    34    35    1
   145     6     5    1
   146     6     8   ar
   147    26    28   ar
   148   125   128    1
   149   125   124    1
   150   101   102    1
   151    10     8   ar
   152    32    31    1
   153    32    37   am
   154   114   112    1
   155     5     2    1
   156   111   112    1
   157   111   108    1
   158   107   102   am
   159   107   108    1
   160    31    30    1
   161     2     1    1
   162    39    38    1
   163    39    40    2
   164    21    22    2
   165   102   103    2
   166    38    37    1
   167    38    41    1
   168   123   121   am
   169   112   113    1
   170    45    43   ar
   171    45    47   ar
   172    43    42   ar
   173   108   109    1
   174    47    46   ar
   175    42    41    1
   176    42    44   ar
   177   121   122    2
   178   121   120    1
   179    46    44   ar
   180   109   110    2
   181   120   119    1
   182   119   116    1
   183   115   116    1
   184   116   117    1
   185   117   118    2
