@<TRIPOS>MOLECULE
tmp/4kxfA00.pdb
 168 161 0 0 0
SMALL
GASTEIGER

@<TRIPOS>ATOM
      1  N        -35.4990   65.2960   47.3580 N.3    25  PHE25      -0.1241
      2  CA       -36.0680   64.9190   46.0670 C.3    25  PHE25       0.1605
      3  C        -35.0710   65.0700   44.9190 C.2    25  PHE25       0.2264
      4  O        -34.0730   65.7830   45.0380 O.2    25  PHE25      -0.2867
      5  CB       -37.3510   65.7070   45.7770 C.3    25  PHE25       0.0534
      6  CG       -37.1480   67.1930   45.6790 C.ar   25  PHE25      -0.0203
      7  CD1      -36.9520   67.8050   44.4500 C.ar   25  PHE25      -0.0042
      8  CD2      -37.1540   67.9800   46.8190 C.ar   25  PHE25      -0.0042
      9  CE1      -36.7650   69.1720   44.3620 C.ar   25  PHE25      -0.0003
     10  CE2      -36.9700   69.3460   46.7370 C.ar   25  PHE25      -0.0003
     11  CZ       -36.7740   69.9420   45.5070 C.ar   25  PHE25      -0.0000
     12  N        -34.5450   66.6910   41.5080 N.3    27  PRO27      -0.2116
     13  CA       -35.0970   67.7640   40.6770 C.3    27  PRO27       0.1372
     14  C        -35.2360   67.3440   39.2210 C.2    27  PRO27       0.2244
     15  O        -36.2440   67.6440   38.5790 O.2    27  PRO27      -0.2868
     16  CB       -34.0310   68.8580   40.7890 C.3    27  PRO27       0.0268
     17  CG       -33.3720   68.5920   42.1000 C.3    27  PRO27       0.0207
     18  CD       -33.2850   67.1010   42.1480 C.3    27  PRO27       0.0892
     19  N        -31.7560   67.3950   45.9690 N.3    36  PHE36      -0.1241
     20  CA       -32.0230   68.6390   46.6720 C.3    36  PHE36       0.1605
     21  C        -32.6220   68.3530   48.0440 C.2    36  PHE36       0.2264
     22  O        -33.5370   67.5400   48.1800 O.2    36  PHE36      -0.2867
     23  CB       -32.9620   69.5380   45.8670 C.3    36  PHE36       0.0534
     24  CG       -33.1000   70.9220   46.4330 C.ar   36  PHE36      -0.0203
     25  CD1      -32.3090   71.9580   45.9670 C.ar   36  PHE36      -0.0042
     26  CD2      -34.0110   71.1840   47.4440 C.ar   36  PHE36      -0.0042
     27  CE1      -32.4290   73.2290   46.4930 C.ar   36  PHE36      -0.0003
     28  CE2      -34.1320   72.4510   47.9760 C.ar   36  PHE36      -0.0003
     29  CZ       -33.3430   73.4760   47.4980 C.ar   36  PHE36      -0.0000
     30  N        -29.7110   72.0440   51.1220 N.3    41  THR41      -0.1203
     31  CA       -29.3870   72.5920   49.8070 C.3    41  THR41       0.1994
     32  C        -30.0870   73.9220   49.5550 C.2    41  THR41       0.2618
     33  O        -29.8050   74.6010   48.5680 O.2    41  THR41      -0.2717
     34  CB       -29.7530   71.6160   48.6700 C.3    41  THR41       0.1784
     35  OG1      -29.6970   70.2640   49.1440 O.3    41  THR41      -0.2211
     36  CG2      -28.7880   71.7680   47.5060 C.3    41  THR41       0.0376
     37  N        -30.9730   74.3040   50.4680 N.am   42  PHE42      -0.1961
     38  CA       -31.8350   75.4590   50.2660 C.3    42  PHE42       0.1771
     39  C        -31.0810   76.7470   50.5780 C.2    42  PHE42       0.2620
     40  O        -30.5200   76.8990   51.6640 O.2    42  PHE42      -0.2715
     41  CB       -33.0540   75.3390   51.1900 C.3    42  PHE42       0.0574
     42  CG       -34.0950   76.4060   50.9840 C.ar   42  PHE42      -0.0200
     43  CD1      -35.2120   76.1500   50.2070 C.ar   42  PHE42      -0.0042
     44  CD2      -33.9680   77.6550   51.5740 C.ar   42  PHE42      -0.0042
     45  CE1      -36.1750   77.1190   50.0100 C.ar   42  PHE42      -0.0003
     46  CE2      -34.9300   78.6280   51.3830 C.ar   42  PHE42      -0.0003
     47  CZ       -36.0330   78.3610   50.5970 C.ar   42  PHE42      -0.0000
     48  N        -31.0750   77.6740   49.6230 N.am   43  THR43      -0.1951
     49  CA       -30.5270   79.0060   49.8520 C.3    43  THR43       0.1897
     50  C        -31.6890   79.9780   49.9350 C.2    43  THR43       0.2313
     51  O        -32.6580   79.8530   49.1920 O.2    43  THR43      -0.2863
     52  CB       -29.5800   79.4540   48.7210 C.3    43  THR43       0.1794
     53  OG1      -30.0800   79.0000   47.4570 O.3    43  THR43      -0.2208
     54  CG2      -28.1840   78.8950   48.9420 C.3    43  THR43       0.0378
     55  N        -34.1040   82.7660   49.3050 N.3    45  PRO45      -0.2116
     56  CA       -34.3240   83.6200   48.1330 C.3    45  PRO45       0.1372
     57  C        -34.6240   85.0590   48.5380 C.2    45  PRO45       0.2244
     58  O        -34.8090   85.3340   49.7240 O.2    45  PRO45      -0.2868
     59  CB       -35.5610   83.0010   47.4820 C.3    45  PRO45       0.0268
     60  CG       -36.2900   82.3060   48.5940 C.3    45  PRO45       0.0207
     61  CD       -35.3310   82.0750   49.7370 C.3    45  PRO45       0.0892
     62  N        -41.1830   80.3280   35.5460 N.3    79  SER79      -0.1202
     63  CA       -41.0790   78.9040   35.8130 C.3    79  SER79       0.2020
     64  C        -39.6510   78.5380   36.2030 C.2    79  SER79       0.2619
     65  O        -38.6910   78.9510   35.5540 O.2    79  SER79      -0.2717
     66  CB       -41.4820   78.1100   34.5740 C.3    79  SER79       0.2103
     67  OG       -42.5230   77.2020   34.8740 O.3    79  SER79      -0.2182
     68  N        -39.5220   77.7660   37.2770 N.am   80  GLY80      -0.1956
     69  CA       -38.2240   77.3580   37.7770 C.3    80  GLY80       0.1869
     70  C        -37.6060   78.3170   38.7730 C.2    80  GLY80       0.2309
     71  O        -36.4240   78.2050   39.0890 O.2    80  GLY80      -0.2863
     72  N        -38.3360   78.6130   41.9060 N.3    82  GLY82      -0.1210
     73  CA       -38.2520   78.0360   43.2370 C.3    82  GLY82       0.1956
     74  C        -39.4810   78.1360   44.1270 C.2    82  GLY82       0.2612
     75  O        -39.3780   77.9490   45.3390 O.2    82  GLY82      -0.2717
     76  N        -40.6380   78.4370   43.5430 N.am   83  LYS83      -0.1965
     77  CA       -41.8730   78.5940   44.3170 C.3    83  LYS83       0.1728
     78  C        -42.3280   77.3140   45.0340 C.2    83  LYS83       0.2617
     79  O        -42.6830   77.3400   46.2210 O.2    83  LYS83      -0.2715
     80  CB       -43.0020   79.1270   43.4310 C.3    83  LYS83       0.0311
     81  CG       -42.6070   80.2180   42.4490 C.3    83  LYS83       0.0038
     82  CD       -43.7650   80.5550   41.5140 C.3    83  LYS83       0.0206
     83  CE       -43.3980   80.3560   40.0520 C.3    83  LYS83       0.1093
     84  NZ       -42.9310   78.9780   39.7540 N.3    83  LYS83      -0.1314
     85  N        -42.3270   76.2010   44.3070 N.am   84  SER84      -0.1936
     86  CA       -42.7350   74.9200   44.8720 C.3    84  SER84       0.2055
     87  C        -41.8480   74.5830   46.0650 C.2    84  SER84       0.2644
     88  O        -42.3330   74.2060   47.1390 O.2    84  SER84      -0.2714
     89  CB       -42.6280   73.8210   43.8170 C.3    84  SER84       0.2130
     90  OG       -42.8600   72.5430   44.3770 O.3    84  SER84      -0.2179
     91  N        -40.5440   74.7430   45.8720 N.am   85  THR85      -0.1936
     92  CA       -39.5800   74.5350   46.9400 C.3    85  THR85       0.2028
     93  C        -39.8170   75.4930   48.1000 C.2    85  THR85       0.2642
     94  O        -39.5050   75.1660   49.2380 O.2    85  THR85      -0.2714
     95  CB       -38.1360   74.6980   46.4460 C.3    85  THR85       0.1808
     96  OG1      -38.0970   74.5660   45.0200 O.3    85  THR85      -0.2208
     97  CG2      -37.2540   73.6350   47.0590 C.3    85  THR85       0.0379
     98  N        -40.3580   76.6740   47.8100 N.am   86  LEU86      -0.1977
     99  CA       -40.6790   77.6300   48.8620 C.3    86  LEU86       0.1596
    100  C        -41.7990   77.0680   49.7210 C.2    86  LEU86       0.2287
    101  O        -41.7400   77.1270   50.9520 O.2    86  LEU86      -0.2864
    102  CB       -41.1290   78.9680   48.2700 C.3    86  LEU86       0.0297
    103  CG       -40.3090   80.2390   48.5220 C.3    86  LEU86       0.0022
    104  CD1      -39.4700   80.1140   49.7800 C.3    86  LEU86       0.0001
    105  CD2      -39.4440   80.5870   47.3210 C.3    86  LEU86       0.0001
    106  N        -49.8450   74.3230   45.3420 N.3   156  ASP156     -0.1239
    107  CA       -48.7380   74.5110   44.4120 C.3   156  ASP156      0.1674
    108  C        -49.1560   74.4050   42.9490 C.2   156  ASP156      0.2266
    109  O        -49.8160   73.4480   42.5510 O.2   156  ASP156     -0.2867
    110  CB       -47.6460   73.4830   44.6990 C.3   156  ASP156      0.1410
    111  CG       -46.4050   73.7100   43.8690 C.2   156  ASP156      0.3668
    112  OD1      -45.7600   72.7140   43.4820 O.co2 156  ASP156     -0.2456
    113  OD2      -46.0730   74.8850   43.6110 O.co2 156  ASP156     -0.2456
    114  N        -49.4890   79.0790   44.7320 N.3   186  THR186     -0.1218
    115  CA       -48.3410   79.2330   43.8570 C.3   186  THR186      0.1862
    116  C        -48.7910   79.2390   42.4070 C.2   186  THR186      0.2287
    117  O        -49.6040   78.4130   41.9950 O.2   186  THR186     -0.2866
    118  CB       -47.3270   78.1010   44.0730 C.3   186  THR186      0.1770
    119  OG1      -46.7100   78.2610   45.3550 O.3   186  THR186     -0.2211
    120  CG2      -46.2530   78.1390   43.0120 C.3   186  THR186      0.0375
    121  N        -31.8310   84.5860   41.3680 N.3   208  MET208     -0.1245
    122  CA       -30.8590   83.9520   42.2500 C.3   208  MET208      0.1570
    123  C        -29.4900   84.6240   42.1360 C.2   208  MET208      0.2261
    124  O        -28.9440   84.7810   41.0420 O.2   208  MET208     -0.2867
    125  CB       -30.7540   82.4640   41.9150 C.3   208  MET208      0.0387
    126  CG       -29.8780   81.6490   42.8430 C.3   208  MET208      0.0595
    127  SD       -29.8030   79.9310   42.3030 S.3   208  MET208     -0.1393
    128  CE       -29.8600   79.0810   43.8770 C.3   208  MET208      0.0692
    129  N        -25.4780   76.6170   45.3010 N.3   216  LEU216     -0.1245
    130  CA       -26.1810   75.4590   44.7660 C.3   216  LEU216      0.1561
    131  C        -25.2510   74.5940   43.9180 C.2   216  LEU216      0.2260
    132  O        -25.2430   73.3700   44.0510 O.2   216  LEU216     -0.2867
    133  CB       -27.3980   75.8910   43.9490 C.3   216  LEU216      0.0270
    134  CG       -28.2490   74.7440   43.3980 C.3   216  LEU216      0.0019
    135  CD1      -29.1550   74.1710   44.4720 C.3   216  LEU216      0.0001
    136  CD2      -29.0690   75.2160   42.2090 C.3   216  LEU216      0.0001
    137  N        -32.9510   79.1420   39.5620 N.3   246  PRO246     -0.2102
    138  CA       -32.3930   77.9100   40.1380 C.3   246  PRO246      0.1504
    139  C        -32.5770   76.6430   39.2940 C.2   246  PRO246      0.2575
    140  O        -31.6440   75.8330   39.2280 O.2   246  PRO246     -0.2718
    141  CB       -33.1700   77.7720   41.4490 C.3   246  PRO246      0.0282
    142  CG       -33.5210   79.1720   41.8130 C.3   246  PRO246      0.0208
    143  CD       -33.8490   79.8270   40.5090 C.3   246  PRO246      0.0893
    144  N        -33.7280   76.4850   38.6430 N.am  247  LEU247     -0.1980
    145  CA       -33.9710   75.2960   37.8240 C.3   247  LEU247      0.1596
    146  C        -32.9390   75.1740   36.7250 C.2   247  LEU247      0.2287
    147  O        -32.3700   74.1030   36.5070 O.2   247  LEU247     -0.2864
    148  CB       -35.3560   75.3490   37.1790 C.3   247  LEU247      0.0297
    149  CG       -35.7560   74.0960   36.3880 C.3   247  LEU247      0.0022
    150  CD1      -36.0070   72.9040   37.2970 C.3   247  LEU247      0.0001
    151  CD2      -36.9590   74.3660   35.4930 C.3   247  LEU247      0.0001
    152  N        -29.6360   74.0170   38.0420 N.3   250  VAL250     -0.1245
    153  CA       -29.6050   72.5700   38.2340 C.3   250  VAL250      0.1561
    154  C        -29.4290   71.8590   36.8930 C.2   250  VAL250      0.2260
    155  O        -28.6760   70.8840   36.7830 O.2   250  VAL250     -0.2867
    156  CB       -30.8820   72.0530   38.9310 C.3   250  VAL250      0.0252
    157  CG1      -30.7720   70.5610   39.2130 C.3   250  VAL250      0.0019
    158  CG2      -31.1360   72.8230   40.2160 C.3   250  VAL250      0.0019
    159  N        -40.0190   68.2850   35.1990 N.3   349  HIS349     -0.1241
    160  CA       -40.5900   69.5940   35.4820 C.3   349  HIS349      0.1621
    161  C        -41.5720   69.9260   34.3730 C.2   349  HIS349      0.2264
    162  O        -41.5110   69.3350   33.2940 O.2   349  HIS349     -0.2867
    163  CB       -39.4920   70.6550   35.5380 C.3   349  HIS349      0.0745
    164  CG       -39.8930   71.9100   36.2480 C.ar  349  HIS349      0.0817
    165  ND1      -40.5290   72.9520   35.6100 N.ar  349  HIS349     -0.2268
    166  CD2      -39.7320   72.2970   37.5350 C.ar  349  HIS349      0.1154
    167  CE1      -40.7530   73.9240   36.4760 C.ar  349  HIS349      0.1986
    168  NE2      -40.2770   73.5530   37.6510 N.ar  349  HIS349     -0.2212
@<TRIPOS>BOND
     1   162   161    2
     2   161   160    1
     3    66    67    1
     4    66    63    1
     5   159   160    1
     6   160   163    1
     7   151   149    1
     8   163   164    1
     9    62    63    1
    10    65    64    2
    11   165   164   ar
    12   165   167   ar
    13    63    64    1
    14    64    68   am
    15   164   166   ar
    16   149   148    1
    17   149   150    1
    18   167   168   ar
    19   147   146    2
    20   146   145    1
    21   155   154    2
    22   154   153    1
    23   148   145    1
    24    68    69    1
    25   166   168   ar
    26    69    70    1
    27   145   144    1
    28   152   153    1
    29   153   156    1
    30    15    14    2
    31   144   139   am
    32    70    71    2
    33   156   157    1
    34   156   158    1
    35    14    13    1
    36   140   139    2
    37   139   138    1
    38   137   138    1
    39   137   143    1
    40    84    83    1
    41    83    82    1
    42   138   141    1
    43   143   142    1
    44    13    16    1
    45    13    12    1
    46    16    17    1
    47   124   123    2
    48   121   122    1
    49   141   142    1
    50    12    18    1
    51    82    81    1
    52    72    73    1
    53   125   122    1
    54   125   126    1
    55   117   116    2
    56    17    18    1
    57   123   122    1
    58   136   134    1
    59   127   126    1
    60   127   128    1
    61   116   115    1
    62    81    80    1
    63   109   108    2
    64   108   107    1
    65   120   118    1
    66    73    74    1
    67   134   133    1
    68   134   135    1
    69    80    77    1
    70   112   111   ar
    71    76    74   am
    72    76    77    1
    73   113   111   ar
    74    89    90    1
    75    89    86    1
    76   115   118    1
    77   115   114    1
    78   111   110    1
    79   131   132    2
    80   131   130    1
    81   133   130    1
    82   118   119    1
    83    74    75    2
    84    85    86    1
    85    85    78   am
    86    77    78    1
    87     9     7   ar
    88     9    11   ar
    89   107   110    1
    90   107   106    1
    91     7     6   ar
    92   130   129    1
    93    86    87    1
    94     3     4    2
    95     3     2    1
    96    96    95    1
    97    78    79    2
    98    11    10   ar
    99     6     5    1
   100     6     8   ar
   101     5     2    1
   102    23    24    1
   103    23    20    1
   104    91    87   am
   105    91    92    1
   106    25    24   ar
   107    25    27   ar
   108    19    20    1
   109    87    88    2
   110     2     1    1
   111    24    26   ar
   112    95    92    1
   113    95    97    1
   114    27    29   ar
   115    20    21    1
   116    10     8   ar
   117    92    93    1
   118   105   103    1
   119    26    28   ar
   120    53    52    1
   121    59    56    1
   122    59    60    1
   123    29    28   ar
   124    36    34    1
   125    98    93   am
   126    98    99    1
   127    21    22    2
   128    93    94    2
   129    56    57    1
   130    56    55    1
   131   102   103    1
   132   102    99    1
   133   103   104    1
   134    57    58    2
   135    33    32    2
   136    60    61    1
   137    34    35    1
   138    34    31    1
   139    52    54    1
   140    52    49    1
   141    99   100    1
   142    51    50    2
   143    55    61    1
   144    32    31    1
   145    32    37   am
   146    48    49    1
   147    48    39   am
   148   100   101    2
   149    31    30    1
   150    49    50    1
   151    45    43   ar
   152    45    47   ar
   153    43    42   ar
   154    38    37    1
   155    38    39    1
   156    38    41    1
   157    39    40    2
   158    47    46   ar
   159    42    41    1
   160    42    44   ar
   161    46    44   ar
