@<TRIPOS>MOLECULE
tmp/4kxiA00.pdb
 141 138 0 0 0
SMALL
GASTEIGER

@<TRIPOS>ATOM
      1  N          3.7500   23.5840   14.0210 N.3    35  GLU35      -0.1245
      2  CA         4.3850   22.6860   14.9610 C.3    35  GLU35       0.1567
      3  C          5.0030   21.4410   14.3020 C.2    35  GLU35       0.2260
      4  O          6.1670   21.1780   14.5220 O.2    35  GLU35      -0.2867
      5  CB         3.3760   22.2120   16.0150 C.3    35  GLU35       0.0388
      6  CG         2.9110   23.3170   16.9540 C.3    35  GLU35       0.1160
      7  CD         4.0190   23.8220   17.8590 C.2    35  GLU35       0.3649
      8  OE1        5.2030   23.5730   17.5420 O.co2  35  GLU35      -0.2457
      9  OE2        3.7080   24.4580   18.8890 O.co2  35  GLU35      -0.2457
     10  N         10.9260   16.6910   18.1970 N.3    44  ASN44      -0.1240
     11  CA        11.8830   17.7750   18.3030 C.3    44  ASN44       0.1653
     12  C         12.4030   17.9210   19.6920 C.2    44  ASN44       0.2266
     13  O         11.6580   18.0810   20.6370 O.2    44  ASN44      -0.2867
     14  CB        11.2620   19.0580   17.8350 C.3    44  ASN44       0.1155
     15  CG        11.1040   19.0590   16.3250 C.2    44  ASN44       0.2627
     16  OD1       10.0170   18.8720   15.7970 O.2    44  ASN44      -0.2716
     17  ND2       12.2140   19.1930   15.6220 N.am   44  ASN44      -0.0877
     18  N         13.8600   19.7800   22.6570 N.3    46  ASN46      -0.1240
     19  CA        13.8590   21.1640   23.1180 C.3    46  ASN46       0.1653
     20  C         15.1570   21.4180   23.9230 C.2    46  ASN46       0.2266
     21  O         15.8720   20.4790   24.3450 O.2    46  ASN46      -0.2867
     22  CB        12.5800   21.4920   23.9240 C.3    46  ASN46       0.1155
     23  CG        11.2980   21.0610   23.1950 C.2    46  ASN46       0.2627
     24  OD1       11.0630   21.4380   22.0360 O.2    46  ASN46      -0.2716
     25  ND2       10.4710   20.2570   23.8720 N.am   46  ASN46      -0.0877
     26  N         15.7860   22.2850   26.8840 N.3    48  ASP48      -0.1239
     27  CA        15.8340   21.7630   28.2510 C.3    48  ASP48       0.1674
     28  C         15.9850   20.2250   28.2530 C.2    48  ASP48       0.2266
     29  O         15.9700   19.5840   29.2990 O.2    48  ASP48      -0.2867
     30  CB        14.5800   22.2150   29.0280 C.3    48  ASP48       0.1410
     31  CG        13.2650   21.6330   28.4660 C.2    48  ASP48       0.3668
     32  OD1       13.2490   20.9940   27.4020 O.co2  48  ASP48      -0.2456
     33  OD2       12.2070   21.8300   29.0930 O.co2  48  ASP48      -0.2456
     34  N          9.4420   17.2500   22.0460 N.3    52  ASP52      -0.1239
     35  CA         8.0700   17.4530   21.6030 C.3    52  ASP52       0.1674
     36  C          7.6970   16.3370   20.6620 C.2    52  ASP52       0.2266
     37  O          8.4980   15.9690   19.8030 O.2    52  ASP52      -0.2867
     38  CB         7.9460   18.7410   20.8450 C.3    52  ASP52       0.1410
     39  CG         7.8750   19.9510   21.7430 C.2    52  ASP52       0.3668
     40  OD1        7.8770   19.8780   22.9890 O.co2  52  ASP52      -0.2456
     41  OD2        7.8440   21.0240   21.1410 O.co2  52  ASP52      -0.2456
     42  N          0.8900   17.9410   17.2430 N.3    56  LEU56      -0.1231
     43  CA         0.8070   19.1350   18.0300 C.3    56  LEU56       0.1693
     44  C          1.9600   19.2760   19.0070 C.2    56  LEU56       0.2592
     45  O          1.8760   20.0650   19.9090 O.2    56  LEU56      -0.2718
     46  CB        -0.5650   19.2440   18.7260 C.3    56  LEU56       0.0284
     47  CG        -1.7690   19.6290   17.8220 C.3    56  LEU56       0.0019
     48  CD1       -3.1300   19.2480   18.4440 C.3    56  LEU56       0.0001
     49  CD2       -1.6800   21.1000   17.4670 C.3    56  LEU56       0.0001
     50  N          3.0370   18.5340   18.7620 N.am   57  GLN57      -0.1966
     51  CA         4.3100   18.7150   19.4410 C.3    57  GLN57       0.1733
     52  C          4.1740   18.8510   20.9540 C.2    57  GLN57       0.2616
     53  O          4.5560   19.8410   21.6000 O.2    57  GLN57      -0.2715
     54  CB         4.9760   19.9520   18.8450 C.3    57  GLN57       0.0408
     55  CG         5.6240   19.8140   17.4910 C.3    57  GLN57       0.0908
     56  CD         6.7180   18.7810   17.4460 C.2    57  GLN57       0.2608
     57  OE1        7.9080   19.0770   17.6420 O.2    57  GLN57      -0.2717
     58  NE2        6.3210   17.5480   17.1940 N.am   57  GLN57      -0.0878
     59  N          3.5840   17.8120   21.5120 N.am   58  ILE58      -0.1963
     60  CA         3.3020   17.7760   22.9360 C.3    58  ILE58       0.1727
     61  C          4.5920   17.3360   23.5820 C.2    58  ILE58       0.2616
     62  O          5.2650   16.3960   23.1130 O.2    58  ILE58      -0.2715
     63  CB         2.0830   16.8810   23.1950 C.3    58  ILE58       0.0290
     64  CG1        0.8410   17.5990   22.6520 C.3    58  ILE58       0.0022
     65  CG2        1.9620   16.5270   24.6660 C.3    58  ILE58       0.0023
     66  CD1       -0.4600   16.8400   22.7620 C.3    58  ILE58       0.0001
     67  N          4.8890   17.9950   24.6960 N.am   59  ASN59      -0.1972
     68  CA         6.2270   17.9180   25.2130 C.3    59  ASN59       0.1688
     69  C          6.2810   17.0770   26.4400 C.2    59  ASN59       0.2292
     70  O          5.3420   17.0520   27.2420 O.2    59  ASN59      -0.2864
     71  CB         6.8170   19.3510   25.3320 C.3    59  ASN59       0.1181
     72  CG         6.9690   19.8060   26.7450 C.2    59  ASN59       0.2629
     73  OD1        8.0840   19.9590   27.2290 O.2    59  ASN59      -0.2716
     74  ND2        5.8530   20.0200   27.4290 N.am   59  ASN59      -0.0877
     75  N          5.8610   17.8810   30.6490 N.3    62  TRP62      -0.1227
     76  CA         4.6380   17.9300   31.4130 C.3    62  TRP62       0.1737
     77  C          3.5690   16.9190   31.0610 C.2    62  TRP62       0.2595
     78  O          2.8560   16.4820   31.9570 O.2    62  TRP62      -0.2718
     79  CB         3.9870   19.3050   31.2260 C.3    62  TRP62       0.0564
     80  CG         4.8670   20.3770   31.6160 C.ar   62  TRP62       0.0003
     81  CD1        5.6300   21.1480   30.7890 C.ar   62  TRP62       0.0946
     82  CD2        5.1400   20.8070   32.9490 C.ar   62  TRP62       0.0152
     83  NE1        6.3650   22.0420   31.5240 N.ar   62  TRP62      -0.2442
     84  CE2        6.0780   21.8640   32.8520 C.ar   62  TRP62       0.0810
     85  CE3        4.6770   20.4100   34.2170 C.ar   62  TRP62       0.0012
     86  CZ2        6.5680   22.5320   33.9670 C.ar   62  TRP62       0.0191
     87  CZ3        5.1640   21.0750   35.3380 C.ar   62  TRP62       0.0001
     88  CH2        6.1040   22.1330   35.2010 C.ar   62  TRP62       0.0015
     89  N          3.5110   16.5330   29.7800 N.am   63  TRP63      -0.1976
     90  CA         2.3180   15.8650   29.2320 C.3    63  TRP63       0.1640
     91  C          2.3330   14.3950   28.9400 C.2    63  TRP63       0.2290
     92  O          1.3160   13.7620   29.1110 O.2    63  TRP63      -0.2864
     93  CB         1.8640   16.6480   27.9570 C.3    63  TRP63       0.0576
     94  CG         1.6710   18.0950   28.3090 C.ar   63  TRP63       0.0006
     95  CD1        2.4700   19.1360   27.9490 C.ar   63  TRP63       0.0946
     96  CD2        0.6750   18.6430   29.2080 C.ar   63  TRP63       0.0152
     97  NE1        2.0440   20.2980   28.5690 N.ar   63  TRP63      -0.2442
     98  CE2        0.9400   20.0290   29.3340 C.ar   63  TRP63       0.0810
     99  CE3       -0.4170   18.1010   29.8990 C.ar   63  TRP63       0.0012
    100  CZ2        0.1550   20.8900   30.1310 C.ar   63  TRP63       0.0191
    101  CZ3       -1.2050   18.9620   30.6920 C.ar   63  TRP63       0.0001
    102  CH2       -0.9110   20.3420   30.7880 C.ar   63  TRP63       0.0015
    103  N         -3.9550   20.3710   27.6640 N.3    98  ILE98      -0.1245
    104  CA        -2.9820   21.4640   27.5770 C.3    98  ILE98       0.1561
    105  C         -3.6650   22.8300   27.4140 C.2    98  ILE98       0.2260
    106  O         -3.3430   23.7940   28.1140 O.2    98  ILE98      -0.2867
    107  CB        -2.0070   21.1630   26.3960 C.3    98  ILE98       0.0252
    108  CG1       -1.3090   19.8060   26.6130 C.3    98  ILE98       0.0019
    109  CG2       -0.9930   22.2820   26.1610 C.3    98  ILE98       0.0019
    110  CD1       -0.3540   19.4610   25.4930 C.3    98  ILE98       0.0001
    111  N          0.0020   28.1420   25.1530 N.3   107  ALA107     -0.1231
    112  CA         0.8600   26.9710   25.5100 C.3   107  ALA107      0.1694
    113  C          1.7490   26.5440   24.3200 C.2   107  ALA107      0.2592
    114  O          2.8690   26.1200   24.4880 O.2   107  ALA107     -0.2718
    115  CB        -0.0110   25.8140   25.9000 C.3   107  ALA107      0.0304
    116  N          1.1920   26.6040   23.1220 N.am  108  TRP108     -0.1962
    117  CA         1.9550   26.3970   21.8820 C.3   108  TRP108      0.1771
    118  C          2.5800   27.7330   21.4060 C.2   108  TRP108      0.2619
    119  O          1.9710   28.5600   20.6890 O.2   108  TRP108     -0.2715
    120  CB         1.0270   25.8500   20.8260 C.3   108  TRP108      0.0590
    121  CG         0.5340   24.4860   21.1140 C.ar  108  TRP108      0.0006
    122  CD1        1.1260   23.3370   20.7420 C.ar  108  TRP108      0.0946
    123  CD2       -0.6830   24.1070   21.8060 C.ar  108  TRP108      0.0152
    124  NE1        0.3640   22.2500   21.1300 N.ar  108  TRP108     -0.2442
    125  CE2       -0.7500   22.6970   21.7940 C.ar  108  TRP108      0.0810
    126  CE3       -1.7070   24.8180   22.4440 C.ar  108  TRP108      0.0012
    127  CZ2       -1.8200   21.9780   22.3870 C.ar  108  TRP108      0.0191
    128  CZ3       -2.7690   24.1000   23.0430 C.ar  108  TRP108      0.0001
    129  CH2       -2.8070   22.7020   23.0110 C.ar  108  TRP108      0.0015
    130  N          3.8330   27.9270   21.7900 N.am  109  VAL109     -0.1963
    131  CA         4.5160   29.1760   21.4620 C.3   109  VAL109      0.1727
    132  C          4.4400   29.4730   19.9650 C.2   109  VAL109      0.2616
    133  O          4.4060   30.6230   19.5730 O.2   109  VAL109     -0.2715
    134  CB         5.9650   29.1480   22.0430 C.3   109  VAL109      0.0290
    135  CG1        6.9000   30.1070   21.3350 C.3   109  VAL109      0.0023
    136  CG2        5.9170   29.4700   23.5580 C.3   109  VAL109      0.0023
    137  N          4.4150   28.4530   19.1160 N.am  110  ALA110     -0.1977
    138  CA         4.2170   28.6870   17.6630 C.3   110  ALA110      0.1597
    139  C          2.8020   29.2090   17.2790 C.2   110  ALA110      0.2287
    140  O          2.6100   29.8870   16.2450 O.2   110  ALA110     -0.2864
    141  CB         4.4980   27.4240   16.9060 C.3   110  ALA110      0.0319
@<TRIPOS>BOND
     1     1     2    1
     2     3     4    2
     3     3     2    1
     4     2     5    1
     5    17    15   am
     6    16    15    2
     7     5     6    1
     8   140   139    2
     9    15    14    1
    10   141   138    1
    11     6     7    1
    12    58    56   am
    13    42    43    1
    14   139   138    1
    15    56    55    1
    16    56    57    2
    17    49    47    1
    18    55    54    1
    19     8     7   ar
    20   138   137    1
    21    47    48    1
    22    47    46    1
    23    14    11    1
    24     7     9   ar
    25    43    46    1
    26    43    44    1
    27    10    11    1
    28    11    12    1
    29    50    44   am
    30    50    51    1
    31    54    51    1
    32    44    45    2
    33   137   132   am
    34    51    52    1
    35   133   132    2
    36    12    13    2
    37    37    36    2
    38   132   131    1
    39    36    35    1
    40   119   118    2
    41   122   121   ar
    42   122   124   ar
    43   120   121    1
    44   120   117    1
    45    38    35    1
    46    38    39    1
    47    52    59   am
    48    52    53    2
    49   121   123   ar
    50   124   125   ar
    51    41    39   ar
    52   135   134    1
    53   118   130   am
    54   118   117    1
    55   131   130    1
    56   131   134    1
    57    59    60    1
    58    35    34    1
    59    39    40   ar
    60   125   123   ar
    61   125   127   ar
    62   123   126   ar
    63   117   116    1
    64    24    23    2
    65   134   136    1
    66   127   129   ar
    67   126   128   ar
    68    64    66    1
    69    64    63    1
    70    18    19    1
    71    60    63    1
    72    60    61    1
    73   129   128   ar
    74    62    61    2
    75    19    20    1
    76    19    22    1
    77   116   113   am
    78    23    25   am
    79    23    22    1
    80    63    65    1
    81    61    67   am
    82    20    21    2
    83   113   114    2
    84   113   112    1
    85    67    68    1
    86   111   112    1
    87    68    71    1
    88    68    69    1
    89    71    72    1
    90   110   108    1
    91   112   115    1
    92   109   107    1
    93   107   108    1
    94   107   104    1
    95    69    70    2
    96    72    73    2
    97    72    74   am
    98    26    27    1
    99    32    31   ar
   100   105   104    1
   101   105   106    2
   102   104   103    1
   103    95    94   ar
   104    95    97   ar
   105    93    94    1
   106    93    90    1
   107    27    28    1
   108    27    30    1
   109    28    29    2
   110    94    96   ar
   111    31    30    1
   112    31    33   ar
   113    97    98   ar
   114    91    92    2
   115    91    90    1
   116    96    98   ar
   117    96    99   ar
   118    90    89    1
   119    98   100   ar
   120    89    77   am
   121    99   101   ar
   122   100   102   ar
   123    75    76    1
   124   101   102   ar
   125    81    83   ar
   126    81    80   ar
   127    77    76    1
   128    77    78    2
   129    79    76    1
   130    79    80    1
   131    83    84   ar
   132    80    82   ar
   133    84    82   ar
   134    84    86   ar
   135    82    85   ar
   136    86    88   ar
   137    85    87   ar
   138    88    87   ar
