@<TRIPOS>MOLECULE
tmp/4kxjA00.pdb
 166 168 0 0 0
SMALL
GASTEIGER

@<TRIPOS>ATOM
      1  N         60.6750   49.7980   -5.0600 N.3     1  GLU1       -0.1231
      2  CA        60.2050   49.4370   -3.6990 C.3     1  GLU1        0.1699
      3  C         61.0510   48.3210   -3.0900 C.2     1  GLU1        0.2592
      4  O         62.1890   48.0470   -3.5000 O.2     1  GLU1       -0.2718
      5  CB        58.7300   48.9870   -3.7430 C.3     1  GLU1        0.0402
      6  CG        58.5190   47.5250   -4.1900 C.3     1  GLU1        0.1161
      7  CD        57.2180   46.9120   -3.6730 C.2     1  GLU1        0.3649
      8  OE1       57.0250   45.6910   -3.8650 O.co2   1  GLU1       -0.2457
      9  OE2       56.3920   47.6390   -3.0770 O.co2   1  GLU1       -0.2457
     10  N         60.4420   47.6710   -2.1100 N.am    2  PHE2       -0.1962
     11  CA        61.0400   46.5770   -1.3690 C.3     2  PHE2        0.1771
     12  C         60.0150   45.4610   -1.1370 C.2     2  PHE2        0.2620
     13  O         58.8070   45.7020   -1.1340 O.2     2  PHE2       -0.2715
     14  CB        61.4160   47.1070    0.0000 C.3     2  PHE2        0.0574
     15  CG        60.2350   47.6880    0.7340 C.ar    2  PHE2       -0.0200
     16  CD1       59.3700   46.8560    1.4430 C.ar    2  PHE2       -0.0042
     17  CD2       59.9700   49.0560    0.6980 C.ar    2  PHE2       -0.0042
     18  CE1       58.2620   47.3620    2.1020 C.ar    2  PHE2       -0.0003
     19  CE2       58.8540   49.5790    1.3560 C.ar    2  PHE2       -0.0003
     20  CZ        57.9980   48.7270    2.0590 C.ar    2  PHE2       -0.0000
     21  N         60.5270   44.2500   -0.9310 N.am    3  ASN3       -0.1958
     22  CA        59.7170   43.1020   -0.5500 C.3     3  ASN3        0.1819
     23  C         60.2900   42.5020    0.7730 C.2     3  ASN3        0.2621
     24  O         59.9860   41.3750    1.1490 O.2     3  ASN3       -0.2715
     25  CB        59.6540   42.0810   -1.6270 C.3     3  ASN3        0.1195
     26  CG        60.9870   41.4380   -1.8600 C.2     3  ASN3        0.2630
     27  OD1       62.0320   42.0330   -1.5920 O.2     3  ASN3       -0.2716
     28  ND2       60.9680   40.2180   -2.3710 N.am    3  ASN3       -0.0877
     29  N         61.2080   43.2500    1.3820 N.am    4  VAL4       -0.1977
     30  CA        61.6760   42.9720    2.7450 C.3     4  VAL4        0.1596
     31  C         61.6060   44.3920    3.3360 C.2     4  VAL4        0.2287
     32  O         62.1250   45.3410    2.7470 O.2     4  VAL4       -0.2864
     33  CB        63.1170   42.4820    2.8850 C.3     4  VAL4        0.0276
     34  CG1       63.5770   42.6300    4.3360 C.3     4  VAL4        0.0022
     35  CG2       63.2270   41.0350    2.4580 C.3     4  VAL4        0.0022
     36  N         62.4230   47.6360    4.9970 N.3     6  PRO6       -0.2102
     37  CA        63.6560   48.3710    5.2400 C.3     6  PRO6        0.1504
     38  C         63.6470   48.9970    6.6190 C.2     6  PRO6        0.2576
     39  O         62.6010   49.0650    7.2580 O.2     6  PRO6       -0.2718
     40  CB        63.5650   49.5280    4.2270 C.3     6  PRO6        0.0282
     41  CG        62.0960   49.8200    4.1610 C.3     6  PRO6        0.0208
     42  CD        61.4330   48.4560    4.2600 C.3     6  PRO6        0.0893
     43  N         64.8460   49.3840    7.0570 N.am    7  TYR7       -0.1963
     44  CA        64.9330   50.2920    8.1940 C.3     7  TYR7        0.1771
     45  C         64.4330   51.5980    7.4990 C.2     7  TYR7        0.2620
     46  O         64.7530   51.8440    6.3390 O.2     7  TYR7       -0.2715
     47  CB        66.3840   50.4540    8.6330 C.3     7  TYR7        0.0574
     48  CG        66.8870   49.2120    9.3340 C.ar    7  TYR7       -0.0198
     49  CD1       67.4270   48.1530    8.6100 C.ar    7  TYR7       -0.0009
     50  CD2       66.7870   49.0850   10.7170 C.ar    7  TYR7       -0.0009
     51  CE1       67.8600   47.0090    9.2420 C.ar    7  TYR7        0.0417
     52  CE2       67.2180   47.9380   11.3690 C.ar    7  TYR7        0.0417
     53  CZ        67.7560   46.9020   10.6250 C.ar    7  TYR7        0.1957
     54  OH        68.1780   45.7410   11.2510 O.3     7  TYR7       -0.2866
     55  N         63.5920   52.3830    8.1730 N.am    8  TYR8       -0.1960
     56  CA        63.1130   53.6090    7.5380 C.3     8  TYR8        0.1771
     57  C         63.9440   54.8260    7.9520 C.2     8  TYR8        0.2620
     58  O         64.2660   55.0000    9.1370 O.2     8  TYR8       -0.2715
     59  CB        61.6040   53.8790    7.8280 C.3     8  TYR8        0.0574
     60  CG        60.6390   53.1200    6.9240 C.ar    8  TYR8       -0.0198
     61  CD1       60.1630   51.8560    7.2910 C.ar    8  TYR8       -0.0009
     62  CD2       60.2180   53.6490    5.6980 C.ar    8  TYR8       -0.0009
     63  CE1       59.2930   51.1280    6.4750 C.ar    8  TYR8        0.0417
     64  CE2       59.3370   52.9230    4.8580 C.ar    8  TYR8        0.0417
     65  CZ        58.8790   51.6530    5.2600 C.ar    8  TYR8        0.1957
     66  OH        58.0250   50.9000    4.4640 O.3     8  TYR8       -0.2866
     67  N         64.3370   55.6100    6.9430 N.am    9  SER9       -0.1950
     68  CA        65.0780   56.8720    7.0980 C.3     9  SER9        0.1924
     69  C         64.1940   58.0240    7.6350 C.2     9  SER9        0.2314
     70  O         63.0060   58.1040    7.3290 O.2     9  SER9       -0.2863
     71  CB        65.6000   57.3380    5.7200 C.3     9  SER9        0.2116
     72  OG        66.3040   58.5630    5.7950 O.3     9  SER9       -0.2180
     73  N         64.4150   60.7970    6.5620 N.3    11  PHE11      -0.1241
     74  CA        64.3490   61.7840    5.4780 C.3    11  PHE11       0.1605
     75  C         63.9900   61.2470    4.1230 C.2    11  PHE11       0.2264
     76  O         64.0230   60.0430    3.8920 O.2    11  PHE11      -0.2867
     77  CB        65.7470   62.4540    5.3530 C.3    11  PHE11       0.0534
     78  CG        66.2560   63.0610    6.6260 C.ar   11  PHE11      -0.0203
     79  CD1       65.9410   64.3680    6.9650 C.ar   11  PHE11      -0.0042
     80  CD2       67.0370   62.3320    7.4910 C.ar   11  PHE11      -0.0042
     81  CE1       66.3970   64.9370    8.1280 C.ar   11  PHE11      -0.0003
     82  CE2       67.4930   62.9070    8.6600 C.ar   11  PHE11      -0.0003
     83  CZ        67.1680   64.2220    8.9710 C.ar   11  PHE11      -0.0000
     84  N         72.7300   55.6710    2.3510 N.3    47  TYR47      -0.1227
     85  CA        72.8020   54.2560    2.0180 C.3    47  TYR47       0.1736
     86  C         72.1010   53.9450    0.7050 C.2    47  TYR47       0.2595
     87  O         70.9510   54.3270    0.4790 O.2    47  TYR47      -0.2718
     88  CB        72.2550   53.4740    3.2030 C.3    47  TYR47       0.0548
     89  CG        71.8870   52.0930    2.8180 C.ar   47  TYR47      -0.0200
     90  CD1       72.7720   51.0300    2.9890 C.ar   47  TYR47      -0.0009
     91  CD2       70.6400   51.8390    2.2570 C.ar   47  TYR47      -0.0009
     92  CE1       72.4150   49.7570    2.6080 C.ar   47  TYR47       0.0417
     93  CE2       70.2860   50.5910    1.8730 C.ar   47  TYR47       0.0417
     94  CZ        71.1660   49.5490    2.0470 C.ar   47  TYR47       0.1957
     95  OH        70.7570   48.3040    1.6600 O.3    47  TYR47      -0.2866
     96  N         72.8130   53.2250   -0.1530 N.am   48  ARG48      -0.1966
     97  CA        72.3190   53.0110   -1.4920 C.3    48  ARG48       0.1729
     98  C         71.3350   51.8580   -1.6330 C.2    48  ARG48       0.2616
     99  O         71.5760   50.7280   -1.1880 O.2    48  ARG48      -0.2715
    100  CB        73.5480   52.8830   -2.4400 C.3    48  ARG48       0.0348
    101  CG        73.1560   52.8550   -3.9060 C.3    48  ARG48       0.0492
    102  CD        74.2810   52.4210   -4.8130 C.3    48  ARG48       0.2205
    103  NE        75.0780   51.3380   -4.2400 N.pl3  48  ARG48      -0.0865
    104  CZ        76.3480   51.1050   -4.5630 C.cat  48  ARG48       0.5346
    105  NH1       76.9670   51.8810   -5.4460 N.pl3  48  ARG48       0.1354
    106  NH2       77.0260   50.1230   -3.9760 N.pl3  48  ARG48       0.1354
    107  N         70.1710   52.1930   -2.1750 N.am   49  HIS49      -0.1959
    108  CA        69.1130   51.2330   -2.4500 C.3    49  HIS49       0.1787
    109  C         69.2270   50.9970   -3.9420 C.2    49  HIS49       0.2620
    110  O         68.9290   51.9060   -4.7290 O.2    49  HIS49      -0.2715
    111  CB        67.7480   51.8400   -2.1240 C.3    49  HIS49       0.0785
    112  CG        66.5790   51.1020   -2.7050 C.ar   49  HIS49       0.0821
    113  ND1       65.2950   51.6110   -2.6750 N.ar   49  HIS49      -0.2267
    114  CD2       66.4850   49.8950   -3.3160 C.ar   49  HIS49       0.1154
    115  CE1       64.4620   50.7500   -3.2380 C.ar   49  HIS49       0.1986
    116  NE2       65.1580   49.7000   -3.6350 N.ar   49  HIS49      -0.2212
    117  N         69.6880   49.7960   -4.3150 N.am   50  ASN50      -0.1972
    118  CA        69.8240   49.4140   -5.7370 C.3    50  ASN50       0.1688
    119  C         68.4280   48.9520   -6.1190 C.2    50  ASN50       0.2292
    120  O         67.8110   48.1820   -5.3900 O.2    50  ASN50      -0.2864
    121  CB        70.9200   48.3730   -5.9390 C.3    50  ASN50       0.1181
    122  CG        72.3400   48.9810   -5.7660 C.2    50  ASN50       0.2629
    123  OD1       72.6570   50.0470   -6.3260 O.2    50  ASN50      -0.2716
    124  ND2       73.1920   48.2970   -4.9940 N.am   50  ASN50      -0.0877
    125  N         69.4590   56.8160    0.9570 N.3    68  TYR68      -0.1241
    126  CA        68.6650   57.2230    2.1110 C.3    68  TYR68       0.1605
    127  C         69.6030   57.4790    3.2660 C.2    68  TYR68       0.2264
    128  O         70.5540   56.7200    3.4470 O.2    68  TYR68      -0.2867
    129  CB        67.6750   56.1110    2.4960 C.3    68  TYR68       0.0534
    130  CG        66.4870   55.9550    1.5750 C.ar   68  TYR68      -0.0201
    131  CD1       65.3590   56.7640    1.7060 C.ar   68  TYR68      -0.0009
    132  CD2       66.4880   54.9820    0.5810 C.ar   68  TYR68      -0.0009
    133  CE1       64.2580   56.6010    0.8690 C.ar   68  TYR68       0.0417
    134  CE2       65.4070   54.8040   -0.2510 C.ar   68  TYR68       0.0417
    135  CZ        64.2880   55.6150   -0.1100 C.ar   68  TYR68       0.1957
    136  OH        63.2120   55.4290   -0.9550 O.3    68  TYR68      -0.2866
    137  N         70.8100   57.8040    7.2540 N.3    70  TYR70      -0.1241
    138  CA        70.6770   57.1470    8.5510 C.3    70  TYR70       0.1605
    139  C         71.6900   57.7390    9.5210 C.2    70  TYR70       0.2264
    140  O         72.8600   57.9090    9.1820 O.2    70  TYR70      -0.2867
    141  CB        70.9380   55.6150    8.3960 C.3    70  TYR70       0.0534
    142  CG        69.8610   54.9430    7.5620 C.ar   70  TYR70      -0.0201
    143  CD1       68.6110   54.6680    8.1180 C.ar   70  TYR70      -0.0009
    144  CD2       70.0560   54.6680    6.2090 C.ar   70  TYR70      -0.0009
    145  CE1       67.5920   54.1570    7.3730 C.ar   70  TYR70       0.0417
    146  CE2       69.0310   54.1530    5.4520 C.ar   70  TYR70       0.0417
    147  CZ        67.7990   53.9000    6.0490 C.ar   70  TYR70       0.1957
    148  OH        66.7530   53.3830    5.3330 O.3    70  TYR70      -0.2866
    149  N         70.5510   50.0080    8.3010 N.3    76  PRO76      -0.2116
    150  CA        71.1290   48.7240    7.9380 C.3    76  PRO76       0.1372
    151  C         72.5970   48.5400    8.2290 C.2    76  PRO76       0.2244
    152  O         73.1030   47.4280    8.1140 O.2    76  PRO76      -0.2868
    153  CB        70.7310   48.5540    6.4780 C.3    76  PRO76       0.0268
    154  CG        70.6190   49.9360    5.9630 C.3    76  PRO76       0.0207
    155  CD        70.1830   50.8040    7.1180 C.3    76  PRO76       0.0892
    156  N         62.4660   56.0020   12.7960 N.3   108  ARG108     -0.1245
    157  CA        61.2300   56.6820   12.4880 C.3   108  ARG108      0.1563
    158  C         60.1000   55.7460   12.1990 C.2   108  ARG108      0.2260
    159  O         60.0900   55.1020   11.1520 O.2   108  ARG108     -0.2867
    160  CB        61.4340   57.6060   11.2500 C.3   108  ARG108      0.0307
    161  CG        60.1390   58.1470   10.5980 C.3   108  ARG108      0.0489
    162  CD        60.3840   58.6130    9.1800 C.3   108  ARG108      0.2205
    163  NE        59.2520   58.2350    8.3510 N.pl3 108  ARG108     -0.0865
    164  CZ        59.3120   57.8790    7.0700 C.cat 108  ARG108      0.5346
    165  NH1       58.1960   57.5550    6.4520 N.pl3 108  ARG108      0.1354
    166  NH2       60.4510   57.8390    6.4020 N.pl3 108  ARG108      0.1354
@<TRIPOS>BOND
     1   123   122    2
     2   119   118    1
     3   119   120    2
     4   121   122    1
     5   121   118    1
     6   122   124   am
     7   118   117    1
     8   105   104    1
     9     1     2    1
    10   102   103    1
    11   102   101    1
    12   110   109    2
    13   104   103    2
    14   104   106    1
    15   117   109   am
    16     6     5    1
    17     6     7    1
    18   109   108    1
    19   101   100    1
    20     8     7   ar
    21     5     2    1
    22     2     3    1
    23     7     9   ar
    24   116   114   ar
    25   116   115   ar
    26     4     3    2
    27   114   112   ar
    28   115   113   ar
    29     3    10   am
    30   112   113   ar
    31   112   111    1
    32   108   107    1
    33   108   111    1
    34   100    97    1
    35    28    26   am
    36   107    98   am
    37    10    11    1
    38    26    25    1
    39    26    27    2
    40    98    97    1
    41    98    99    2
    42    25    22    1
    43    97    96    1
    44    11    12    1
    45    11    14    1
    46    12    13    2
    47    12    21   am
    48   136   135    1
    49    21    22    1
    50    22    23    1
    51   134   135   ar
    52   134   132   ar
    53    96    86   am
    54   135   133   ar
    55    14    15    1
    56    87    86    2
    57   132   130   ar
    58    17    15   ar
    59    17    19   ar
    60    86    85    1
    61    15    16   ar
    62    23    24    2
    63    23    29   am
    64   133   131   ar
    65   125   126    1
    66    19    20   ar
    67    29    30    1
    68    16    18   ar
    69   130   131   ar
    70   130   129    1
    71    95    94    1
    72    93    94   ar
    73    93    91   ar
    74    85    84    1
    75    85    88    1
    76    94    92   ar
    77    20    18   ar
    78   126   129    1
    79   126   127    1
    80    91    89   ar
    81    35    33    1
    82    92    90   ar
    83    30    33    1
    84    30    31    1
    85    32    31    2
    86    89    90   ar
    87    89    88    1
    88    33    34    1
    89   127   128    2
    90    76    75    2
    91    75    74    1
    92    41    40    1
    93    41    42    1
    94    40    37    1
    95    42    36    1
    96    66    65    1
    97    64    65   ar
    98    64    62   ar
    99    36    37    1
   100    37    38    1
   101    65    63   ar
   102   148   147    1
   103    77    74    1
   104    77    78    1
   105   146   147   ar
   106   146   144   ar
   107    74    73    1
   108    62    60   ar
   109    71    72    1
   110    71    68    1
   111   154   153    1
   112   154   155    1
   113   147   145   ar
   114   144   142   ar
   115    46    45    2
   116   166   164    1
   117   165   164    1
   118    63    61   ar
   119   153   150    1
   120    38    43   am
   121    38    39    2
   122    78    79   ar
   123    78    80   ar
   124    60    61   ar
   125    60    59    1
   126    67    68    1
   127    67    57   am
   128    79    81   ar
   129    43    44    1
   130   164   163    2
   131    68    69    1
   132   155   149    1
   133   137   138    1
   134    70    69    2
   135   145   143   ar
   136    80    82   ar
   137    45    55   am
   138    45    44    1
   139    56    59    1
   140    56    57    1
   141    56    55    1
   142   142   143   ar
   143   142   141    1
   144   150   151    1
   145   150   149    1
   146    57    58    2
   147   152   151    2
   148    81    83   ar
   149    44    47    1
   150   163   162    1
   151   141   138    1
   152   138   139    1
   153    49    51   ar
   154    49    48   ar
   155    47    48    1
   156    82    83   ar
   157   162   161    1
   158   140   139    2
   159    51    53   ar
   160    48    50   ar
   161   161   160    1
   162    53    54    1
   163    53    52   ar
   164    50    52   ar
   165   159   158    2
   166   160   157    1
   167   158   157    1
   168   157   156    1
