@<TRIPOS>MOLECULE
tmp/4kxmA00.pdb
 143 140 0 0 0
SMALL
GASTEIGER

@<TRIPOS>ATOM
      1  N         14.6190   -4.0350   32.2170 N.3     4  TYR4       -0.1227
      2  CA        13.5240   -3.5510   33.0290 C.3     4  TYR4        0.1736
      3  C         12.4010   -3.0830   32.0930 C.2     4  TYR4        0.2595
      4  O         12.5880   -2.1360   31.3180 O.2     4  TYR4       -0.2718
      5  CB        14.0050   -2.3890   33.9010 C.3     4  TYR4        0.0548
      6  CG        13.0640   -1.9900   35.0190 C.ar    4  TYR4       -0.0200
      7  CD1       13.3140   -2.3820   36.3330 C.ar    4  TYR4       -0.0009
      8  CD2       11.9330   -1.2080   34.7680 C.ar    4  TYR4       -0.0009
      9  CE1       12.4670   -2.0100   37.3700 C.ar    4  TYR4        0.0417
     10  CE2       11.0750   -0.8350   35.8000 C.ar    4  TYR4        0.0417
     11  CZ        11.3510   -1.2450   37.0980 C.ar    4  TYR4        0.1957
     12  OH        10.5190   -0.8780   38.1290 O.3     4  TYR4       -0.2866
     13  N         11.2470   -3.7420   32.1550 N.am    5  PHE5       -0.1962
     14  CA        10.0910   -3.3020   31.3730 C.3     5  PHE5        0.1771
     15  C          9.0760   -2.5130   32.2120 C.2     5  PHE5        0.2620
     16  O          8.6480   -2.9710   33.2700 O.2     5  PHE5       -0.2715
     17  CB         9.4000   -4.4700   30.6470 C.3     5  PHE5        0.0574
     18  CG         8.1230   -4.0640   29.9530 C.ar    5  PHE5       -0.0200
     19  CD1        6.8920   -4.5210   30.4110 C.ar    5  PHE5       -0.0042
     20  CD2        8.1530   -3.1850   28.8690 C.ar    5  PHE5       -0.0042
     21  CE1        5.7090   -4.1220   29.7890 C.ar    5  PHE5       -0.0003
     22  CE2        6.9760   -2.7740   28.2480 C.ar    5  PHE5       -0.0003
     23  CZ         5.7520   -3.2490   28.7030 C.ar    5  PHE5       -0.0000
     24  N          8.7120   -1.3280   31.7280 N.am    6  CYS6       -0.1954
     25  CA         7.6940   -0.4830   32.3720 C.3     6  CYS6        0.1843
     26  C          6.3760   -0.5300   31.5980 C.2     6  CYS6        0.2626
     27  O          6.3690   -0.4440   30.3670 O.2     6  CYS6       -0.2714
     28  CB         8.1530    0.9770   32.4450 C.3     6  CYS6        0.0997
     29  SG         9.8260    1.2240   33.0170 S.3     6  CYS6       -0.0797
     30  N          5.2660   -0.6500   32.3240 N.am    7  GLY7       -0.1954
     31  CA         3.9400   -0.6040   31.7170 C.3     7  GLY7        0.1869
     32  C          2.9180   -0.2990   32.7840 C.2     7  GLY7        0.2309
     33  O          3.0800   -0.7050   33.9340 O.2     7  GLY7       -0.2863
     34  N         -0.0120   -0.1380   35.4200 N.3     9  ILE9       -0.1231
     35  CA        -0.7760   -1.0930   36.2400 C.3     9  ILE9        0.1692
     36  C         -1.9660   -0.3850   36.9000 C.2     9  ILE9        0.2592
     37  O         -3.0970   -0.5470   36.4610 O.2     9  ILE9       -0.2718
     38  CB         0.1130   -1.8790   37.2560 C.3     9  ILE9        0.0266
     39  CG1        1.1820   -2.6910   36.4930 C.3     9  ILE9        0.0019
     40  CG2       -0.7570   -2.7950   38.1440 C.3     9  ILE9        0.0020
     41  CD1        2.2000   -3.4660   37.3380 C.3     9  ILE9        0.0001
     42  N         -1.7160    0.4290   37.9190 N.am   10  ARG10      -0.1966
     43  CA        -2.8100    1.1890   38.5330 C.3    10  ARG10       0.1729
     44  C         -3.2260    2.4270   37.7130 C.2    10  ARG10       0.2616
     45  O         -4.2220    3.0600   38.0210 O.2    10  ARG10      -0.2715
     46  CB        -2.4950    1.5260   39.9930 C.3    10  ARG10       0.0348
     47  CG        -2.6160    0.3110   40.9050 C.3    10  ARG10       0.0492
     48  CD        -2.2070    0.6260   42.3220 C.3    10  ARG10       0.2205
     49  NE        -2.0700   -0.5810   43.1310 N.pl3  10  ARG10      -0.0865
     50  CZ        -1.4470   -0.6300   44.3060 C.cat  10  ARG10       0.5346
     51  NH1       -0.9110    0.4650   44.8290 N.pl3  10  ARG10       0.1354
     52  NH2       -1.3640   -1.7800   44.9690 N.pl3  10  ARG10       0.1354
     53  N         -2.4700    2.7390   36.6600 N.am   11  GLY11      -0.1955
     54  CA        -2.8850    3.7240   35.6660 C.3    11  GLY11       0.1869
     55  C         -3.8960    3.1480   34.6800 C.2    11  GLY11       0.2309
     56  O         -4.4770    3.8840   33.8720 O.2    11  GLY11      -0.2863
     57  N          6.0260   -9.1830   36.2000 N.3    36  HIS36      -0.1226
     58  CA         4.7330   -8.8890   36.8260 C.3    36  HIS36       0.1752
     59  C          3.8630   -7.9320   36.0190 C.2    36  HIS36       0.2595
     60  O          2.6360   -8.0250   36.0800 O.2    36  HIS36      -0.2718
     61  CB         4.9410   -8.3100   38.2260 C.3    36  HIS36       0.0759
     62  CG         5.9550   -7.2080   38.2750 C.ar   36  HIS36       0.0818
     63  ND1        7.1800   -7.3510   38.8910 N.ar   36  HIS36      -0.2268
     64  CD2        5.9330   -5.9510   37.7690 C.ar   36  HIS36       0.1154
     65  CE1        7.8630   -6.2240   38.7750 C.ar   36  HIS36       0.1986
     66  NE2        7.1290   -5.3590   38.0990 N.ar   36  HIS36      -0.2212
     67  N          4.4910   -7.0160   35.2730 N.am   37  VAL37      -0.1980
     68  CA         3.7530   -6.0130   34.4900 C.3    37  VAL37       0.1595
     69  C          2.8120   -6.6790   33.4760 C.2    37  VAL37       0.2287
     70  O          1.7330   -6.1600   33.1830 O.2    37  VAL37      -0.2864
     71  CB         4.6840   -5.0030   33.7600 C.3    37  VAL37       0.0276
     72  CG1        3.8580   -3.9230   33.0760 C.3    37  VAL37       0.0022
     73  CG2        5.6660   -4.3530   34.7240 C.3    37  VAL37       0.0022
     74  N          7.3240   -2.4440   49.9410 N.3    43  PHE43      -0.1227
     75  CA         8.0600   -3.5870   49.4230 C.3    43  PHE43       0.1736
     76  C          8.2490   -3.4720   47.9140 C.2    43  PHE43       0.2595
     77  O          9.3550   -3.6650   47.4100 O.2    43  PHE43      -0.2718
     78  CB         7.3480   -4.9070   49.7720 C.3    43  PHE43       0.0547
     79  CG         8.0800   -6.1370   49.2920 C.ar   43  PHE43      -0.0202
     80  CD1        9.0230   -6.7600   50.1010 C.ar   43  PHE43      -0.0042
     81  CD2        7.8440   -6.6580   48.0220 C.ar   43  PHE43      -0.0042
     82  CE1        9.7190   -7.8850   49.6600 C.ar   43  PHE43      -0.0003
     83  CE2        8.5370   -7.7850   47.5690 C.ar   43  PHE43      -0.0003
     84  CZ         9.4750   -8.4010   48.3970 C.ar   43  PHE43      -0.0000
     85  N          7.1610   -3.1600   47.2060 N.am   44  ILE44      -0.1980
     86  CA         7.1670   -3.0930   45.7470 C.3    44  ILE44       0.1595
     87  C          8.1460   -2.0380   45.2230 C.2    44  ILE44       0.2287
     88  O          8.9200   -2.3090   44.2920 O.2    44  ILE44      -0.2864
     89  CB         5.7390   -2.8600   45.1760 C.3    44  ILE44       0.0276
     90  CG1        4.8560   -4.0910   45.4500 C.3    44  ILE44       0.0022
     91  CG2        5.7980   -2.5280   43.6700 C.3    44  ILE44       0.0022
     92  CD1        3.3700   -3.7740   45.5470 C.3    44  ILE44       0.0001
     93  N         11.7640   -3.3040   45.8510 N.3    47  GLN47      -0.1231
     94  CA        12.0260   -4.4360   44.9620 C.3    47  GLN47       0.1698
     95  C         12.3220   -3.9390   43.5430 C.2    47  GLN47       0.2592
     96  O         13.3240   -4.3190   42.9390 O.2    47  GLN47      -0.2718
     97  CB        10.8190   -5.3770   44.9460 C.3    47  GLN47       0.0381
     98  CG        10.9130   -6.5430   43.9610 C.3    47  GLN47       0.0905
     99  CD         9.5450   -7.1610   43.6600 C.2    47  GLN47       0.2608
    100  OE1        9.2750   -8.3050   44.0260 O.2    47  GLN47      -0.2717
    101  NE2        8.6790   -6.3980   42.9930 N.am   47  GLN47      -0.0878
    102  N         11.4460   -3.0720   43.0440 N.am   48  ASN48      -0.1974
    103  CA        11.5620   -2.5110   41.7090 C.3    48  ASN48       0.1688
    104  C         12.7670   -1.5780   41.5330 C.2    48  ASN48       0.2292
    105  O         13.4100   -1.5940   40.4720 O.2    48  ASN48      -0.2864
    106  CB        10.2660   -1.7960   41.3210 C.3    48  ASN48       0.1181
    107  CG         9.1310   -2.7620   40.9690 C.2    48  ASN48       0.2629
    108  OD1        9.2770   -3.9840   41.0050 O.2    48  ASN48      -0.2716
    109  ND2        7.9890   -2.2010   40.6350 N.am   48  ASN48      -0.0877
    110  N          0.6350    6.7850   33.3390 N.3    66  SER66      -0.1202
    111  CA         0.8940    6.0610   34.5670 C.3    66  SER66       0.2020
    112  C          1.9410    6.7970   35.3800 C.2    66  SER66       0.2619
    113  O          3.0290    7.0960   34.8840 O.2    66  SER66      -0.2717
    114  CB         1.3830    4.6410   34.2460 C.3    66  SER66       0.2103
    115  OG         1.9410    4.0160   35.3860 O.3    66  SER66      -0.2182
    116  N          1.6030    7.0610   36.6340 N.am   67  LEU67      -0.1965
    117  CA         2.5280    7.6360   37.6180 C.3    67  LEU67       0.1728
    118  C          3.7870    6.7880   37.7940 C.2    67  LEU67       0.2617
    119  O          4.8980    7.3210   37.8220 O.2    67  LEU67      -0.2715
    120  CB         1.8170    7.7460   38.9730 C.3    67  LEU67       0.0311
    121  CG         1.1580    9.0070   39.5500 C.3    67  LEU67       0.0022
    122  CD1        1.0180   10.2170   38.6200 C.3    67  LEU67       0.0001
    123  CD2       -0.1800    8.6470   40.1900 C.3    67  LEU67       0.0001
    124  N          3.5930    5.4740   37.9250 N.am   68  GLY68      -0.1940
    125  CA         4.6680    4.5280   38.1870 C.3    68  GLY68       0.2014
    126  C          5.6470    4.3980   37.0390 C.2    68  GLY68       0.2638
    127  O          6.8590    4.3760   37.2560 O.2    68  GLY68      -0.2714
    128  N          5.1150    4.3050   35.8210 N.am   69  VAL69      -0.1977
    129  CA         5.9250    4.2550   34.6060 C.3    69  VAL69       0.1596
    130  C          6.7320    5.5510   34.4780 C.2    69  VAL69       0.2287
    131  O          7.9350    5.5000   34.2310 O.2    69  VAL69      -0.2864
    132  CB         5.0670    4.0320   33.3330 C.3    69  VAL69       0.0276
    133  CG1        5.9290    4.0850   32.0850 C.3    69  VAL69       0.0022
    134  CG2        4.3400    2.7110   33.4040 C.3    69  VAL69       0.0022
    135  N          9.4780    5.4610   37.1430 N.3    72  GLU72      -0.1245
    136  CA        10.5520    4.5460   36.7410 C.3    72  GLU72       0.1567
    137  C         11.4470    5.1700   35.6690 C.2    72  GLU72       0.2260
    138  O         12.6600    5.0040   35.7010 O.2    72  GLU72      -0.2867
    139  CB         9.9810    3.2070   36.2640 C.3    72  GLU72       0.0388
    140  CG         9.4560    2.3350   37.3850 C.3    72  GLU72       0.1160
    141  CD         8.4390    1.3130   36.9260 C.2    72  GLU72       0.3649
    142  OE1        8.3290    0.2640   37.5920 O.co2  72  GLU72      -0.2457
    143  OE2        7.7410    1.5440   35.9120 O.co2  72  GLU72      -0.2457
@<TRIPOS>BOND
     1    22    23   ar
     2    22    20   ar
     3    23    21   ar
     4    20    18   ar
     5    21    19   ar
     6    18    19   ar
     7    18    17    1
     8    27    26    2
     9    17    14    1
    10     4     3    2
    11    14    13    1
    12    14    15    1
    13    26    30   am
    14    26    25    1
    15    31    30    1
    16    31    32    1
    17    24    15   am
    18    24    25    1
    19   133   132    1
    20     3    13   am
    21     3     2    1
    22    15    16    2
    23     1     2    1
    24    25    28    1
    25    28    29    1
    26    32    33    2
    27     2     5    1
    28    72    71    1
    29    70    69    2
    30   132   134    1
    31   132   129    1
    32   110   111    1
    33    69    68    1
    34    71    68    1
    35    71    73    1
    36    56    55    2
    37     5     6    1
    38   131   130    2
    39   114   111    1
    40   114   115    1
    41   130   129    1
    42    68    67    1
    43   111   112    1
    44   129   128    1
    45    55    54    1
    46     8     6   ar
    47     8    10   ar
    48   113   112    2
    49     6     7   ar
    50    67    59   am
    51   112   116   am
    52    34    35    1
    53    54    53    1
    54   137   138    2
    55   137   136    1
    56    10    11   ar
    57   128   126   am
    58   143   141   ar
    59    59    60    2
    60    59    58    1
    61    57    58    1
    62    35    36    1
    63    35    38    1
    64   139   136    1
    65   139   140    1
    66     7     9   ar
    67    37    36    2
    68    39    38    1
    69    39    41    1
    70   116   117    1
    71    53    44   am
    72   136   135    1
    73    58    61    1
    74    36    42   am
    75   141   140    1
    76   141   142   ar
    77   126   127    2
    78   126   125    1
    79    11     9   ar
    80    11    12    1
    81    38    40    1
    82   117   118    1
    83   117   120    1
    84    44    45    2
    85    44    43    1
    86    64    66   ar
    87    64    62   ar
    88   118   119    2
    89   118   124   am
    90    42    43    1
    91   124   125    1
    92    66    65   ar
    93    61    62    1
    94    62    63   ar
    95    43    46    1
    96   122   121    1
    97    65    63   ar
    98   120   121    1
    99   121   123    1
   100    46    47    1
   101   105   104    2
   102   109   107   am
   103    47    48    1
   104   107   108    2
   105   107   106    1
   106   106   103    1
   107   104   103    1
   108   103   102    1
   109    48    49    1
   110    96    95    2
   111   101    99   am
   112   102    95   am
   113    49    50    2
   114    95    94    1
   115    99    98    1
   116    99   100    2
   117    91    89    1
   118    98    97    1
   119    88    87    2
   120    50    51    1
   121    50    52    1
   122    97    94    1
   123    94    93    1
   124    89    90    1
   125    89    86    1
   126    87    86    1
   127    90    92    1
   128    86    85    1
   129    85    76   am
   130    77    76    2
   131    83    81   ar
   132    83    84   ar
   133    76    75    1
   134    81    79   ar
   135    84    82   ar
   136    79    78    1
   137    79    80   ar
   138    75    78    1
   139    75    74    1
   140    82    80   ar
