@<TRIPOS>MOLECULE
tmp/4kxnC00.pdb
 136 132 0 0 0
SMALL
GASTEIGER

@<TRIPOS>ATOM
      1  N          8.5690  -14.7320   65.3740 N.3     4  TYR4       -0.1227
      2  CA         8.2130  -14.0980   66.6460 C.3     4  TYR4        0.1736
      3  C          6.9190  -13.3130   66.4660 C.2     4  TYR4        0.2595
      4  O          6.8870  -12.3460   65.6940 O.2     4  TYR4       -0.2718
      5  CB         9.3300  -13.1530   67.1130 C.3     4  TYR4        0.0548
      6  CG         9.2060  -12.6590   68.5490 C.ar    4  TYR4       -0.0200
      7  CD1        9.9790  -13.2150   69.5640 C.ar    4  TYR4       -0.0009
      8  CD2        8.3310  -11.6200   68.8850 C.ar    4  TYR4       -0.0009
      9  CE1        9.8800  -12.7650   70.8770 C.ar    4  TYR4        0.0417
     10  CE2        8.2250  -11.1590   70.2000 C.ar    4  TYR4        0.0417
     11  CZ         9.0060  -11.7380   71.1840 C.ar    4  TYR4        0.1957
     12  OH         8.8980  -11.3000   72.4760 O.3     4  TYR4       -0.2866
     13  N          5.8660  -13.7160   67.1790 N.am    5  PHE5       -0.1962
     14  CA         4.5950  -12.9730   67.1510 C.3     5  PHE5        0.1771
     15  C          4.3750  -12.0260   68.3460 C.2     5  PHE5        0.2620
     16  O          4.5280  -12.4250   69.5000 O.2     5  PHE5       -0.2715
     17  CB         3.3870  -13.9040   66.9860 C.3     5  PHE5        0.0574
     18  CG         2.0570  -13.1840   67.0910 C.ar    5  PHE5       -0.0200
     19  CD1        1.3380  -13.1970   68.2820 C.ar    5  PHE5       -0.0042
     20  CD2        1.5500  -12.4610   66.0110 C.ar    5  PHE5       -0.0042
     21  CE1        0.1240  -12.5200   68.3940 C.ar    5  PHE5       -0.0003
     22  CE2        0.3350  -11.7790   66.1140 C.ar    5  PHE5       -0.0003
     23  CZ        -0.3790  -11.8130   67.3090 C.ar    5  PHE5       -0.0000
     24  N          3.9990  -10.7800   68.0370 N.am    6  CYS6       -0.1954
     25  CA         3.7020   -9.7320   69.0280 C.3     6  CYS6        0.1843
     26  C          2.2130   -9.3310   69.0250 C.2     6  CYS6        0.2626
     27  O          1.6540   -8.9390   67.9900 O.2     6  CYS6       -0.2714
     28  CB         4.5180   -8.4620   68.7560 C.3     6  CYS6        0.0997
     29  SG         6.2830   -8.6370   68.3690 S.3     6  CYS6       -0.0797
     30  N          1.5870   -9.4060   70.1940 N.am    7  GLY7       -0.1954
     31  CA         0.2260   -8.9030   70.3870 C.3     7  GLY7        0.1869
     32  C          0.0380   -8.4650   71.8270 C.2     7  GLY7        0.2309
     33  O          0.6670   -9.0140   72.7330 O.2     7  GLY7       -0.2863
     34  N         -0.9130   -7.7800   75.5980 N.3     9  ILE9       -0.1231
     35  CA        -1.3790   -8.5870   76.7260 C.3     9  ILE9        0.1692
     36  C         -1.9180   -7.6700   77.8170 C.2     9  ILE9        0.2592
     37  O         -3.1280   -7.5340   77.9510 O.2     9  ILE9       -0.2718
     38  CB        -0.3130   -9.5790   77.2490 C.3     9  ILE9        0.0266
     39  CG1       -0.0300  -10.6560   76.1980 C.3     9  ILE9        0.0019
     40  CG2       -0.7670  -10.2150   78.5510 C.3     9  ILE9        0.0020
     41  CD1        1.2300  -11.4960   76.4750 C.3     9  ILE9        0.0001
     42  N         -1.0290   -7.0080   78.5580 N.am   10  ARG10      -0.1966
     43  CA        -1.4600   -6.0230   79.5520 C.3    10  ARG10       0.1729
     44  C         -2.0570   -4.7450   78.9580 C.2    10  ARG10       0.2616
     45  O         -2.7470   -3.9980   79.6540 O.2    10  ARG10      -0.2715
     46  CB        -0.3530   -5.7190   80.5620 C.3    10  ARG10       0.0348
     47  CG        -0.3930   -6.6660   81.7450 C.3    10  ARG10       0.0492
     48  CD         0.9350   -6.7930   82.4360 C.3    10  ARG10       0.2205
     49  NE         0.8250   -7.7150   83.5630 N.pl3  10  ARG10      -0.0865
     50  CZ         1.8510   -8.2940   84.1760 C.cat  10  ARG10       0.5346
     51  NH1        3.0950   -8.0640   83.7740 N.pl3  10  ARG10       0.1354
     52  NH2        1.6250   -9.1140   85.1940 N.pl3  10  ARG10       0.1354
     53  N         -1.7980   -4.5020   77.6770 N.am   11  GLY11      -0.1955
     54  CA        -2.4830   -3.4520   76.9400 C.3    11  GLY11       0.1869
     55  C         -3.9580   -3.7490   76.7010 C.2    11  GLY11       0.2309
     56  O         -4.7400   -2.8340   76.4370 O.2    11  GLY11      -0.2863
     57  N          6.5140  -17.5320   70.3600 N.3    34  THR34      -0.1218
     58  CA         5.7990  -16.8990   71.4630 C.3    34  THR34       0.1862
     59  C          4.4190  -17.4950   71.7230 C.2    34  THR34       0.2287
     60  O          3.4820  -16.7730   72.0870 O.2    34  THR34      -0.2866
     61  CB         5.6290  -15.4050   71.1800 C.3    34  THR34       0.1770
     62  OG1        5.0510  -15.2370   69.8740 O.3    34  THR34      -0.2211
     63  CG2        6.9780  -14.7110   71.2300 C.3    34  THR34       0.0375
     64  N         10.5720  -13.1300   82.0080 N.3    39  ILE39      -0.1245
     65  CA         9.7520  -12.9560   80.8150 C.3    39  ILE39       0.1561
     66  C         10.4750  -12.1170   79.7610 C.2    39  ILE39       0.2260
     67  O         10.5010  -12.4750   78.5800 O.2    39  ILE39      -0.2867
     68  CB         8.3770  -12.3480   81.1740 C.3    39  ILE39       0.0252
     69  CG1        7.5070  -13.4020   81.8720 C.3    39  ILE39       0.0019
     70  CG2        7.6830  -11.7680   79.9330 C.3    39  ILE39       0.0019
     71  CD1        6.4570  -12.8330   82.7870 C.3    39  ILE39       0.0001
     72  N         13.5870  -14.0920   78.5580 N.3    42  GLN42      -0.1231
     73  CA        13.0310  -15.1630   77.7250 C.3    42  GLN42       0.1698
     74  C         12.6500  -14.6600   76.3300 C.2    42  GLN42       0.2592
     75  O         13.0600  -15.2470   75.3270 O.2    42  GLN42      -0.2718
     76  CB        11.8000  -15.7660   78.4160 C.3    42  GLN42       0.0381
     77  CG        10.9630  -16.7030   77.5680 C.3    42  GLN42       0.0905
     78  CD         9.6150  -17.0100   78.2100 C.2    42  GLN42       0.2608
     79  OE1        9.4450  -18.0470   78.8500 O.2    42  GLN42      -0.2717
     80  NE2        8.6570  -16.0990   78.0510 N.am   42  GLN42      -0.0878
     81  N         11.8680  -13.5760   76.2840 N.am   43  ASN43      -0.1974
     82  CA        11.3450  -13.0220   75.0320 C.3    43  ASN43       0.1688
     83  C         12.4140  -12.3750   74.1510 C.2    43  ASN43       0.2292
     84  O         12.3140  -12.4130   72.9150 O.2    43  ASN43      -0.2864
     85  CB        10.1910  -12.0410   75.3000 C.3    43  ASN43       0.1181
     86  CG         8.8830  -12.7460   75.6560 C.2    43  ASN43       0.2629
     87  OD1        8.8680  -13.7150   76.4060 O.2    43  ASN43      -0.2716
     88  ND2        7.7760  -12.2400   75.1280 N.am   43  ASN43      -0.0877
     89  N         14.3710  -15.1490   72.3200 N.3    46  TRP46      -0.1241
     90  CA        13.5770  -15.5570   71.1630 C.3    46  TRP46       0.1605
     91  C         13.6130  -14.5350   70.0450 C.2    46  TRP46       0.2264
     92  O         13.6740  -14.9090   68.8780 O.2    46  TRP46      -0.2867
     93  CB        12.1140  -15.7770   71.5570 C.3    46  TRP46       0.0550
     94  CG        11.8220  -17.0600   72.2680 C.ar   46  TRP46       0.0003
     95  CD1       12.4850  -18.2490   72.1430 C.ar   46  TRP46       0.0946
     96  CD2       10.7470  -17.2940   73.1840 C.ar   46  TRP46       0.0152
     97  NE1       11.8990  -19.2060   72.9460 N.ar   46  TRP46      -0.2442
     98  CE2       10.8270  -18.6460   73.5900 C.ar   46  TRP46       0.0810
     99  CE3        9.7240  -16.4910   73.7060 C.ar   46  TRP46       0.0012
    100  CZ2        9.9290  -19.2070   74.5050 C.ar   46  TRP46       0.0191
    101  CZ3        8.8290  -17.0490   74.6100 C.ar   46  TRP46       0.0001
    102  CH2        8.9370  -18.3970   74.9960 C.ar   46  TRP46       0.0015
    103  N          0.0540   -1.0900   73.0690 N.3    61  SER61      -0.1202
    104  CA         0.7540   -1.9380   74.0400 C.3    61  SER61       0.2020
    105  C          2.2250   -1.5420   74.1350 C.2    61  SER61       0.2619
    106  O          2.9090   -1.4540   73.1190 O.2    61  SER61      -0.2717
    107  CB         0.6130   -3.4110   73.6410 C.3    61  SER61       0.2103
    108  OG         1.5440   -4.2460   74.3240 O.3    61  SER61      -0.2182
    109  N          2.6990   -1.2990   75.3600 N.am   62  LEU62      -0.1965
    110  CA         4.1120   -0.9840   75.6280 C.3    62  LEU62       0.1728
    111  C          5.0390   -2.1200   75.2130 C.2    62  LEU62       0.2617
    112  O          6.1040   -1.8910   74.6330 O.2    62  LEU62      -0.2715
    113  CB         4.2990   -0.7420   77.1290 C.3    62  LEU62       0.0311
    114  CG         4.2720    0.6260   77.8180 C.3    62  LEU62       0.0022
    115  CD1        3.9370    1.8170   76.9430 C.3    62  LEU62       0.0001
    116  CD2        3.3770    0.5770   79.0570 C.3    62  LEU62       0.0001
    117  N          4.6410   -3.3460   75.5510 N.am   63  GLY63      -0.1940
    118  CA         5.4240   -4.5400   75.2390 C.3    63  GLY63       0.2014
    119  C          5.6060   -4.8210   73.7600 C.2    63  GLY63       0.2638
    120  O          6.6830   -5.2190   73.3250 O.2    63  GLY63      -0.2714
    121  N          4.5330   -4.6530   72.9890 N.am   64  VAL64      -0.1977
    122  CA         4.5880   -4.7940   71.5390 C.3    64  VAL64       0.1596
    123  C          5.4870   -3.7150   70.9070 C.2    64  VAL64       0.2287
    124  O          6.3690   -4.0160   70.0840 O.2    64  VAL64      -0.2864
    125  CB         3.1730   -4.7020   70.9380 C.3    64  VAL64       0.0276
    126  CG1        3.2310   -4.7050   69.4280 C.3    64  VAL64       0.0022
    127  CG2        2.3260   -5.8690   71.4380 C.3    64  VAL64       0.0022
    128  N          9.1340   -4.6090   71.8180 N.3    67  GLU67      -0.1245
    129  CA         9.5990   -5.7330   71.0120 C.3    67  GLU67       0.1567
    130  C          9.9420   -5.3020   69.5890 C.2    67  GLU67       0.2260
    131  O         10.9760   -5.7090   69.0460 O.2    67  GLU67      -0.2867
    132  CB         8.5430   -6.8380   70.9930 C.3    67  GLU67       0.0388
    133  CG         8.4030   -7.5440   72.3330 C.3    67  GLU67       0.1160
    134  CD         7.1790   -8.4160   72.3940 C.2    67  GLU67       0.3649
    135  OE1        7.2680   -9.5110   72.9930 O.co2  67  GLU67      -0.2457
    136  OE2        6.1360   -8.0240   71.8250 O.co2  67  GLU67      -0.2457
@<TRIPOS>BOND
     1     1     2    1
     2     4     3    2
     3    20    22   ar
     4    20    18   ar
     5    22    23   ar
     6     3     2    1
     7     3    13   am
     8     2     5    1
     9    17    18    1
    10    17    14    1
    11    18    19   ar
    12     5     6    1
    13    14    13    1
    14    14    15    1
    15    23    21   ar
    16    27    26    2
    17    24    15   am
    18    24    25    1
    19    19    21   ar
    20    15    16    2
    21    29    28    1
    22     6     8   ar
    23     6     7   ar
    24    28    25    1
    25    92    91    2
    26     8    10   ar
    27    26    25    1
    28    26    30   am
    29   131   130    2
    30   126   125    1
    31     7     9   ar
    32   130   129    1
    33    62    61    1
    34    91    90    1
    35   124   123    2
    36    30    31    1
    37    10    11   ar
    38    57    58    1
    39    31    32    1
    40     9    11   ar
    41   123   122    1
    42   125   127    1
    43   125   122    1
    44   132   129    1
    45   132   133    1
    46   129   128    1
    47    90    93    1
    48    90    89    1
    49    61    63    1
    50    61    58    1
    51    11    12    1
    52    58    59    1
    53   122   121    1
    54    93    94    1
    55    59    60    2
    56   136   134   ar
    57    32    33    2
    58    95    94   ar
    59    95    97   ar
    60    94    96   ar
    61   133   134    1
    62   134   135   ar
    63    84    83    2
    64    97    98   ar
    65   121   119   am
    66   103   104    1
    67   106   105    2
    68    96    98   ar
    69    96    99   ar
    70   120   119    2
    71    98   100   ar
    72   107   104    1
    73   107   108    1
    74    99   101   ar
    75   119   118    1
    76   104   105    1
    77   105   109   am
    78    83    82    1
    79   100   102   ar
    80   101   102   ar
    81   112   111    2
    82    82    85    1
    83    82    81    1
    84    88    86   am
    85   111   117   am
    86   111   110    1
    87   118   117    1
    88    85    86    1
    89    75    74    2
    90   109   110    1
    91    34    35    1
    92   110   113    1
    93    86    87    2
    94    39    41    1
    95    39    38    1
    96    81    74   am
    97    74    73    1
    98    56    55    2
    99    55    54    1
   100    35    38    1
   101    35    36    1
   102    54    53    1
   103   115   114    1
   104   113   114    1
   105    38    40    1
   106    77    78    1
   107    77    76    1
   108    53    44   am
   109    73    76    1
   110    73    72    1
   111    36    37    2
   112    36    42   am
   113   114   116    1
   114    80    78   am
   115    78    79    2
   116    42    43    1
   117    67    66    2
   118    44    43    1
   119    44    45    2
   120    43    46    1
   121    66    65    1
   122    70    68    1
   123    46    47    1
   124    65    68    1
   125    65    64    1
   126    68    69    1
   127    47    48    1
   128    69    71    1
   129    48    49    1
   130    49    50    2
   131    51    50    1
   132    50    52    1
