@<TRIPOS>MOLECULE
tmp/4kxuA00.pdb
 85 81 0 0 0
SMALL
GASTEIGER

@<TRIPOS>ATOM
      1  N         -9.1170    8.1800   24.0480 N.3    36  HIS36      -0.1241
      2  CA        -9.3920    6.9320   23.3340 C.3    36  HIS36       0.1621
      3  C         -9.0820    5.7300   24.2090 C.2    36  HIS36       0.2264
      4  O         -8.2610    4.8630   23.8610 O.2    36  HIS36      -0.2867
      5  CB        -8.5570    6.8980   22.0350 C.3    36  HIS36       0.0745
      6  CG        -8.7870    8.0290   21.1020 C.ar   36  HIS36       0.0817
      7  ND1       -8.3160    9.3080   21.3420 N.ar   36  HIS36      -0.2268
      8  CD2       -9.4110    8.0260   19.8860 C.ar   36  HIS36       0.1154
      9  CE1       -8.6730   10.0510   20.3020 C.ar   36  HIS36       0.1986
     10  NE2       -9.3340    9.3210   19.4090 N.ar   36  HIS36      -0.2212
     11  N         -3.2110    7.7990   18.8540 N.3    76  HIS76      -0.1241
     12  CA        -4.3260    8.0810   19.7440 C.3    76  HIS76       0.1621
     13  C         -4.3320    7.1740   20.9530 C.2    76  HIS76       0.2264
     14  O         -5.0690    7.4250   21.9070 O.2    76  HIS76      -0.2867
     15  CB        -5.6650    8.0510   18.9780 C.3    76  HIS76       0.0745
     16  CG        -5.8800    6.7790   18.2400 C.ar   76  HIS76       0.0817
     17  ND1       -5.1210    6.4060   17.1170 N.ar   76  HIS76      -0.2268
     18  CD2       -6.7470    5.7860   18.5010 C.ar   76  HIS76       0.1154
     19  CE1       -5.5620    5.2310   16.7650 C.ar   76  HIS76       0.1986
     20  NE2       -6.5450    4.8000   17.5540 N.ar   76  HIS76      -0.2212
     21  N         -3.9070   16.0980   28.1510 N.3   100  ARG100     -0.1245
     22  CA        -4.5800   17.0260   27.2630 C.3   100  ARG100      0.1563
     23  C         -4.7840   18.4390   27.8290 C.2   100  ARG100      0.2260
     24  O         -5.3790   19.2790   27.1590 O.2   100  ARG100     -0.2867
     25  CB        -5.9200   16.4280   26.7780 C.3   100  ARG100      0.0307
     26  CG        -5.7240   15.3530   25.6990 C.3   100  ARG100      0.0489
     27  CD        -6.9120   14.4240   25.6110 C.3   100  ARG100      0.2205
     28  NE        -6.8120   13.5030   24.4880 N.pl3 100  ARG100     -0.0865
     29  CZ        -7.3550   13.6670   23.2860 C.cat 100  ARG100      0.5346
     30  NH1       -8.3200   14.5480   23.0460 N.pl3 100  ARG100      0.1354
     31  NH2       -6.8760   12.9430   22.2640 N.pl3 100  ARG100      0.1354
     32  N         -1.9270   13.4760   21.3280 N.3   109  HIS109     -0.1241
     33  CA        -1.1360   12.5000   20.5740 C.3   109  HIS109      0.1621
     34  C          0.3230   12.7560   20.8950 C.2   109  HIS109      0.2264
     35  O          0.6950   13.8680   21.3270 O.2   109  HIS109     -0.2867
     36  CB        -1.4320   12.5990   19.0870 C.3   109  HIS109      0.0745
     37  CG        -2.8220   12.2710   18.7190 C.ar  109  HIS109      0.0817
     38  ND1       -3.9050   13.1130   18.9330 N.ar  109  HIS109     -0.2268
     39  CD2       -3.3610   11.1710   18.1330 C.ar  109  HIS109      0.1154
     40  CE1       -4.9970   12.4830   18.4900 C.ar  109  HIS109      0.1986
     41  NE2       -4.7170   11.2980   17.9940 N.ar  109  HIS109     -0.2212
     42  N          0.1850   11.1450   15.1250 N.3   122  GLY122     -0.1225
     43  CA        -1.2430   11.3510   15.1370 C.3   122  GLY122      0.1811
     44  C         -1.9730   11.1380   13.8270 C.2   122  GLY122      0.2280
     45  O         -3.1420   10.7580   13.8500 O.2   122  GLY122     -0.2866
     46  N         -2.4130    8.7460   10.9630 N.3   124  LEU124     -0.1245
     47  CA        -2.1960    7.3190   10.9360 C.3   124  LEU124      0.1561
     48  C         -1.4140    6.8830    9.7090 C.2   124  LEU124      0.2260
     49  O         -1.4960    7.4570    8.6210 O.2   124  LEU124     -0.2867
     50  CB        -3.5370    6.5970   11.0190 C.3   124  LEU124      0.0270
     51  CG        -4.2300    6.7120   12.3370 C.3   124  LEU124      0.0019
     52  CD1       -5.7010    6.3120   12.2100 C.3   124  LEU124      0.0001
     53  CD2       -3.5540    5.8460   13.3960 C.3   124  LEU124      0.0001
     54  N        -12.6540    3.4450   13.5550 N.3   188  GLN188     -0.1245
     55  CA       -13.3280    4.5420   14.2490 C.3   188  GLN188      0.1566
     56  C        -14.8400    4.4280   14.1650 C.2   188  GLN188      0.2260
     57  O        -15.5600    4.6930   15.1440 O.2   188  GLN188     -0.2867
     58  CB       -12.8600    5.8600   13.6930 C.3   188  GLN188      0.0367
     59  CG       -13.7550    7.0470   14.0980 C.3   188  GLN188      0.0905
     60  CD       -13.1010    8.3940   13.9520 C.2   188  GLN188      0.2608
     61  OE1      -13.8430    9.4230   13.7050 O.2   188  GLN188     -0.2717
     62  NE2      -11.8640    8.5460   14.0550 N.am  188  GLN188     -0.0878
     63  N        -15.2210    4.2730   19.9090 N.3   257  HIS257     -0.1226
     64  CA       -13.9450    4.8090   19.5270 C.3   257  HIS257      0.1752
     65  C        -13.8540    6.2810   19.9200 C.2   257  HIS257      0.2597
     66  O        -14.7280    7.0740   19.5580 O.2   257  HIS257     -0.2718
     67  CB       -13.7460    4.6930   18.0280 C.3   257  HIS257      0.0759
     68  CG       -12.3930    5.2760   17.5970 C.ar  257  HIS257      0.0818
     69  ND1      -11.2700    4.5740   17.6100 N.ar  257  HIS257     -0.2268
     70  CD2      -12.0590    6.5390   17.2320 C.ar  257  HIS257      0.1154
     71  CE1      -10.2820    5.3250   17.2300 C.ar  257  HIS257      0.1986
     72  NE2      -10.7060    6.5670   16.9840 N.ar  257  HIS257     -0.2212
     73  N        -12.7950    6.6680   20.6190 N.am  258  GLY258     -0.1942
     74  CA       -12.6040    8.0610   20.9680 C.3   258  GLY258      0.2014
     75  C        -13.6460    8.5930   21.9440 C.2   258  GLY258      0.2638
     76  O        -13.8780    9.8200   21.9960 O.2   258  GLY258     -0.2714
     77  N        -14.2660    7.7280   22.7140 N.am  259  LYS259     -0.1977
     78  CA       -15.2630    8.1190   23.6930 C.3   259  LYS259      0.1596
     79  C        -14.7170    7.7640   25.0730 C.2   259  LYS259      0.2287
     80  O        -14.4680    6.5930   25.3810 O.2   259  LYS259     -0.2864
     81  CB       -16.6050    7.4360   23.4460 C.3   259  LYS259      0.0298
     82  CG       -17.1720    7.7620   22.0710 C.3   259  LYS259      0.0038
     83  CD       -17.4870    9.2060   21.8410 C.3   259  LYS259      0.0206
     84  CE       -17.9850    9.4580   20.4360 C.3   259  LYS259      0.1093
     85  NZ       -18.2010   10.9390   20.2130 N.3   259  LYS259     -0.1314
@<TRIPOS>BOND
     1    49    48    2
     2    48    47    1
     3    47    46    1
     4    47    50    1
     5    50    51    1
     6    52    51    1
     7    51    53    1
     8    54    55    1
     9    58    59    1
    10    58    55    1
    11    61    60    2
    12    44    45    2
    13    44    43    1
    14    60    62   am
    15    60    59    1
    16    56    55    1
    17    56    57    2
    18    42    43    1
    19    19    17   ar
    20    19    20   ar
    21    72    71   ar
    22    72    70   ar
    23    17    16   ar
    24    71    69   ar
    25    70    68   ar
    26    20    18   ar
    27    68    69   ar
    28    68    67    1
    29    41    39   ar
    30    41    40   ar
    31    67    64    1
    32    39    37   ar
    33    16    18   ar
    34    16    15    1
    35    40    38   ar
    36    37    38   ar
    37    37    36    1
    38    11    12    1
    39    15    12    1
    40    36    33    1
    41    10     8   ar
    42    10     9   ar
    43    64    63    1
    44    64    65    1
    45    66    65    2
    46    12    13    1
    47     8     6   ar
    48    65    73   am
    49    85    84    1
    50     9     7   ar
    51    84    83    1
    52    33    34    1
    53    33    32    1
    54    73    74    1
    55    34    35    2
    56    13    14    2
    57    74    75    1
    58     6     7   ar
    59     6     5    1
    60    83    82    1
    61    75    76    2
    62    75    77   am
    63     5     2    1
    64    82    81    1
    65    31    29    1
    66    77    78    1
    67    30    29    1
    68    29    28    2
    69     2     1    1
    70     2     3    1
    71    81    78    1
    72    78    79    1
    73     4     3    2
    74    28    27    1
    75    79    80    2
    76    27    26    1
    77    26    25    1
    78    25    22    1
    79    24    23    2
    80    22    23    1
    81    22    21    1
