@<TRIPOS>MOLECULE
tmp/4kxwA01.pdb
 85 81 0 0 0
SMALL
GASTEIGER

@<TRIPOS>ATOM
      1  N         -9.1510    8.2180   24.0010 N.3    36  HIS36      -0.1241
      2  CA        -9.4170    6.9830   23.2750 C.3    36  HIS36       0.1621
      3  C         -9.1290    5.7790   24.1510 C.2    36  HIS36       0.2264
      4  O         -8.3020    4.9090   23.8060 O.2    36  HIS36      -0.2867
      5  CB        -8.5970    6.9450   21.9760 C.3    36  HIS36       0.0745
      6  CG        -8.8330    8.1000   21.0660 C.ar   36  HIS36       0.0817
      7  ND1       -8.3620    9.3580   21.3110 N.ar   36  HIS36      -0.2268
      8  CD2       -9.4730    8.1220   19.8620 C.ar   36  HIS36       0.1154
      9  CE1       -8.7270   10.1240   20.3050 C.ar   36  HIS36       0.1986
     10  NE2       -9.4100    9.4320   19.4030 N.ar   36  HIS36      -0.2212
     11  N         -3.2340    7.8030   18.8560 N.3    76  HIS76      -0.1241
     12  CA        -4.3390    8.0810   19.7660 C.3    76  HIS76       0.1621
     13  C         -4.3540    7.1580   20.9660 C.2    76  HIS76       0.2264
     14  O         -5.1100    7.4110   21.9150 O.2    76  HIS76      -0.2867
     15  CB        -5.6790    8.0560   18.9950 C.3    76  HIS76       0.0745
     16  CG        -5.9080    6.7930   18.2530 C.ar   76  HIS76       0.0817
     17  ND1       -5.1470    6.4330   17.1300 N.ar   76  HIS76      -0.2268
     18  CD2       -6.7710    5.8100   18.4990 C.ar   76  HIS76       0.1154
     19  CE1       -5.5920    5.2650   16.7790 C.ar   76  HIS76       0.1986
     20  NE2       -6.5930    4.8300   17.5470 N.ar   76  HIS76      -0.2212
     21  N         -3.9310   16.1180   28.1380 N.3   100  ARG100     -0.1245
     22  CA        -4.6200   17.0380   27.2580 C.3   100  ARG100      0.1563
     23  C         -4.8030   18.4430   27.8200 C.2   100  ARG100      0.2260
     24  O         -5.4160   19.2670   27.1390 O.2   100  ARG100     -0.2867
     25  CB        -5.9270   16.4170   26.7540 C.3   100  ARG100      0.0307
     26  CG        -5.7480   15.3330   25.6860 C.3   100  ARG100      0.0489
     27  CD        -6.9020   14.4040   25.6040 C.3   100  ARG100      0.2205
     28  NE        -6.8180   13.4700   24.4760 N.pl3 100  ARG100     -0.0865
     29  CZ        -7.3310   13.6480   23.2620 C.cat 100  ARG100      0.5346
     30  NH1       -8.2780   14.5340   23.0110 N.pl3 100  ARG100      0.1354
     31  NH2       -6.8480   12.9080   22.2630 N.pl3 100  ARG100      0.1354
     32  N         -1.9340   13.4630   21.3180 N.3   109  HIS109     -0.1241
     33  CA        -1.1380   12.4880   20.5880 C.3   109  HIS109      0.1621
     34  C          0.3300   12.7410   20.9070 C.2   109  HIS109      0.2264
     35  O          0.7050   13.8490   21.3280 O.2   109  HIS109     -0.2867
     36  CB        -1.4130   12.5860   19.0740 C.3   109  HIS109      0.0745
     37  CG        -2.8170   12.2520   18.7040 C.ar  109  HIS109      0.0817
     38  ND1       -3.9140   13.0750   18.9200 N.ar  109  HIS109     -0.2268
     39  CD2       -3.3480   11.1440   18.1070 C.ar  109  HIS109      0.1154
     40  CE1       -4.9820   12.4240   18.4710 C.ar  109  HIS109      0.1986
     41  NE2       -4.7010   11.2570   17.9760 N.ar  109  HIS109     -0.2212
     42  N          0.2180   11.1860   15.1070 N.3   122  GLY122     -0.1225
     43  CA        -1.2320   11.3060   15.1330 C.3   122  GLY122      0.1811
     44  C         -1.9720   11.1320   13.8210 C.2   122  GLY122      0.2280
     45  O         -3.1370   10.7340   13.8430 O.2   122  GLY122     -0.2866
     46  N         -2.4280    8.7690   10.9730 N.3   124  LEU124     -0.1245
     47  CA        -2.2120    7.3410   10.9490 C.3   124  LEU124      0.1561
     48  C         -1.4400    6.8890    9.7340 C.2   124  LEU124      0.2260
     49  O         -1.5240    7.4570    8.6490 O.2   124  LEU124     -0.2867
     50  CB        -3.5410    6.6160   11.0510 C.3   124  LEU124      0.0270
     51  CG        -4.2380    6.7610   12.3860 C.3   124  LEU124      0.0019
     52  CD1       -5.6950    6.3180   12.2690 C.3   124  LEU124      0.0001
     53  CD2       -3.5440    5.9160   13.4380 C.3   124  LEU124      0.0001
     54  N        -12.6500    3.4970   13.5450 N.3   188  GLN188     -0.1245
     55  CA       -13.3310    4.5930   14.2290 C.3   188  GLN188      0.1566
     56  C        -14.8540    4.4860   14.1500 C.2   188  GLN188      0.2260
     57  O        -15.5570    4.7430   15.1180 O.2   188  GLN188     -0.2867
     58  CB       -12.8660    5.9160   13.6660 C.3   188  GLN188      0.0367
     59  CG       -13.7550    7.1040   14.0900 C.3   188  GLN188      0.0905
     60  CD       -13.1660    8.4460   13.8810 C.2   188  GLN188      0.2608
     61  OE1      -13.9360    9.4430   13.6110 O.2   188  GLN188     -0.2717
     62  NE2      -11.9070    8.6320   14.0110 N.am  188  GLN188     -0.0878
     63  N        -15.2670    4.2880   19.8720 N.3   257  HIS257     -0.1226
     64  CA       -13.9690    4.8300   19.5150 C.3   257  HIS257      0.1752
     65  C        -13.8890    6.3010   19.8790 C.2   257  HIS257      0.2597
     66  O        -14.7570    7.1010   19.5160 O.2   257  HIS257     -0.2718
     67  CB       -13.7460    4.7070   18.0020 C.3   257  HIS257      0.0759
     68  CG       -12.4180    5.2840   17.5870 C.ar  257  HIS257      0.0818
     69  ND1      -11.2700    4.5940   17.5770 N.ar  257  HIS257     -0.2268
     70  CD2      -12.1010    6.5670   17.2350 C.ar  257  HIS257      0.1154
     71  CE1      -10.3130    5.3700   17.2100 C.ar  257  HIS257      0.1986
     72  NE2      -10.7650    6.6070   16.9790 N.ar  257  HIS257     -0.2212
     73  N        -12.8280    6.6890   20.5840 N.am  258  GLY258     -0.1942
     74  CA       -12.6200    8.0870   20.8960 C.3   258  GLY258      0.2014
     75  C        -13.6550    8.6460   21.8650 C.2   258  GLY258      0.2638
     76  O        -13.8650    9.8710   21.8770 O.2   258  GLY258     -0.2714
     77  N        -14.2770    7.7970   22.6610 N.am  259  LYS259     -0.1977
     78  CA       -15.2720    8.2110   23.6360 C.3   259  LYS259      0.1596
     79  C        -14.7440    7.8580   25.0170 C.2   259  LYS259      0.2287
     80  O        -14.5190    6.6860   25.3210 O.2   259  LYS259     -0.2864
     81  CB       -16.6080    7.5310   23.3720 C.3   259  LYS259      0.0298
     82  CG       -17.1590    7.8050   21.9890 C.3   259  LYS259      0.0038
     83  CD       -17.4190    9.2240   21.6810 C.3   259  LYS259      0.0206
     84  CE       -17.8480    9.3880   20.2250 C.3   259  LYS259      0.1093
     85  NZ       -17.8680   10.8260   19.8310 N.3   259  LYS259     -0.1314
@<TRIPOS>BOND
     1    49    48    2
     2    48    47    1
     3    47    46    1
     4    47    50    1
     5    50    51    1
     6    52    51    1
     7    51    53    1
     8    54    55    1
     9    61    60    2
    10    58    59    1
    11    58    55    1
    12    44    45    2
    13    44    43    1
    14    60    62   am
    15    60    59    1
    16    56    55    1
    17    56    57    2
    18    42    43    1
    19    19    17   ar
    20    19    20   ar
    21    72    71   ar
    22    72    70   ar
    23    17    16   ar
    24    71    69   ar
    25    70    68   ar
    26    20    18   ar
    27    69    68   ar
    28    68    67    1
    29    41    39   ar
    30    41    40   ar
    31    67    64    1
    32    39    37   ar
    33    16    18   ar
    34    16    15    1
    35    40    38   ar
    36    37    38   ar
    37    37    36    1
    38    11    12    1
    39    15    12    1
    40    36    33    1
    41    10     8   ar
    42    10     9   ar
    43    64    63    1
    44    64    65    1
    45    66    65    2
    46    12    13    1
    47    85    84    1
    48     8     6   ar
    49    65    73   am
    50    84    83    1
    51     9     7   ar
    52    73    74    1
    53    33    34    1
    54    33    32    1
    55    74    75    1
    56    34    35    2
    57    13    14    2
    58     6     7   ar
    59     6     5    1
    60    83    82    1
    61    75    76    2
    62    75    77   am
    63     5     2    1
    64    82    81    1
    65    31    29    1
    66    77    78    1
    67    30    29    1
    68    29    28    2
    69     2     1    1
    70     2     3    1
    71    81    78    1
    72    78    79    1
    73     4     3    2
    74    28    27    1
    75    79    80    2
    76    27    26    1
    77    26    25    1
    78    25    22    1
    79    24    23    2
    80    22    23    1
    81    22    21    1
