@<TRIPOS>MOLECULE
tmp/4kxwA00.pdb
 161 151 0 0 0
SMALL
GASTEIGER

@<TRIPOS>ATOM
      1  N         -9.1510    8.2180   24.0010 N.3    36  HIS36      -0.1241
      2  CA        -9.4170    6.9830   23.2750 C.3    36  HIS36       0.1621
      3  C         -9.1290    5.7790   24.1510 C.2    36  HIS36       0.2264
      4  O         -8.3020    4.9090   23.8060 O.2    36  HIS36      -0.2867
      5  CB        -8.5970    6.9450   21.9760 C.3    36  HIS36       0.0745
      6  CG        -8.8330    8.1000   21.0660 C.ar   36  HIS36       0.0817
      7  ND1       -8.3620    9.3580   21.3110 N.ar   36  HIS36      -0.2268
      8  CD2       -9.4730    8.1220   19.8620 C.ar   36  HIS36       0.1154
      9  CE1       -8.7270   10.1240   20.3050 C.ar   36  HIS36       0.1986
     10  NE2       -9.4100    9.4320   19.4030 N.ar   36  HIS36      -0.2212
     11  N         -9.0290    2.2030   22.6020 N.3    39  SER39      -0.1217
     12  CA        -7.8540    1.9640   21.7660 C.3    39  SER39       0.1889
     13  C         -6.5980    1.6850   22.5930 C.2    39  SER39       0.2288
     14  O         -5.6680    1.0140   22.1530 O.2    39  SER39      -0.2866
     15  CB        -7.5870    3.1880   20.9020 C.3    39  SER39       0.2089
     16  OG        -8.7100    3.5170   20.0810 O.3    39  SER39      -0.2183
     17  N         -0.2170    4.0820   16.0950 N.3    74  LYS74      -0.1245
     18  CA        -1.5950    4.3840   16.4460 C.3    74  LYS74       0.1561
     19  C         -1.5540    5.4040   17.6010 C.2    74  LYS74       0.2260
     20  O         -1.7460    5.0790   18.7710 O.2    74  LYS74      -0.2867
     21  CB        -2.4310    3.1350   16.7210 C.3    74  LYS74       0.0271
     22  CG        -1.7940    2.0460   17.5610 C.3    74  LYS74       0.0035
     23  CD        -2.7940    0.9780   18.0130 C.3    74  LYS74       0.0206
     24  CE        -3.4940    1.3690   19.2890 C.3    74  LYS74       0.1093
     25  NZ        -4.6150    0.4690   19.6090 N.3    74  LYS74      -0.1314
     26  N         -3.2340    7.8030   18.8560 N.3    76  HIS76      -0.1241
     27  CA        -4.3390    8.0810   19.7660 C.3    76  HIS76       0.1621
     28  C         -4.3540    7.1580   20.9660 C.2    76  HIS76       0.2264
     29  O         -5.1100    7.4110   21.9150 O.2    76  HIS76      -0.2867
     30  CB        -5.6790    8.0560   18.9950 C.3    76  HIS76       0.0745
     31  CG        -5.9080    6.7930   18.2530 C.ar   76  HIS76       0.0817
     32  ND1       -5.1470    6.4330   17.1300 N.ar   76  HIS76      -0.2268
     33  CD2       -6.7710    5.8100   18.4990 C.ar   76  HIS76       0.1154
     34  CE1       -5.5920    5.2650   16.7790 C.ar   76  HIS76       0.1986
     35  NE2       -6.5930    4.8300   17.5470 N.ar   76  HIS76      -0.2212
     36  N         -1.9340   13.4630   21.3180 N.3   109  HIS109     -0.1241
     37  CA        -1.1380   12.4880   20.5880 C.3   109  HIS109      0.1621
     38  C          0.3300   12.7410   20.9070 C.2   109  HIS109      0.2264
     39  O          0.7050   13.8490   21.3280 O.2   109  HIS109     -0.2867
     40  CB        -1.4130   12.5860   19.0740 C.3   109  HIS109      0.0745
     41  CG        -2.8170   12.2520   18.7040 C.ar  109  HIS109      0.0817
     42  ND1       -3.9140   13.0750   18.9200 N.ar  109  HIS109     -0.2268
     43  CD2       -3.3480   11.1440   18.1070 C.ar  109  HIS109      0.1154
     44  CE1       -4.9820   12.4240   18.4710 C.ar  109  HIS109      0.1986
     45  NE2       -4.7010   11.2570   17.9760 N.ar  109  HIS109     -0.2212
     46  N          0.2180   11.1860   15.1070 N.3   122  GLY122     -0.1210
     47  CA        -1.2320   11.3060   15.1330 C.3   122  GLY122      0.1956
     48  C         -1.9720   11.1320   13.8210 C.2   122  GLY122      0.2613
     49  O         -3.1370   10.7340   13.8430 O.2   122  GLY122     -0.2717
     50  N         -1.3500   11.4130   12.6700 N.am  123  SER123     -0.1938
     51  CA        -1.8170   11.0820   11.3510 C.3   123  SER123      0.2055
     52  C         -1.4200    9.6350   11.0890 C.2   123  SER123      0.2642
     53  O         -0.2420    9.2860   11.0120 O.2   123  SER123     -0.2714
     54  CB        -1.2250   12.0140   10.3250 C.3   123  SER123      0.2130
     55  OG        -1.7500   11.5660    9.1040 O.3   123  SER123     -0.2179
     56  N         -2.4280    8.7690   10.9730 N.am  124  LEU124     -0.1977
     57  CA        -2.2120    7.3410   10.9490 C.3   124  LEU124      0.1596
     58  C         -1.4400    6.8890    9.7340 C.2   124  LEU124      0.2287
     59  O         -1.5240    7.4570    8.6490 O.2   124  LEU124     -0.2864
     60  CB        -3.5410    6.6160   11.0510 C.3   124  LEU124      0.0297
     61  CG        -4.2380    6.7610   12.3860 C.3   124  LEU124      0.0022
     62  CD1       -5.6950    6.3180   12.2690 C.3   124  LEU124      0.0001
     63  CD2       -3.5440    5.9160   13.4380 C.3   124  LEU124      0.0001
     64  N         -2.4810    0.1350   14.4610 N.3   153  GLY153     -0.1210
     65  CA        -3.8690   -0.3130   14.4820 C.3   153  GLY153      0.1956
     66  C         -4.2410   -1.1090   13.2400 C.2   153  GLY153      0.2612
     67  O         -3.5170   -1.1210   12.2650 O.2   153  GLY153     -0.2717
     68  N         -5.4090   -1.7530   13.2700 N.am  154  ASP154     -0.1959
     69  CA        -5.8840   -2.4920   12.1250 C.3   154  ASP154      0.1840
     70  C         -6.5310   -1.5990   11.0720 C.2   154  ASP154      0.2623
     71  O         -6.2340   -1.7410    9.8760 O.2   154  ASP154     -0.2715
     72  CB        -6.7500   -3.6860   12.4830 C.3   154  ASP154      0.1450
     73  CG        -7.9870   -3.5160   13.3450 C.2   154  ASP154      0.3671
     74  OD1       -8.1560   -2.4140   13.9060 O.co2 154  ASP154     -0.2456
     75  OD2       -8.7120   -4.5200   13.4760 O.co2 154  ASP154     -0.2456
     76  N         -7.3820   -0.6610   11.4750 N.am  155  GLY155     -0.1940
     77  CA        -7.8860    0.3280   10.5390 C.3   155  GLY155      0.2014
     78  C         -6.7480    1.0430    9.8430 C.2   155  GLY155      0.2638
     79  O         -6.7770    1.3080    8.6320 O.2   155  GLY155     -0.2714
     80  N         -5.7070    1.3890   10.6030 N.am  156  GLU156     -0.1977
     81  CA        -4.5200    2.0760   10.0960 C.3   156  GLU156      0.1602
     82  C         -3.8790    1.3900    8.9280 C.2   156  GLU156      0.2287
     83  O         -3.2530    2.0350    8.0760 O.2   156  GLU156     -0.2864
     84  CB        -3.5230    2.1750   11.3060 C.3   156  GLU156      0.0415
     85  CG        -2.2160    2.8220   10.9590 C.3   156  GLU156      0.1163
     86  CD        -1.3460    3.1370   12.1510 C.2   156  GLU156      0.3649
     87  OE1       -1.4510    2.4790   13.2300 O.co2 156  GLU156     -0.2457
     88  OE2       -0.4910    4.0310   11.9440 O.co2 156  GLU156     -0.2457
     89  N         -3.9520    2.3990    5.1600 N.3   159  GLU159     -0.1245
     90  CA        -3.1310    3.4470    4.5520 C.3   159  GLU159      0.1567
     91  C         -2.0470    2.8180    3.6720 C.2   159  GLU159      0.2260
     92  O         -1.2480    1.9820    4.1200 O.2   159  GLU159     -0.2867
     93  CB        -2.4730    4.3070    5.6030 C.3   159  GLU159      0.0388
     94  CG        -3.4320    5.2730    6.2970 C.3   159  GLU159      0.1160
     95  CD        -3.8780    6.4320    5.4640 C.2   159  GLU159      0.3649
     96  OE1       -3.5930    6.5620    4.2760 O.co2 159  GLU159     -0.2457
     97  OE2       -4.5830    7.3080    6.1280 O.co2 159  GLU159     -0.2457
     98  N         -2.3160   -4.4190   16.0960 N.3   182  ASP182     -0.1239
     99  CA        -3.3840   -4.5200   17.0890 C.3   182  ASP182      0.1674
    100  C         -4.6930   -4.7800   16.3500 C.2   182  ASP182      0.2266
    101  O         -5.4200   -3.8510   15.9640 O.2   182  ASP182     -0.2867
    102  CB        -3.4170   -3.2540   17.9310 C.3   182  ASP182      0.1410
    103  CG        -4.4340   -3.2480   19.0610 C.2   182  ASP182      0.3668
    104  OD1       -5.1980   -4.2140   19.1660 O.co2 182  ASP182     -0.2456
    105  OD2       -4.4370   -2.2450   19.8270 O.co2 182  ASP182     -0.2456
    106  N         -7.8620   -5.4030   16.5530 N.3   184  ASN184     -0.1240
    107  CA        -8.9750   -5.3140   17.4840 C.3   184  ASN184      0.1653
    108  C        -10.3340   -5.2310   16.8060 C.2   184  ASN184      0.2266
    109  O        -11.3350   -4.9580   17.4800 O.2   184  ASN184     -0.2867
    110  CB        -8.7850   -4.1800   18.4980 C.3   184  ASN184      0.1155
    111  CG        -8.8050   -2.8070   17.8890 C.2   184  ASN184      0.2627
    112  OD1       -9.2240   -2.6190   16.7410 O.2   184  ASN184     -0.2716
    113  ND2       -8.3940   -1.8210   18.6340 N.am  184  ASN184     -0.0877
    114  N        -11.9910   -3.3530   14.9070 N.3   186  LEU186     -0.1231
    115  CA       -12.7640   -2.1410   14.7170 C.3   186  LEU186      0.1693
    116  C        -11.8380   -0.9550   14.3920 C.2   186  LEU186      0.2593
    117  O        -10.7380   -0.8500   14.9300 O.2   186  LEU186     -0.2718
    118  CB       -13.5520   -1.7810   15.9830 C.3   186  LEU186      0.0284
    119  CG       -14.5970   -2.8350   16.4200 C.3   186  LEU186      0.0019
    120  CD1      -15.2520   -2.4030   17.7200 C.3   186  LEU186      0.0001
    121  CD2      -15.6120   -3.1340   15.3540 C.3   186  LEU186      0.0001
    122  N        -12.3440   -0.0740   13.5500 N.am  187  GLY187     -0.1942
    123  CA       -11.7880    1.2430   13.3290 C.3   187  GLY187      0.2014
    124  C        -12.5690    2.2910   14.0930 C.2   187  GLY187      0.2638
    125  O        -13.0910    2.0120   15.1920 O.2   187  GLY187     -0.2714
    126  N        -12.6500    3.4970   13.5450 N.am  188  GLN188     -0.1977
    127  CA       -13.3310    4.5930   14.2290 C.3   188  GLN188      0.1601
    128  C        -14.8540    4.4860   14.1500 C.2   188  GLN188      0.2287
    129  O        -15.5570    4.7430   15.1180 O.2   188  GLN188     -0.2864
    130  CB       -12.8660    5.9160   13.6660 C.3   188  GLN188      0.0394
    131  CG       -13.7550    7.1040   14.0900 C.3   188  GLN188      0.0908
    132  CD       -13.1660    8.4460   13.8810 C.2   188  GLN188      0.2608
    133  OE1      -13.9360    9.4430   13.6110 O.2   188  GLN188     -0.2717
    134  NE2      -11.9070    8.6320   14.0110 N.am  188  GLN188     -0.0878
    135  N        -11.2300   -4.5600   21.0730 N.3   243  LYS243     -0.1245
    136  CA       -11.2440   -3.1420   21.3890 C.3   243  LYS243      0.1561
    137  C        -11.9210   -2.9340   22.7080 C.2   243  LYS243      0.2260
    138  O        -12.9420   -3.5970   23.0000 O.2   243  LYS243     -0.2867
    139  CB       -11.8920   -2.3520   20.2490 C.3   243  LYS243      0.0271
    140  CG       -11.4860   -0.8850   20.2520 C.3   243  LYS243      0.0035
    141  CD       -11.7400   -0.2380   18.9090 C.3   243  LYS243      0.0206
    142  CE       -11.3350    1.2280   18.8530 C.3   243  LYS243      0.1093
    143  NZ       -11.2170    1.6790   17.4560 N.3   243  LYS243     -0.1314
    144  N        -15.2670    4.2880   19.8720 N.3   257  HIS257     -0.1241
    145  CA       -13.9690    4.8300   19.5150 C.3   257  HIS257      0.1621
    146  C        -13.8890    6.3010   19.8790 C.2   257  HIS257      0.2264
    147  O        -14.7570    7.1010   19.5160 O.2   257  HIS257     -0.2867
    148  CB       -13.7460    4.7070   18.0020 C.3   257  HIS257      0.0745
    149  CG       -12.4180    5.2840   17.5870 C.ar  257  HIS257      0.0817
    150  ND1      -11.2700    4.5940   17.5770 N.ar  257  HIS257     -0.2268
    151  CD2      -12.1010    6.5670   17.2350 C.ar  257  HIS257      0.1154
    152  CE1      -10.3130    5.3700   17.2100 C.ar  257  HIS257      0.1986
    153  NE2      -10.7650    6.6070   16.9790 N.ar  257  HIS257     -0.2212
    154  N          1.4170   15.1610    3.8400 N.3   397  ASP397     -0.1239
    155  CA         1.0740   14.8580    5.2290 C.3   397  ASP397      0.1674
    156  C          2.3110   14.4060    6.0160 C.2   397  ASP397      0.2266
    157  O          2.4600   14.7030    7.2040 O.2   397  ASP397     -0.2867
    158  CB        -0.0270   13.8250    5.2780 C.3   397  ASP397      0.1410
    159  CG        -0.7440   13.6470    6.6220 C.2   397  ASP397      0.3668
    160  OD1       -0.6760   14.5340    7.4820 O.co2 397  ASP397     -0.2456
    161  OD2       -1.3690   12.5700    6.7420 O.co2 397  ASP397     -0.2456
@<TRIPOS>BOND
     1    91    92    2
     2    91    90    1
     3   154   155    1
     4    96    95   ar
     5    90    89    1
     6    90    93    1
     7   155   158    1
     8   155   156    1
     9   158   159    1
    10    95    97   ar
    11    95    94    1
    12    93    94    1
    13   156   157    2
    14   159   161   ar
    15   159   160   ar
    16    83    82    2
    17    79    78    2
    18    59    58    2
    19    82    81    1
    20    55    54    1
    21    58    57    1
    22    78    77    1
    23    78    80   am
    24    71    70    2
    25    81    80    1
    26    81    84    1
    27    54    51    1
    28    77    76    1
    29    57    56    1
    30    57    60    1
    31    85    84    1
    32    85    86    1
    33    56    52   am
    34    53    52    2
    35    60    61    1
    36    70    76   am
    37    70    69    1
    38    52    51    1
    39    51    50    1
    40    88    86   ar
    41    69    72    1
    42    69    68    1
    43    86    87   ar
    44    67    66    2
    45    62    61    1
    46    61    63    1
    47    72    73    1
    48    50    48   am
    49    66    68   am
    50    66    65    1
    51   123   122    1
    52   123   124    1
    53    73    75   ar
    54    73    74   ar
    55   126   124   am
    56   126   127    1
    57   122   116   am
    58   133   132    2
    59   130   131    1
    60   130   127    1
    61    48    49    2
    62    48    47    1
    63   132   134   am
    64   132   131    1
    65   124   125    2
    66   128   127    1
    67   128   129    2
    68   116   115    1
    69   116   117    2
    70    64    65    1
    71   115   114    1
    72   115   118    1
    73    46    47    1
    74   121   119    1
    75   101   100    2
    76   118   119    1
    77    17    18    1
    78    98    99    1
    79   100    99    1
    80   119   120    1
    81    18    21    1
    82    18    19    1
    83   106   107    1
    84    21    22    1
    85   112   111    2
    86    34    32   ar
    87    34    35   ar
    88   108   109    2
    89   108   107    1
    90   153   152   ar
    91   153   151   ar
    92    99   102    1
    93    32    31   ar
    94   152   150   ar
    95   151   149   ar
    96   143   142    1
    97   107   110    1
    98    35    33   ar
    99    22    23    1
   100   150   149   ar
   101   149   148    1
   102    19    20    2
   103   111   110    1
   104   111   113   am
   105   102   103    1
   106    45    43   ar
   107    45    44   ar
   108   148   145    1
   109    23    24    1
   110    43    41   ar
   111    31    33   ar
   112    31    30    1
   113    44    42   ar
   114    41    42   ar
   115    41    40    1
   116   142   141    1
   117    26    27    1
   118   141   140    1
   119    30    27    1
   120   103   104   ar
   121   103   105   ar
   122    40    37    1
   123    24    25    1
   124    10     8   ar
   125    10     9   ar
   126   145   144    1
   127   145   146    1
   128   147   146    2
   129    27    28    1
   130     8     6   ar
   131    16    15    1
   132   139   140    1
   133   139   136    1
   134     9     7   ar
   135    37    38    1
   136    37    36    1
   137    15    12    1
   138    38    39    2
   139    28    29    2
   140     6     7   ar
   141     6     5    1
   142   135   136    1
   143   136   137    1
   144    12    13    1
   145    12    11    1
   146     5     2    1
   147    14    13    2
   148   137   138    2
   149     2     1    1
   150     2     3    1
   151     4     3    2
