@<TRIPOS>MOLECULE
tmp/4kxxA00.pdb
 85 81 0 0 0
SMALL
GASTEIGER

@<TRIPOS>ATOM
      1  N         -9.1490    7.9070   24.0210 N.3    37  HIS37      -0.1241
      2  CA        -9.4220    6.6690   23.3180 C.3    37  HIS37       0.1621
      3  C         -9.1450    5.4740   24.2040 C.2    37  HIS37       0.2264
      4  O         -8.3060    4.5880   23.8630 O.2    37  HIS37      -0.2867
      5  CB        -8.5940    6.5940   22.0310 C.3    37  HIS37       0.0745
      6  CG        -8.7960    7.7540   21.0940 C.ar   37  HIS37       0.0817
      7  ND1       -8.3440    9.0210   21.3260 N.ar   37  HIS37      -0.2268
      8  CD2       -9.4050    7.7360   19.8740 C.ar   37  HIS37       0.1154
      9  CE1       -8.6770    9.7650   20.2730 C.ar   37  HIS37       0.1986
     10  NE2       -9.3060    9.0260   19.3710 N.ar   37  HIS37      -0.2212
     11  N         -3.1870    7.4990   18.8830 N.3    77  HIS77      -0.1241
     12  CA        -4.3340    7.7850   19.7750 C.3    77  HIS77       0.1621
     13  C         -4.3460    6.8790   20.9820 C.2    77  HIS77       0.2264
     14  O         -5.0910    7.1400   21.9180 O.2    77  HIS77      -0.2867
     15  CB        -5.6380    7.7720   18.9820 C.3    77  HIS77       0.0745
     16  CG        -5.8710    6.4980   18.2430 C.ar   77  HIS77       0.0817
     17  ND1       -5.1490    6.0950   17.1290 N.ar   77  HIS77      -0.2268
     18  CD2       -6.7530    5.4930   18.5200 C.ar   77  HIS77       0.1154
     19  CE1       -5.5770    4.9310   16.7720 C.ar   77  HIS77       0.1986
     20  NE2       -6.5740    4.5250   17.5470 N.ar   77  HIS77      -0.2212
     21  N         -3.8910   15.8370   28.1870 N.3   101  ARG101     -0.1245
     22  CA        -4.5710   16.7570   27.3000 C.3   101  ARG101      0.1563
     23  C         -4.7450   18.1640   27.8780 C.2   101  ARG101      0.2260
     24  O         -5.3300   19.0030   27.1670 O.2   101  ARG101     -0.2867
     25  CB        -5.9120   16.1660   26.7940 C.3   101  ARG101      0.0307
     26  CG        -5.7290   15.0680   25.7560 C.3   101  ARG101      0.0489
     27  CD        -6.9430   14.1110   25.6880 C.3   101  ARG101      0.2205
     28  NE        -6.7810   13.2370   24.5340 N.pl3 101  ARG101     -0.0865
     29  CZ        -7.3060   13.3900   23.3460 C.cat 101  ARG101      0.5346
     30  NH1       -8.2430   14.2790   23.0770 N.pl3 101  ARG101      0.1354
     31  NH2       -6.8870   12.6160   22.3400 N.pl3 101  ARG101      0.1354
     32  N         -1.9080   13.1670   21.3920 N.3   110  HIS110     -0.1241
     33  CA        -1.1190   12.1970   20.6370 C.3   110  HIS110      0.1621
     34  C          0.3400   12.4470   20.9400 C.2   110  HIS110      0.2264
     35  O          0.7190   13.5540   21.3690 O.2   110  HIS110     -0.2867
     36  CB        -1.3870   12.3160   19.1250 C.3   110  HIS110      0.0745
     37  CG        -2.7990   11.9660   18.7580 C.ar  110  HIS110      0.0817
     38  ND1       -3.8700   12.8160   18.9620 N.ar  110  HIS110     -0.2268
     39  CD2       -3.3520   10.8780   18.1660 C.ar  110  HIS110      0.1154
     40  CE1       -4.9660   12.2100   18.5030 C.ar  110  HIS110      0.1986
     41  NE2       -4.6930   11.0210   18.0030 N.ar  110  HIS110     -0.2212
     42  N          0.1910   10.8580   15.0690 N.3   123  GLY123     -0.1225
     43  CA        -1.2350   11.0360   15.0790 C.3   123  GLY123      0.1811
     44  C         -1.9960   10.7910   13.7990 C.2   123  GLY123      0.2280
     45  O         -3.1670   10.4100   13.8590 O.2   123  GLY123     -0.2866
     46  N         -2.4720    8.4060   10.9360 N.3   125  LEU125     -0.1245
     47  CA        -2.2650    6.9700   10.9070 C.3   125  LEU125      0.1561
     48  C         -1.4740    6.5080    9.7090 C.2   125  LEU125      0.2260
     49  O         -1.5490    7.0820    8.6280 O.2   125  LEU125     -0.2867
     50  CB        -3.6170    6.2390   10.9590 C.3   125  LEU125      0.0270
     51  CG        -4.3280    6.3460   12.2920 C.3   125  LEU125      0.0019
     52  CD1       -5.7850    5.9670   12.1650 C.3   125  LEU125      0.0001
     53  CD2       -3.6470    5.4350   13.3200 C.3   125  LEU125      0.0001
     54  N        -12.6850    3.1720   13.5550 N.3   189  GLN189     -0.1245
     55  CA       -13.3640    4.2920   14.2350 C.3   189  GLN189      0.1566
     56  C        -14.8890    4.1720   14.1590 C.2   189  GLN189      0.2260
     57  O        -15.5900    4.4280   15.1460 O.2   189  GLN189     -0.2867
     58  CB       -12.8940    5.6090   13.6530 C.3   189  GLN189      0.0367
     59  CG       -13.7920    6.7940   14.0730 C.3   189  GLN189      0.0905
     60  CD       -13.1480    8.1400   13.9200 C.2   189  GLN189      0.2608
     61  OE1      -13.9200    9.1340   13.6250 O.2   189  GLN189     -0.2717
     62  NE2      -11.9120    8.3310   14.0400 N.am  189  GLN189     -0.0878
     63  N        -15.2740    4.0570   19.8700 N.3   258  HIS258     -0.1226
     64  CA       -13.9940    4.5810   19.5060 C.3   258  HIS258      0.1752
     65  C        -13.8800    6.0680   19.8860 C.2   258  HIS258      0.2597
     66  O        -14.7710    6.8670   19.5030 O.2   258  HIS258     -0.2718
     67  CB       -13.7540    4.4410   17.9980 C.3   258  HIS258      0.0759
     68  CG       -12.4510    5.0420   17.5700 C.ar  258  HIS258      0.0818
     69  ND1      -11.2960    4.3900   17.6130 N.ar  258  HIS258     -0.2268
     70  CD2      -12.0930    6.2730   17.1790 C.ar  258  HIS258      0.1154
     71  CE1      -10.3040    5.1120   17.1970 C.ar  258  HIS258      0.1986
     72  NE2      -10.7480    6.2980   16.9380 N.ar  258  HIS258     -0.2212
     73  N        -12.8120    6.4680   20.5730 N.am  259  GLY259     -0.1942
     74  CA       -12.6300    7.8550   20.8940 C.3   259  GLY259      0.2014
     75  C        -13.6520    8.4080   21.8730 C.2   259  GLY259      0.2638
     76  O        -13.8800    9.6140   21.9110 O.2   259  GLY259     -0.2714
     77  N        -14.2740    7.5640   22.6440 N.am  260  LYS260     -0.1977
     78  CA       -15.2630    7.9530   23.6440 C.3   260  LYS260      0.1596
     79  C        -14.7140    7.5800   25.0160 C.2   260  LYS260      0.2287
     80  O        -14.5030    6.4010   25.3320 O.2   260  LYS260     -0.2864
     81  CB       -16.5770    7.2300   23.3800 C.3   260  LYS260      0.0298
     82  CG       -17.1550    7.4620   22.0090 C.3   260  LYS260      0.0038
     83  CD       -17.5940    8.8830   21.7810 C.3   260  LYS260      0.0206
     84  CE       -18.0320    8.8960   20.2800 C.3   260  LYS260      0.1093
     85  NZ       -18.3870   10.1790   19.7110 N.3   260  LYS260     -0.1314
@<TRIPOS>BOND
     1    49    48    2
     2    48    47    1
     3    47    46    1
     4    47    50    1
     5    50    51    1
     6    52    51    1
     7    51    53    1
     8    54    55    1
     9    61    60    2
    10    58    59    1
    11    58    55    1
    12    44    45    2
    13    44    43    1
    14    60    62   am
    15    60    59    1
    16    56    55    1
    17    56    57    2
    18    42    43    1
    19    19    17   ar
    20    19    20   ar
    21    72    70   ar
    22    72    71   ar
    23    17    16   ar
    24    70    68   ar
    25    71    69   ar
    26    20    18   ar
    27    68    69   ar
    28    68    67    1
    29    67    64    1
    30    41    39   ar
    31    41    40   ar
    32    39    37   ar
    33    16    18   ar
    34    16    15    1
    35    40    38   ar
    36    37    38   ar
    37    37    36    1
    38    11    12    1
    39    15    12    1
    40    36    33    1
    41    10     8   ar
    42    10     9   ar
    43    66    65    2
    44    64    63    1
    45    64    65    1
    46    85    84    1
    47    12    13    1
    48     8     6   ar
    49    65    73   am
    50     9     7   ar
    51    84    83    1
    52    73    74    1
    53    33    34    1
    54    33    32    1
    55    74    75    1
    56    34    35    2
    57    13    14    2
    58     6     7   ar
    59     6     5    1
    60    83    82    1
    61    75    76    2
    62    75    77   am
    63    82    81    1
    64     5     2    1
    65    31    29    1
    66    77    78    1
    67    30    29    1
    68     2     1    1
    69     2     3    1
    70    29    28    2
    71    81    78    1
    72    78    79    1
    73     4     3    2
    74    28    27    1
    75    79    80    2
    76    27    26    1
    77    26    25    1
    78    25    22    1
    79    24    23    2
    80    22    23    1
    81    22    21    1
