@<TRIPOS>MOLECULE
tmp/4kxyB00.pdb
 93 87 0 0 0
SMALL
GASTEIGER

@<TRIPOS>ATOM
      1  N          5.0210    8.3870   14.8200 N.3   339  GLY339     -0.1210
      2  CA         5.3310    7.5180   15.9650 C.3   339  GLY339      0.1956
      3  C          4.1090    7.1450   16.7920 C.2   339  GLY339      0.2612
      4  O          3.9680    7.5900   17.9530 O.2   339  GLY339     -0.2717
      5  N          3.1730    6.3690   16.2430 N.am  340  ASP340     -0.1959
      6  CA         1.9510    5.9150   16.8850 C.3   340  ASP340      0.1840
      7  C          1.0960    7.0890   17.3590 C.2   340  ASP340      0.2622
      8  O          0.3480    6.8900   18.3020 O.2   340  ASP340     -0.2715
      9  CB         2.2120    4.9200   17.9940 C.3   340  ASP340      0.1450
     10  CG         0.9960    4.1990   18.5070 C.2   340  ASP340      0.3671
     11  OD1        0.0950    3.9360   17.6600 O.co2 340  ASP340     -0.2456
     12  OD2        0.9590    3.8330   19.7080 O.co2 340  ASP340     -0.2456
     13  N          1.1830    8.2390   16.6650 N.am  341  THR341     -0.1951
     14  CA         0.3360    9.3550   16.9890 C.3   341  THR341      0.1897
     15  C         -0.4720    9.8420   15.8030 C.2   341  THR341      0.2313
     16  O         -0.9870   10.9620   15.8220 O.2   341  THR341     -0.2863
     17  CB         1.1230   10.5120   17.6350 C.3   341  THR341      0.1794
     18  OG1        2.2140   10.9150   16.8150 O.3   341  THR341     -0.2208
     19  CG2        1.6800   10.1110   18.9930 C.3   341  THR341      0.0378
     20  N          6.3670    3.8500   18.8640 N.3   363  ILE363     -0.1245
     21  CA         6.7270    4.8420   19.8910 C.3   363  ILE363      0.1561
     22  C          8.2430    4.8530   20.0730 C.2   363  ILE363      0.2260
     23  O          8.8240    4.2420   20.9660 O.2   363  ILE363     -0.2867
     24  CB         5.9310    4.6120   21.1930 C.3   363  ILE363      0.0252
     25  CG1        4.4450    4.4470   20.9650 C.3   363  ILE363      0.0019
     26  CG2        6.2050    5.7530   22.1510 C.3   363  ILE363      0.0019
     27  CD1        3.6350    4.0110   22.1580 C.3   363  ILE363      0.0001
     28  N         10.7530    7.8200   18.7290 N.3   365  GLU365     -0.1245
     29  CA        11.0040    9.0750   18.0290 C.3   365  GLU365      0.1567
     30  C         12.4230    9.2260   17.5400 C.2   365  GLU365      0.2260
     31  O         12.6520    9.8060   16.4620 O.2   365  GLU365     -0.2867
     32  CB        10.6090   10.2430   18.8970 C.3   365  GLU365      0.0388
     33  CG         9.1400   10.2910   19.2910 C.3   365  GLU365      0.1160
     34  CD         8.7350    9.3720   20.4360 C.2   365  GLU365      0.3649
     35  OE1        9.6410    8.8590   21.1320 O.co2 365  GLU365     -0.2457
     36  OE2        7.5060    9.1960   20.6580 O.co2 365  GLU365     -0.2457
     37  N          4.8600   13.8030   15.1990 N.3   387  THR387     -0.1203
     38  CA         4.4970   13.3790   16.5300 C.3   387  THR387      0.1994
     39  C          4.0540   14.6440   17.2790 C.2   387  THR387      0.2617
     40  O          3.9400   15.7280   16.6620 O.2   387  THR387     -0.2717
     41  CB         5.6460   12.6500   17.2410 C.3   387  THR387      0.1784
     42  OG1        5.2520   12.2800   18.5950 O.3   387  THR387     -0.2211
     43  CG2        6.8910   13.4740   17.3990 C.3   387  THR387      0.0376
     44  N          3.8410   14.5250   18.5910 N.am  388  PHE388     -0.1975
     45  CA         3.6340   15.7240   19.3740 C.3   388  PHE388      0.1639
     46  C          4.9680   16.4870   19.4580 C.2   388  PHE388      0.2290
     47  O          6.0100   15.8510   19.6220 O.2   388  PHE388     -0.2864
     48  CB         3.2000   15.3980   20.7810 C.3   388  PHE388      0.0560
     49  CG         1.8200   14.8230   20.9660 C.ar  388  PHE388     -0.0200
     50  CD1        1.1990   14.0170   20.0550 C.ar  388  PHE388     -0.0042
     51  CD2        1.1590   15.1210   22.1370 C.ar  388  PHE388     -0.0042
     52  CE1       -0.0630   13.4970   20.3130 C.ar  388  PHE388     -0.0003
     53  CE2       -0.1090   14.6480   22.3900 C.ar  388  PHE388     -0.0003
     54  CZ        -0.6910   13.8560   21.4450 C.ar  388  PHE388     -0.0000
     55  N          7.5590   15.5330   22.0160 N.3   391  PHE391     -0.1241
     56  CA         8.3480   14.3090   21.9030 C.3   391  PHE391      0.1605
     57  C          9.4160   14.4410   20.8330 C.2   391  PHE391      0.2264
     58  O         10.2570   13.5280   20.7690 O.2   391  PHE391     -0.2867
     59  CB         7.4450   13.0880   21.7410 C.3   391  PHE391      0.0534
     60  CG         6.3380   13.0200   22.7960 C.ar  391  PHE391     -0.0203
     61  CD1        6.7340   13.1730   24.1400 C.ar  391  PHE391     -0.0042
     62  CD2        4.9990   12.8550   22.4760 C.ar  391  PHE391     -0.0042
     63  CE1        5.7970   13.1880   25.1360 C.ar  391  PHE391     -0.0003
     64  CE2        4.0660   12.8830   23.5190 C.ar  391  PHE391     -0.0003
     65  CZ         4.4840   13.0770   24.8030 C.ar  391  PHE391     -0.0000
     66  N         12.8090   14.1350   22.4900 N.3   394  ARG394     -0.1245
     67  CA        13.3620   12.7940   22.6040 C.3   394  ARG394      0.1563
     68  C         14.4000   12.5190   21.5100 C.2   394  ARG394      0.2260
     69  O         15.2710   11.6770   21.6720 O.2   394  ARG394     -0.2867
     70  CB        12.2440   11.7550   22.5080 C.3   394  ARG394      0.0307
     71  CG        12.7120   10.3250   22.6810 C.3   394  ARG394      0.0489
     72  CD        13.1840   10.0750   24.1230 C.3   394  ARG394      0.2205
     73  NE        11.9810   10.0300   24.9550 N.pl3 394  ARG394     -0.0865
     74  CZ        11.4840    9.0040   25.6130 C.cat 394  ARG394      0.5346
     75  NH1       10.3550    9.1630   26.3040 N.pl3 394  ARG394      0.1354
     76  NH2       11.9710    7.7790   25.7010 N.pl3 394  ARG394      0.1354
     77  N         -4.4500   17.1850   29.1190 N.3   423  ASP423     -0.1239
     78  CA        -3.4110   16.1610   29.2550 C.3   423  ASP423      0.1674
     79  C         -2.3070   16.6030   30.1960 C.2   423  ASP423      0.2266
     80  O         -1.6110   15.7720   30.8010 O.2   423  ASP423     -0.2867
     81  CB        -2.8470   15.8080   27.8920 C.3   423  ASP423      0.1410
     82  CG        -3.4770   14.6360   27.1980 C.2   423  ASP423      0.3668
     83  OD1       -4.3520   13.9700   27.7880 O.co2 423  ASP423     -0.2456
     84  OD2       -3.1000   14.3460   26.0450 O.co2 423  ASP423     -0.2456
     85  N          2.7670   16.3520   27.8290 N.3   427  GLN427     -0.1245
     86  CA         2.4010   16.3700   26.4380 C.3   427  GLN427      0.1566
     87  C          2.5650   17.7620   25.7810 C.2   427  GLN427      0.2260
     88  O          2.3260   17.8430   24.5870 O.2   427  GLN427     -0.2867
     89  CB         0.9310   15.9200   26.2410 C.3   427  GLN427      0.0367
     90  CG         0.5430   14.6680   26.9970 C.3   427  GLN427      0.0905
     91  CD         1.2840   13.4140   26.6140 C.2   427  GLN427      0.2608
     92  OE1        1.1470   12.9110   25.5020 O.2   427  GLN427     -0.2717
     93  NE2        2.0590   12.9170   27.6000 N.am  427  GLN427     -0.0878
@<TRIPOS>BOND
     1     1     2    1
     2    37    38    1
     3    15    16    2
     4    15    14    1
     5     2     3    1
     6     5     3   am
     7     5     6    1
     8    31    30    2
     9    38    41    1
    10    38    39    1
    11    40    39    2
    12    13    14    1
    13    13     7   am
    14     3     4    2
    15    18    17    1
    16     6     7    1
    17     6     9    1
    18    14    17    1
    19    41    43    1
    20    41    42    1
    21    39    44   am
    22     7     8    2
    23    30    29    1
    24    17    19    1
    25    11    10   ar
    26     9    10    1
    27    29    28    1
    28    29    32    1
    29    10    12   ar
    30    44    45    1
    31    20    21    1
    32    32    33    1
    33    33    34    1
    34    45    46    1
    35    45    48    1
    36    46    47    2
    37    21    22    1
    38    21    24    1
    39    50    52   ar
    40    50    49   ar
    41    22    23    2
    42    52    54   ar
    43    34    36   ar
    44    34    35   ar
    45    58    57    2
    46    48    49    1
    47    57    56    1
    48    25    24    1
    49    25    27    1
    50    49    51   ar
    51    24    26    1
    52    54    53   ar
    53    68    69    2
    54    68    67    1
    55    59    56    1
    56    59    60    1
    57    56    55    1
    58    51    53   ar
    59    62    60   ar
    60    62    64   ar
    61    66    67    1
    62    70    67    1
    63    70    71    1
    64    71    72    1
    65    60    61   ar
    66    64    65   ar
    67    72    73    1
    68    61    63   ar
    69    88    87    2
    70    65    63   ar
    71    73    74    2
    72    92    91    2
    73    74    76    1
    74    74    75    1
    75    87    86    1
    76    84    82   ar
    77    89    86    1
    78    89    90    1
    79    86    85    1
    80    91    90    1
    81    91    93   am
    82    82    83   ar
    83    82    81    1
    84    81    78    1
    85    77    78    1
    86    78    79    1
    87    79    80    2
