@<TRIPOS>MOLECULE
tmp/4kxyB01.pdb
 161 151 0 0 0
SMALL
GASTEIGER

@<TRIPOS>ATOM
      1  N         41.7690    7.7830   16.6840 N.3    36  HIS36      -0.1241
      2  CA        41.3700    6.5300   17.2870 C.3    36  HIS36       0.1621
      3  C         41.8960    5.3140   16.5610 C.2    36  HIS36       0.2264
      4  O         41.1450    4.4530   16.0600 O.2    36  HIS36      -0.2867
      5  CB        39.8380    6.4740   17.3320 C.3    36  HIS36       0.0745
      6  CG        39.2630    7.6410   18.0960 C.ar   36  HIS36       0.0817
      7  ND1       39.1990    8.9260   17.6030 N.ar   36  HIS36      -0.2268
      8  CD2       38.7180    7.6730   19.3360 C.ar   36  HIS36       0.1154
      9  CE1       38.6520    9.6990   18.5270 C.ar   36  HIS36       0.1986
     10  NE2       38.3440    8.9720   19.6020 N.ar   36  HIS36      -0.2212
     11  N         40.5090    1.8430   17.4460 N.3    39  SER39      -0.1217
     12  CA        39.1290    1.5970   16.9930 C.3    39  SER39       0.1889
     13  C         39.0730    1.3040   15.5060 C.2    39  SER39       0.2288
     14  O         38.1470    0.6520   15.0010 O.2    39  SER39      -0.2866
     15  CB        38.2940    2.8220   17.2770 C.3    39  SER39       0.2089
     16  OG        38.2260    3.1840   18.6380 O.3    39  SER39      -0.2183
     17  N         30.0830    3.7470   14.0370 N.3    74  LYS74      -0.1245
     18  CA        31.1710    4.0510   14.9780 C.3    74  LYS74       0.1561
     19  C         32.0840    5.0380   14.2500 C.2    74  LYS74       0.2260
     20  O         33.1620    4.7170   13.7730 O.2    74  LYS74      -0.2867
     21  CB        31.8750    2.8060   15.4850 C.3    74  LYS74       0.0271
     22  CG        32.1930    1.7220   14.4670 C.3    74  LYS74       0.0035
     23  CD        33.1250    0.6470   15.0480 C.3    74  LYS74       0.0206
     24  CE        34.6080    1.0420   14.9330 C.3    74  LYS74       0.1093
     25  NZ        35.4800    0.0740   15.6330 N.3    74  LYS74      -0.1314
     26  N         34.0860    7.5080   14.7610 N.3    76  HIS76      -0.1241
     27  CA        35.4370    7.8150   15.2250 C.3    76  HIS76       0.1621
     28  C         36.4450    6.8820   14.5860 C.2    76  HIS76       0.2264
     29  O         37.6500    7.1340   14.6390 O.2    76  HIS76      -0.2867
     30  CB        35.5000    7.8160   16.7730 C.3    76  HIS76       0.0745
     31  CG        35.0580    6.5180   17.3700 C.ar   76  HIS76       0.0817
     32  ND1       33.7470    6.1020   17.4520 N.ar   76  HIS76      -0.2268
     33  CD2       35.7680    5.5320   17.9310 C.ar   76  HIS76       0.1154
     34  CE1       33.6890    4.9200   18.0340 C.ar   76  HIS76       0.1986
     35  NE2       34.9220    4.5550   18.3260 N.ar   76  HIS76      -0.2212
     36  N         35.3050   13.0570   12.4070 N.3   109  HIS109     -0.1241
     37  CA        34.2310   12.0800   12.1960 C.3   109  HIS109      0.1621
     38  C         33.6630   12.3320   10.8140 C.2   109  HIS109      0.2264
     39  O         33.8060   13.4300   10.2860 O.2   109  HIS109     -0.2867
     40  CB        33.1750   12.1570   13.3020 C.3   109  HIS109      0.0745
     41  CG        33.6600   11.8590   14.6740 C.ar  109  HIS109      0.0817
     42  ND1       34.4140   12.7560   15.4360 N.ar  109  HIS109     -0.2268
     43  CD2       33.4130   10.7990   15.4980 C.ar  109  HIS109      0.1154
     44  CE1       34.6410   12.1860   16.6300 C.ar  109  HIS109      0.1986
     45  NE2       34.0580   11.0260   16.6950 N.ar  109  HIS109     -0.2212
     46  N         29.0720   10.2480   14.5030 N.3   122  GLY122     -0.1210
     47  CA        29.8960   10.7630   15.5650 C.3   122  GLY122      0.1956
     48  C         29.1480   10.7620   16.8820 C.2   122  GLY122      0.2613
     49  O         29.7800   10.5700   17.9200 O.2   122  GLY122     -0.2717
     50  N         27.8170   10.9510   16.8230 N.am  123  SER123     -0.1938
     51  CA        27.0160   10.6760   18.0250 C.3   123  SER123      0.2055
     52  C         26.5890    9.2190   17.9410 C.2   123  SER123      0.2642
     53  O         25.8630    8.8290   17.0130 O.2   123  SER123     -0.2714
     54  CB        25.8200   11.5860   18.0870 C.3   123  SER123      0.2130
     55  OG        25.0640   11.1890   19.2130 O.3   123  SER123     -0.2179
     56  N         27.0940    8.4080   18.8440 N.am  124  LEU124     -0.1977
     57  CA        26.9390    6.9520   18.7240 C.3   124  LEU124      0.1596
     58  C         25.5020    6.4950   18.7890 C.2   124  LEU124      0.2287
     59  O         24.6510    7.1020   19.4370 O.2   124  LEU124     -0.2864
     60  CB        27.7890    6.2600   19.8030 C.3   124  LEU124      0.0297
     61  CG        29.2950    6.3980   19.5810 C.3   124  LEU124      0.0022
     62  CD1       30.0260    6.1720   20.8740 C.3   124  LEU124      0.0001
     63  CD2       29.7040    5.4010   18.5120 C.3   124  LEU124      0.0001
     64  N         30.0320   -0.2370   16.8460 N.3   153  GLY153     -0.1210
     65  CA        30.8090   -0.6760   17.9830 C.3   153  GLY153      0.1956
     66  C         30.0080   -1.4360   19.0060 C.2   153  GLY153      0.2612
     67  O         28.8000   -1.4420   18.9550 O.2   153  GLY153     -0.2717
     68  N         30.7090   -2.1100   19.9390 N.am  154  ASP154     -0.1959
     69  CA        29.9600   -2.8450   20.9560 C.3   154  ASP154      0.1840
     70  C         29.5370   -1.9270   22.1080 C.2   154  ASP154      0.2623
     71  O         28.4120   -2.0680   22.5890 O.2   154  ASP154     -0.2715
     72  CB        30.6900   -4.0870   21.4270 C.3   154  ASP154      0.1450
     73  CG        32.0980   -3.9890   21.9430 C.2   154  ASP154      0.3671
     74  OD1       32.6910   -2.8790   21.9360 O.co2 154  ASP154     -0.2456
     75  OD2       32.6500   -5.0350   22.3780 O.co2 154  ASP154     -0.2456
     76  N         30.3530   -0.9800   22.5610 N.am  155  GLY155     -0.1940
     77  CA        29.8890    0.0130   23.5340 C.3   155  GLY155      0.2014
     78  C         28.6800    0.7450   22.9930 C.2   155  GLY155      0.2638
     79  O         27.7200    1.0240   23.7250 O.2   155  GLY155     -0.2714
     80  N         28.7220    1.0840   21.7040 N.am  156  GLU156     -0.1977
     81  CA        27.6320    1.7510   21.0050 C.3   156  GLU156      0.1602
     82  C         26.2820    1.0660   21.1510 C.2   156  GLU156      0.2287
     83  O         25.2250    1.7350   21.1410 O.2   156  GLU156     -0.2864
     84  CB        28.0430    1.7970   19.5250 C.3   156  GLU156      0.0415
     85  CG        27.0350    2.4210   18.6140 C.3   156  GLU156      0.1163
     86  CD        27.4790    2.8050   17.2250 C.2   156  GLU156      0.3649
     87  OE1       28.4340    2.1460   16.6990 O.co2 156  GLU156     -0.2457
     88  OE2       26.8560    3.7510   16.6810 O.co2 156  GLU156     -0.2457
     89  N         23.3000    2.1300   23.4320 N.3   159  GLU159     -0.1245
     90  CA        22.3160    3.1600   23.0830 C.3   159  GLU159      0.1567
     91  C         20.9700    2.5540   22.6940 C.2   159  GLU159      0.2260
     92  O         20.8740    1.7130   21.8200 O.2   159  GLU159     -0.2867
     93  CB        22.8170    4.0380   21.9380 C.3   159  GLU159      0.0388
     94  CG        23.9230    5.0170   22.2960 C.3   159  GLU159      0.1160
     95  CD        23.5350    6.1910   23.2020 C.2   159  GLU159      0.3649
     96  OE1       22.3610    6.3110   23.6160 O.co2 159  GLU159     -0.2457
     97  OE2       24.5040    7.0150   23.4080 O.co2 159  GLU159     -0.2457
     98  N         31.2630   -4.7900   15.8250 N.3   182  ASP182     -0.1239
     99  CA        32.6770   -4.9070   16.0980 C.3   182  ASP182      0.1674
    100  C         32.8350   -5.1790   17.5940 C.2   182  ASP182      0.2266
    101  O         32.9220   -4.2380   18.3780 O.2   182  ASP182     -0.2867
    102  CB        33.3720   -3.6150   15.6520 C.3   182  ASP182      0.1410
    103  CG        34.8810   -3.6020   15.8050 C.2   182  ASP182      0.3668
    104  OD1       35.4090   -4.5920   16.3650 O.co2 182  ASP182     -0.2456
    105  OD2       35.5310   -2.6130   15.3480 O.co2 182  ASP182     -0.2456
    106  N         34.8450   -5.7950   20.0510 N.3   184  ASN184     -0.1240
    107  CA        36.2380   -5.7450   20.4280 C.3   184  ASN184      0.1653
    108  C         36.4380   -5.5910   21.9490 C.2   184  ASN184      0.2266
    109  O         37.5790   -5.2840   22.3420 O.2   184  ASN184     -0.2867
    110  CB        37.0140   -4.6420   19.6790 C.3   184  ASN184      0.1155
    111  CG        36.6120   -3.2740   20.0660 C.2   184  ASN184      0.2627
    112  OD1       35.9980   -2.9850   21.0890 O.2   184  ASN184     -0.2716
    113  ND2       36.9600   -2.2510   19.3480 N.am  184  ASN184     -0.0877
    114  N         36.1070   -3.6410   24.4770 N.3   186  LEU186     -0.1231
    115  CA        36.4040   -2.4250   25.2260 C.3   186  LEU186      0.1693
    116  C         35.6510   -1.2190   24.7160 C.2   186  LEU186      0.2593
    117  O         35.4870   -1.0450   23.4980 O.2   186  LEU186     -0.2718
    118  CB        37.9180   -2.1100   25.1640 C.3   186  LEU186      0.0284
    119  CG        38.8590   -3.1520   25.7850 C.3   186  LEU186      0.0019
    120  CD1       40.3000   -2.7800   25.6070 C.3   186  LEU186      0.0001
    121  CD2       38.4830   -3.3630   27.2510 C.3   186  LEU186      0.0001
    122  N         35.1620   -0.3900   25.6400 N.am  187  GLY187     -0.1942
    123  CA        34.5910    0.8940   25.3120 C.3   187  GLY187      0.2014
    124  C         35.6700    1.9700   25.3640 C.2   187  GLY187      0.2638
    125  O         36.8770    1.7220   25.1290 O.2   187  GLY187     -0.2714
    126  N         35.2600    3.1960   25.6750 N.am  188  GLN188     -0.1977
    127  CA        36.1960    4.3270   25.7810 C.3   188  GLN188      0.1601
    128  C         37.0250    4.2630   27.0620 C.2   188  GLN188      0.2287
    129  O         38.2210    4.4610   27.0770 O.2   188  GLN188     -0.2864
    130  CB        35.4690    5.6720   25.7100 C.3   188  GLN188      0.0394
    131  CG        36.3010    6.8560   26.1850 C.3   188  GLN188      0.0908
    132  CD        35.8290    8.2030   25.7420 C.2   188  GLN188      0.2608
    133  OE1       35.2980    8.3960   24.6380 O.2   188  GLN188     -0.2717
    134  NE2       36.1040    9.1940   26.5770 N.am  188  GLN188     -0.0878
    135  N         40.5050   -4.8890   20.2080 N.3   243  LYS243     -0.1245
    136  CA        40.7460   -3.4610   20.0150 C.3   243  LYS243      0.1561
    137  C         42.2450   -3.2980   19.8010 C.2   243  LYS243      0.2260
    138  O         43.0660   -3.9220   20.4580 O.2   243  LYS243     -0.2867
    139  CB        40.1990   -2.6530   21.1700 C.3   243  LYS243      0.0271
    140  CG        39.9890   -1.1700   20.8190 C.3   243  LYS243      0.0035
    141  CD        39.0140   -0.5630   21.8310 C.3   243  LYS243      0.0206
    142  CE        38.7660    0.9020   21.6160 C.3   243  LYS243      0.1093
    143  NZ        37.4350    1.2100   22.2670 N.3   243  LYS243     -0.1314
    144  N         41.8830    4.0520   24.1020 N.3   257  HIS257     -0.1241
    145  CA        40.8590    4.5790   23.2520 C.3   257  HIS257      0.1621
    146  C         41.1430    6.0320   22.9140 C.2   257  HIS257      0.2264
    147  O         41.3060    6.8390   23.8540 O.2   257  HIS257     -0.2867
    148  CB        39.5010    4.4670   23.9630 C.3   257  HIS257      0.0745
    149  CG        38.4190    5.1240   23.1460 C.ar  257  HIS257      0.0817
    150  ND1       37.7750    4.5570   22.1510 N.ar  257  HIS257     -0.2268
    151  CD2       37.8820    6.3610   23.0990 C.ar  257  HIS257      0.1154
    152  CE1       36.8620    5.2340   21.5340 C.ar  257  HIS257      0.1986
    153  NE2       36.9320    6.4070   22.1310 N.ar  257  HIS257     -0.2212
    154  N         19.1330   14.8860   19.6970 N.3   397  ASP397     -0.1239
    155  CA        20.4760   14.5570   19.1720 C.3   397  ASP397      0.1674
    156  C         20.3970   14.0520   17.7400 C.2   397  ASP397      0.2266
    157  O         21.2940   14.3130   16.9160 O.2   397  ASP397     -0.2867
    158  CB        21.1130   13.5090   20.0830 C.3   397  ASP397      0.1410
    159  CG        22.6060   13.3360   19.9270 C.2   397  ASP397      0.3668
    160  OD1       23.3130   14.1920   19.3330 O.co2 397  ASP397     -0.2456
    161  OD2       23.1220   12.2950   20.3920 O.co2 397  ASP397     -0.2456
@<TRIPOS>BOND
     1    39    38    2
     2    38    37    1
     3    37    36    1
     4    37    40    1
     5    40    41    1
     6    20    19    2
     7    17    18    1
     8    19    18    1
     9    22    23    1
    10    22    21    1
    11    46    47    1
    12    28    29    2
    13    28    27    1
    14    41    42   ar
    15    41    43   ar
    16    26    27    1
    17    24    23    1
    18    24    25    1
    19    18    21    1
    20    14    13    2
    21    27    30    1
    22   105   103   ar
    23    42    44   ar
    24    43    45   ar
    25    13    12    1
    26    47    48    1
    27   102   103    1
    28   102    99    1
    29   103   104   ar
    30    98    99    1
    31     4     3    2
    32    99   100    1
    33     3     2    1
    34    44    45   ar
    35    88    86   ar
    36     1     2    1
    37    87    86   ar
    38    30    31    1
    39    50    48   am
    40    50    51    1
    41    64    65    1
    42    48    49    2
    43   157   156    2
    44    12    15    1
    45    12    11    1
    46    53    52    2
    47    86    85    1
    48    15    16    1
    49     2     5    1
    50     5     6    1
    51    31    32   ar
    52    31    33   ar
    53    32    34   ar
    54   100   101    2
    55     7     6   ar
    56     7     9   ar
    57   156   155    1
    58    33    35   ar
    59    52    51    1
    60    52    56   am
    61    65    66    1
    62    51    54    1
    63    34    35   ar
    64    54    55    1
    65     6     8   ar
    66    63    61    1
    67     9    10   ar
    68    85    84    1
    69    57    58    1
    70    57    56    1
    71    57    60    1
    72    58    59    2
    73    67    66    2
    74    66    68   am
    75   155   154    1
    76   155   158    1
    77   160   159   ar
    78     8    10   ar
    79   113   111   am
    80    84    81    1
    81    61    60    1
    82    61    62    1
    83   110   111    1
    84   110   107    1
    85   137   136    1
    86   137   138    2
    87   159   158    1
    88   159   161   ar
    89    68    69    1
    90   136   135    1
    91   136   139    1
    92   106   107    1
    93   111   112    2
    94   107   108    1
    95   140   139    1
    96   140   141    1
    97    69    72    1
    98    69    70    1
    99    81    82    1
   100    81    80    1
   101    83    82    2
   102    72    73    1
   103   152   153   ar
   104   152   150   ar
   105   142   141    1
   106   142   143    1
   107    80    78   am
   108    92    91    2
   109    74    73   ar
   110    93    94    1
   111    93    90    1
   112    73    75   ar
   113   108   109    2
   114    70    76   am
   115    70    71    2
   116   153   151   ar
   117   150   149   ar
   118    94    95    1
   119    76    77    1
   120    91    90    1
   121   146   145    1
   122   146   147    2
   123    78    77    1
   124    78    79    2
   125    90    89    1
   126   151   149   ar
   127   149   148    1
   128    95    97   ar
   129    95    96   ar
   130   145   148    1
   131   145   144    1
   132   117   116    2
   133   114   115    1
   134   133   132    2
   135   116   115    1
   136   116   122   am
   137   125   124    2
   138   118   115    1
   139   118   119    1
   140   123   124    1
   141   123   122    1
   142   124   126   am
   143   120   119    1
   144   126   127    1
   145   130   127    1
   146   130   131    1
   147   132   131    1
   148   132   134   am
   149   127   128    1
   150   119   121    1
   151   128   129    2
