@<TRIPOS>MOLECULE
tmp/4ky0A00.pdb
 85 79 0 0 0
SMALL
GASTEIGER

@<TRIPOS>ATOM
      1  N         14.5400   64.1130  -46.1060 N.3    74  ARG74      -0.1245
      2  CA        13.1240   64.3370  -46.3410 C.3    74  ARG74       0.1563
      3  C         12.2790   63.2060  -45.7630 C.2    74  ARG74       0.2260
      4  O         11.2810   63.4770  -45.0910 O.2    74  ARG74      -0.2867
      5  CB        12.8360   64.5110  -47.8220 C.3    74  ARG74       0.0307
      6  CG        11.3600   64.6310  -48.1490 C.3    74  ARG74       0.0489
      7  CD        11.1230   65.1230  -49.5890 C.3    74  ARG74       0.2205
      8  NE        11.8740   64.4180  -50.6370 N.pl3  74  ARG74      -0.0865
      9  CZ        13.0320   64.8360  -51.1520 C.cat  74  ARG74       0.5346
     10  NH1       13.6170   64.1300  -52.1080 N.pl3  74  ARG74       0.1354
     11  NH2       13.6140   65.9540  -50.7190 N.pl3  74  ARG74       0.1354
     12  N          9.6080   63.6630  -42.9550 N.3    78  LYS78      -0.1245
     13  CA         8.2580   63.1940  -43.2460 C.3    78  LYS78       0.1561
     14  C          7.7890   62.1350  -42.2340 C.2    78  LYS78       0.2260
     15  O          6.6640   62.2370  -41.7350 O.2    78  LYS78      -0.2867
     16  CB         8.1440   62.6940  -44.6980 C.3    78  LYS78       0.0271
     17  CG         8.1280   63.8800  -45.6720 C.3    78  LYS78       0.0035
     18  CD         7.8640   63.5370  -47.1200 C.3    78  LYS78       0.0206
     19  CE         8.6350   62.3590  -47.5690 C.3    78  LYS78       0.1093
     20  NZ         8.8200   62.5060  -49.0220 N.3    78  LYS78      -0.1314
     21  N          6.8760   63.9320  -38.9490 N.3    81  VAL81      -0.1231
     22  CA         5.5850   64.5680  -39.0620 C.3    81  VAL81       0.1692
     23  C          4.4800   63.5190  -38.9660 C.2    81  VAL81       0.2592
     24  O          3.4880   63.7410  -38.2970 O.2    81  VAL81      -0.2718
     25  CB         5.4820   65.3570  -40.3670 C.3    81  VAL81       0.0266
     26  CG1        4.0410   65.7870  -40.6280 C.3    81  VAL81       0.0020
     27  CG2        6.4090   66.5550  -40.2970 C.3    81  VAL81       0.0020
     28  N          4.6610   62.3730  -39.6170 N.am   82  TYR82      -0.1976
     29  CA         3.6640   61.3020  -39.5440 C.3    82  TYR82       0.1639
     30  C          3.4020   60.8190  -38.1560 C.2    82  TYR82       0.2290
     31  O          2.2510   60.5790  -37.8040 O.2    82  TYR82      -0.2864
     32  CB         4.0690   60.1000  -40.3700 C.3    82  TYR82       0.0560
     33  CG         3.2420   58.8680  -40.0740 C.ar   82  TYR82      -0.0198
     34  CD1        2.0220   58.6480  -40.6990 C.ar   82  TYR82      -0.0009
     35  CD2        3.7070   57.9080  -39.1880 C.ar   82  TYR82      -0.0009
     36  CE1        1.2850   57.5120  -40.4420 C.ar   82  TYR82       0.0417
     37  CE2        2.9810   56.7710  -38.9180 C.ar   82  TYR82       0.0417
     38  CZ         1.7730   56.5690  -39.5450 C.ar   82  TYR82       0.1957
     39  OH         1.0750   55.4120  -39.2550 O.3    82  TYR82      -0.2866
     40  N          1.4290   63.3510  -36.0970 N.3    85  ALA85      -0.1245
     41  CA         0.0470   63.3390  -36.5460 C.3    85  ALA85       0.1562
     42  C         -0.7250   62.1850  -35.9230 C.2    85  ALA85       0.2260
     43  O         -1.7840   62.3900  -35.3450 O.2    85  ALA85      -0.2867
     44  CB        -0.0140   63.2570  -38.0690 C.3    85  ALA85       0.0290
     45  N         -5.5900   58.0260  -43.1160 N.3   238  LEU238     -0.1245
     46  CA        -4.3080   58.5990  -43.5100 C.3   238  LEU238      0.1561
     47  C         -3.7810   57.8820  -44.7550 C.2   238  LEU238      0.2260
     48  O         -3.1980   58.5120  -45.6500 O.2   238  LEU238     -0.2867
     49  CB        -3.2800   58.5030  -42.3770 C.3   238  LEU238      0.0270
     50  CG        -2.4750   59.7580  -42.0320 C.3   238  LEU238      0.0019
     51  CD1       -3.3150   61.0000  -42.1310 C.3   238  LEU238      0.0001
     52  CD2       -1.9320   59.6350  -40.6530 C.3   238  LEU238      0.0001
     53  N         -3.3310   59.5240  -48.7660 N.3   242  PHE242     -0.1241
     54  CA        -2.1060   59.4250  -49.5430 C.3   242  PHE242      0.1605
     55  C         -2.2770   58.3640  -50.6330 C.2   242  PHE242      0.2264
     56  O         -1.3170   57.9820  -51.2950 O.2   242  PHE242     -0.2867
     57  CB        -0.8930   59.1700  -48.6260 C.3   242  PHE242      0.0534
     58  CG        -0.3320   60.4380  -48.0330 C.ar  242  PHE242     -0.0203
     59  CD1       -1.0090   61.1110  -47.0290 C.ar  242  PHE242     -0.0042
     60  CD2        0.8430   60.9890  -48.5200 C.ar  242  PHE242     -0.0042
     61  CE1       -0.5140   62.2980  -46.5100 C.ar  242  PHE242     -0.0003
     62  CE2        1.3440   62.1800  -47.9990 C.ar  242  PHE242     -0.0003
     63  CZ         0.6630   62.8320  -46.9970 C.ar  242  PHE242     -0.0000
     64  N          3.4990   55.2440  -46.4460 N.3   401  ILE401     -0.1231
     65  CA         3.0940   56.5910  -46.8480 C.3   401  ILE401      0.1692
     66  C          4.2910   57.4660  -47.2200 C.2   401  ILE401      0.2591
     67  O          4.2640   58.1200  -48.2460 O.2   401  ILE401     -0.2718
     68  CB         2.2760   57.3040  -45.7560 C.3   401  ILE401      0.0266
     69  CG1        0.8790   56.6970  -45.6880 C.3   401  ILE401      0.0019
     70  CG2        2.1570   58.8200  -46.0380 C.3   401  ILE401      0.0020
     71  CD1        0.0340   57.2490  -44.5800 C.3   401  ILE401      0.0001
     72  N          5.3260   57.5250  -46.3980 N.am  402  VAL402     -0.1980
     73  CA         6.4740   58.3200  -46.8000 C.3   402  VAL402      0.1595
     74  C          7.0870   57.6710  -48.0290 C.2   402  VAL402      0.2287
     75  O          7.6550   58.3640  -48.8760 O.2   402  VAL402     -0.2864
     76  CB         7.5420   58.4780  -45.6940 C.3   402  VAL402      0.0276
     77  CG1        6.9540   59.1680  -44.4620 C.3   402  VAL402      0.0022
     78  CG2        8.1670   57.1360  -45.3420 C.3   402  VAL402      0.0022
     79  N          5.4960   58.7920  -51.0620 N.3   405  THR405     -0.1218
     80  CA         5.8910   60.1390  -51.4310 C.3   405  THR405      0.1862
     81  C          7.1860   60.2010  -52.2670 C.2   405  THR405      0.2287
     82  O          7.3730   61.1800  -52.9920 O.2   405  THR405     -0.2866
     83  CB         6.0080   61.0310  -50.1780 C.3   405  THR405      0.1770
     84  OG1        4.7980   60.9090  -49.4210 O.3   405  THR405     -0.2211
     85  CG2        6.1230   62.4870  -50.5680 C.3   405  THR405      0.0375
@<TRIPOS>BOND
     1    82    81    2
     2    81    80    1
     3    10     9    1
     4    80    79    1
     5    80    83    1
     6    56    55    2
     7     9    11    1
     8     9     8    2
     9     8     7    1
    10    55    54    1
    11    85    83    1
    12    83    84    1
    13     7     6    1
    14    54    53    1
    15    54    57    1
    16    20    19    1
    17    75    74    2
    18    57    58    1
    19    60    58   ar
    20    60    62   ar
    21    67    66    2
    22     6     5    1
    23    58    59   ar
    24    74    73    1
    25    62    63   ar
    26     5     2    1
    27    19    18    1
    28    66    65    1
    29    66    72   am
    30    18    17    1
    31    59    61   ar
    32    63    61   ar
    33    65    64    1
    34    65    68    1
    35    73    72    1
    36    73    76    1
    37     2     1    1
    38     2     3    1
    39    70    68    1
    40     3     4    2
    41    68    69    1
    42    76    78    1
    43    76    77    1
    44    69    71    1
    45    17    16    1
    46    48    47    2
    47    47    46    1
    48    16    13    1
    49    46    45    1
    50    46    49    1
    51    13    12    1
    52    13    14    1
    53    49    50    1
    54    14    15    2
    55    51    50    1
    56    50    52    1
    57    34    36   ar
    58    34    33   ar
    59    26    25    1
    60    36    38   ar
    61    32    33    1
    62    32    29    1
    63    25    27    1
    64    25    22    1
    65    33    35   ar
    66    28    29    1
    67    28    23   am
    68    38    39    1
    69    38    37   ar
    70    29    30    1
    71    35    37   ar
    72    22    23    1
    73    22    21    1
    74    23    24    2
    75    30    31    2
    76    44    41    1
    77    41    40    1
    78    41    42    1
    79    42    43    2
