@<TRIPOS>MOLECULE
tmp/4ky2B00.pdb
 86 78 0 0 0
SMALL
GASTEIGER

@<TRIPOS>ATOM
      1  N         -1.9640  -11.2310  -32.4750 N.3     4  MET4       -0.1245
      2  CA        -0.7380  -10.4280  -32.5930 C.3     4  MET4        0.1570
      3  C         -0.2670  -10.1100  -31.1800 C.2     4  MET4        0.2261
      4  O         -1.0870   -9.9280  -30.2820 O.2     4  MET4       -0.2867
      5  CB        -1.0030   -9.1280  -33.3650 C.3     4  MET4        0.0387
      6  CG         0.2840   -8.3140  -33.7370 C.3     4  MET4        0.0595
      7  SD         0.8100   -7.0790  -32.5700 S.3     4  MET4       -0.1393
      8  CE        -0.2130   -5.7240  -33.0550 C.3     4  MET4        0.0692
      9  N          2.3100   -7.4730  -29.0470 N.3     6  LYS6       -0.1245
     10  CA         3.0570   -6.2370  -29.1090 C.3     6  LYS6        0.1561
     11  C          3.7210   -5.9900  -27.7840 C.2     6  LYS6        0.2260
     12  O          3.0500   -6.0700  -26.7440 O.2     6  LYS6       -0.2867
     13  CB         2.0970   -5.0970  -29.3990 C.3     6  LYS6        0.0271
     14  CG         2.7840   -3.7420  -29.4470 C.3     6  LYS6        0.0035
     15  CD         2.3480   -2.7750  -30.4900 C.3     6  LYS6        0.0206
     16  CE         3.3400   -1.5790  -30.6790 C.3     6  LYS6        0.1093
     17  NZ         4.2030   -1.5740  -31.8880 N.3     6  LYS6       -0.1314
     18  N          6.4000   -3.4390  -25.5030 N.3     8  LEU8       -0.1245
     19  CA         7.0100   -2.1400  -25.3550 C.3     8  LEU8        0.1561
     20  C          7.9200   -2.1160  -24.1170 C.2     8  LEU8        0.2260
     21  O          7.6780   -2.8380  -23.1480 O.2     8  LEU8       -0.2867
     22  CB         5.9130   -1.0740  -25.1880 C.3     8  LEU8        0.0270
     23  CG         5.0040   -0.8750  -26.3890 C.3     8  LEU8        0.0019
     24  CD1        3.9460    0.1500  -26.0620 C.3     8  LEU8        0.0001
     25  CD2        5.7980   -0.4220  -27.6200 C.3     8  LEU8        0.0001
     26  N          6.6490   -6.1590  -32.4860 N.3    45  GLU45      -0.1245
     27  CA         5.4510   -6.9060  -32.8170 C.3    45  GLU45       0.1567
     28  C          5.8090   -8.2790  -33.3030 C.2    45  GLU45       0.2260
     29  O          6.8770   -8.5150  -33.9060 O.2    45  GLU45      -0.2867
     30  CB         4.6490   -6.1770  -33.9060 C.3    45  GLU45       0.0388
     31  CG         4.1180   -4.8380  -33.3650 C.3    45  GLU45       0.1160
     32  CD         3.3520   -3.9730  -34.3620 C.2    45  GLU45       0.3649
     33  OE1        3.0980   -4.4400  -35.4720 O.co2  45  GLU45      -0.2457
     34  OE2        3.0000   -2.8120  -34.0050 O.co2  45  GLU45      -0.2457
     35  N         -5.1710   -8.6230  -30.0390 N.3    97  THR97      -0.1218
     36  CA        -3.8430   -8.1130  -29.8140 C.3    97  THR97       0.1862
     37  C         -3.5760   -8.2050  -28.3220 C.2    97  THR97       0.2287
     38  O         -4.3220   -7.6670  -27.5020 O.2    97  THR97      -0.2866
     39  CB        -3.6700   -6.6770  -30.2870 C.3    97  THR97       0.1770
     40  OG1       -3.8420   -6.6590  -31.6950 O.3    97  THR97      -0.2211
     41  CG2       -2.3050   -6.1240  -29.9340 C.3    97  THR97       0.0375
     42  N         -0.9710   -6.9530  -25.7080 N.3    99  ALA99      -0.1231
     43  CA         0.0760   -5.9510  -25.5670 C.3    99  ALA99       0.1694
     44  C          0.6680   -6.0230  -24.1740 C.2    99  ALA99       0.2592
     45  O         -0.0560   -6.2230  -23.1960 O.2    99  ALA99      -0.2718
     46  CB        -0.4520   -4.5690  -25.8700 C.3    99  ALA99       0.0304
     47  N          1.9680   -5.8210  -24.0760 N.am  100  ALA100     -0.1966
     48  CA         2.6670   -5.7890  -22.7780 C.3   100  ALA100      0.1728
     49  C          3.6440   -4.6330  -22.7640 C.2   100  ALA100      0.2616
     50  O          4.3380   -4.3740  -23.7430 O.2   100  ALA100     -0.2715
     51  CB         3.3820   -7.0900  -22.5010 C.3   100  ALA100      0.0334
     52  N          3.7000   -3.9440  -21.6300 N.am  101  LEU101     -0.1977
     53  CA         4.5830   -2.8020  -21.3780 C.3   101  LEU101      0.1596
     54  C          5.4870   -3.1860  -20.2270 C.2   101  LEU101      0.2287
     55  O          4.9960   -3.4250  -19.1230 O.2   101  LEU101     -0.2864
     56  CB         3.7420   -1.5710  -21.0530 C.3   101  LEU101      0.0297
     57  CG         4.5120   -0.3150  -20.6500 C.3   101  LEU101      0.0022
     58  CD1        5.4380    0.1680  -21.7530 C.3   101  LEU101      0.0001
     59  CD2        3.5080    0.7730  -20.2420 C.3   101  LEU101      0.0001
     60  N          2.6850   -4.2010  -17.3460 N.3   108  SER108     -0.1202
     61  CA         1.2730   -3.9580  -17.6540 C.3   108  SER108      0.2020
     62  C          0.9270   -4.8020  -18.8920 C.2   108  SER108      0.2619
     63  O          1.7390   -4.8960  -19.8060 O.2   108  SER108     -0.2717
     64  CB         1.0540   -2.4590  -17.9430 C.3   108  SER108      0.2103
     65  OG        -0.2160   -2.1540  -18.4780 O.3   108  SER108     -0.2182
     66  N         -0.2810   -5.3560  -18.9520 N.am  109  THR109     -0.1938
     67  CA        -0.7460   -6.0290  -20.1360 C.3   109  THR109      0.2028
     68  C         -2.1950   -5.7150  -20.3940 C.2   109  THR109      0.2642
     69  O         -2.9740   -5.5530  -19.4410 O.2   109  THR109     -0.2714
     70  CB        -0.4580   -7.5480  -20.0560 C.3   109  THR109      0.1808
     71  OG1       -0.7240   -8.1510  -21.3130 O.3   109  THR109     -0.2208
     72  CG2       -1.2860   -8.2310  -19.0120 C.3   109  THR109      0.0379
     73  N         -2.5720   -5.6380  -21.6540 N.am  110  THR110     -0.1950
     74  CA        -3.9360   -5.4170  -22.0460 C.3   110  THR110      0.1897
     75  C         -4.2360   -6.2520  -23.2610 C.2   110  THR110      0.2313
     76  O         -3.3540   -6.7620  -23.9380 O.2   110  THR110     -0.2863
     77  CB        -4.2810   -3.9250  -22.2480 C.3   110  THR110      0.1794
     78  OG1       -5.6960   -3.7770  -22.2210 O.3   110  THR110     -0.2208
     79  CG2       -3.6840   -3.3790  -23.5170 C.3   110  THR110      0.0378
     80  N         -6.6150   -6.0450  -26.7850 N.3   112  VAL112     -0.1245
     81  CA        -7.4110   -5.2360  -27.7070 C.3   112  VAL112      0.1561
     82  C         -8.0460   -6.2300  -28.6640 C.2   112  VAL112      0.2260
     83  O         -7.3590   -6.9100  -29.4420 O.2   112  VAL112     -0.2867
     84  CB        -6.5590   -4.1710  -28.4670 C.3   112  VAL112      0.0252
     85  CG1       -7.4500   -3.2120  -29.2430 C.3   112  VAL112      0.0019
     86  CG2       -5.6420   -3.4360  -27.4770 C.3   112  VAL112      0.0019
@<TRIPOS>BOND
     1    33    32   ar
     2    32    34   ar
     3    32    31    1
     4    30    31    1
     5    30    27    1
     6    29    28    2
     7     6     5    1
     8     6     7    1
     9     5     2    1
    10    28    27    1
    11     8     7    1
    12    27    26    1
    13     2     1    1
    14     2     3    1
    15    17    16    1
    16    40    39    1
    17     3     4    2
    18    16    15    1
    19    15    14    1
    20    39    41    1
    21    39    36    1
    22    35    36    1
    23    36    37    1
    24    14    13    1
    25    83    82    2
    26    13    10    1
    27    85    84    1
    28    10     9    1
    29    10    11    1
    30    82    81    1
    31    84    81    1
    32    84    86    1
    33    37    38    2
    34    11    12    2
    35    81    80    1
    36    25    23    1
    37    23    24    1
    38    23    22    1
    39    46    43    1
    40    42    43    1
    41    43    44    1
    42    18    19    1
    43    19    22    1
    44    19    20    1
    45    44    47   am
    46    44    45    2
    47    20    21    2
    48    47    48    1
    49    76    75    2
    50    50    49    2
    51    79    77    1
    52    75    74    1
    53    48    49    1
    54    48    51    1
    55    49    52   am
    56    77    78    1
    57    77    74    1
    58    74    73    1
    59    58    57    1
    60    73    68   am
    61    52    53    1
    62    53    56    1
    63    53    54    1
    64    71    70    1
    65    56    57    1
    66    57    59    1
    67    68    67    1
    68    68    69    2
    69    54    55    2
    70    67    70    1
    71    67    66    1
    72    70    72    1
    73    63    62    2
    74    66    62   am
    75    62    61    1
    76    65    64    1
    77    64    61    1
    78    61    60    1
