@<TRIPOS>MOLECULE
tmp/4ky4C01.pdb
 89 87 0 0 0
SMALL
GASTEIGER

@<TRIPOS>ATOM
      1  N        -20.6670   41.1970  -69.6010 N.3     6  VAL6       -0.1231
      2  CA       -20.9020   41.6580  -68.2570 C.3     6  VAL6        0.1692
      3  C        -20.9200   40.4920  -67.2740 C.2     6  VAL6        0.2592
      4  O        -21.8020   39.6330  -67.3110 O.2     6  VAL6       -0.2718
      5  CB       -22.2020   42.4670  -68.1800 C.3     6  VAL6        0.0266
      6  CG1      -22.4160   43.0310  -66.7790 C.3     6  VAL6        0.0020
      7  CG2      -22.1490   43.5920  -69.2030 C.3     6  VAL6        0.0020
      8  N        -19.9340   40.5030  -66.3800 N.am    7  VAL7       -0.1966
      9  CA       -19.7180   39.4380  -65.4070 C.3     7  VAL7        0.1727
     10  C        -19.3300   39.9400  -64.0500 C.2     7  VAL7        0.2616
     11  O        -18.7910   41.0250  -63.9080 O.2     7  VAL7       -0.2715
     12  CB       -18.5450   38.5790  -65.8180 C.3     7  VAL7        0.0290
     13  CG1      -18.9570   37.6890  -66.9400 C.3     7  VAL7        0.0023
     14  CG2      -17.3710   39.4470  -66.2460 C.3     7  VAL7        0.0023
     15  N        -19.5520   39.0950  -63.0580 N.am    8  ALA8       -0.1977
     16  CA       -18.9950   39.3090  -61.7310 C.3     8  ALA8        0.1597
     17  C        -18.3080   38.0280  -61.3470 C.2     8  ALA8        0.2287
     18  O        -18.9410   36.9860  -61.3760 O.2     8  ALA8       -0.2864
     19  CB       -20.0840   39.6490  -60.7340 C.3     8  ALA8        0.0319
     20  N        -25.8690   32.2730  -57.5180 N.3    21  LEU21      -0.1245
     21  CA       -24.7050   33.1060  -57.2640 C.3    21  LEU21       0.1561
     22  C        -23.9460   32.6360  -56.0510 C.2    21  LEU21       0.2260
     23  O        -24.5370   32.1340  -55.1050 O.2    21  LEU21      -0.2867
     24  CB       -25.1170   34.5490  -57.0780 C.3    21  LEU21       0.0270
     25  CG       -25.7220   35.1550  -58.3560 C.3    21  LEU21       0.0019
     26  CD1      -26.3570   36.5260  -58.1020 C.3    21  LEU21       0.0001
     27  CD2      -24.6770   35.2090  -59.4740 C.3    21  LEU21       0.0001
     28  N        -22.0530   34.3900  -53.8520 N.3    23  TRP23      -0.1241
     29  CA       -21.8770   35.3970  -52.7970 C.3    23  TRP23       0.1605
     30  C        -23.2100   36.0010  -52.3880 C.2    23  TRP23       0.2264
     31  O        -24.1320   36.0930  -53.1980 O.2    23  TRP23      -0.2867
     32  CB       -20.8970   36.5240  -53.2300 C.3    23  TRP23       0.0550
     33  CG       -20.5810   36.5860  -54.7090 C.ar   23  TRP23       0.0003
     34  CD1      -19.4390   36.1440  -55.3400 C.ar   23  TRP23       0.0946
     35  CD2      -21.4230   37.0900  -55.7280 C.ar   23  TRP23       0.0152
     36  NE1      -19.5270   36.3480  -56.7030 N.ar   23  TRP23      -0.2442
     37  CE2      -20.7370   36.9300  -56.9640 C.ar   23  TRP23       0.0810
     38  CE3      -22.6910   37.6560  -55.7260 C.ar   23  TRP23       0.0012
     39  CZ2      -21.2830   37.3170  -58.1640 C.ar   23  TRP23       0.0191
     40  CZ3      -23.2290   38.0610  -56.9200 C.ar   23  TRP23       0.0001
     41  CH2      -22.5300   37.8880  -58.1270 C.ar   23  TRP23       0.0015
     42  N        -23.3800   46.3480  -57.0930 N.3    29  ASP29      -0.1225
     43  CA       -23.1150   45.6280  -58.3330 C.3    29  ASP29       0.1805
     44  C        -24.3590   45.5830  -59.2010 C.2    29  ASP29       0.2597
     45  O        -24.2510   45.6460  -60.4110 O.2    29  ASP29      -0.2718
     46  CB       -22.6260   44.2010  -58.0880 C.3    29  ASP29       0.1424
     47  CG       -22.4450   43.4330  -59.3790 C.2    29  ASP29       0.3668
     48  OD1      -21.7290   43.9250  -60.2660 O.co2  29  ASP29      -0.2456
     49  OD2      -23.0370   42.3510  -59.5230 O.co2  29  ASP29      -0.2456
     50  N        -25.5320   45.4500  -58.5810 N.am   30  PHE30      -0.1976
     51  CA       -26.7730   45.3020  -59.3290 C.3    30  PHE30       0.1639
     52  C        -27.1540   46.6400  -59.9800 C.2    30  PHE30       0.2290
     53  O        -27.5110   46.6730  -61.1550 O.2    30  PHE30      -0.2864
     54  CB       -27.9000   44.7190  -58.4450 C.3    30  PHE30       0.0560
     55  CG       -27.9950   43.1930  -58.4690 C.ar   30  PHE30      -0.0200
     56  CD1      -28.2770   42.5060  -59.6590 C.ar   30  PHE30      -0.0042
     57  CD2      -27.8440   42.4400  -57.3070 C.ar   30  PHE30      -0.0042
     58  CE1      -28.3800   41.1170  -59.6850 C.ar   30  PHE30      -0.0003
     59  CE2      -27.9560   41.0460  -57.3330 C.ar   30  PHE30      -0.0003
     60  CZ       -28.2280   40.3890  -58.5180 C.ar   30  PHE30      -0.0000
     61  N        -25.0990   48.8750  -60.8790 N.3    32  HIS32      -0.1241
     62  CA       -24.1340   48.8980  -61.9870 C.3    32  HIS32       0.1621
     63  C        -24.6020   48.0920  -63.1710 C.2    32  HIS32       0.2264
     64  O        -24.6290   48.5880  -64.2820 O.2    32  HIS32      -0.2867
     65  CB       -22.7950   48.3690  -61.4840 C.3    32  HIS32       0.0745
     66  CG       -21.8550   47.9090  -62.5530 C.ar   32  HIS32       0.0817
     67  ND1      -20.8800   48.7220  -63.0840 N.ar   32  HIS32      -0.2268
     68  CD2      -21.6840   46.6930  -63.1250 C.ar   32  HIS32       0.1154
     69  CE1      -20.1690   48.0380  -63.9630 C.ar   32  HIS32       0.1986
     70  NE2      -20.6370   46.8040  -64.0080 N.ar   32  HIS32      -0.2212
     71  N        -16.7800   44.0040  -69.0240 N.3   117  TYR117     -0.1241
     72  CA       -17.2340   44.7240  -67.8440 C.3   117  TYR117      0.1605
     73  C        -17.2100   43.7680  -66.6540 C.2   117  TYR117      0.2264
     74  O        -18.1180   42.9670  -66.4750 O.2   117  TYR117     -0.2867
     75  CB       -18.6580   45.2670  -68.0410 C.3   117  TYR117      0.0534
     76  CG       -18.7960   46.4370  -69.0040 C.ar  117  TYR117     -0.0201
     77  CD1      -18.9270   46.2170  -70.3830 C.ar  117  TYR117     -0.0009
     78  CD2      -18.8120   47.7480  -68.5420 C.ar  117  TYR117     -0.0009
     79  CE1      -19.0550   47.2660  -71.2710 C.ar  117  TYR117      0.0417
     80  CE2      -18.9350   48.8050  -69.4290 C.ar  117  TYR117      0.0417
     81  CZ       -19.0590   48.5570  -70.7940 C.ar  117  TYR117      0.1957
     82  OH       -19.1900   49.5900  -71.6870 O.3   117  TYR117     -0.2866
     83  N        -16.9920   42.9260  -62.6400 N.3   119  THR119     -0.1218
     84  CA       -17.0140   43.1410  -61.1900 C.3   119  THR119      0.1862
     85  C        -16.0790   42.1340  -60.4990 C.2   119  THR119      0.2287
     86  O        -16.3250   40.9530  -60.5260 O.2   119  THR119     -0.2866
     87  CB       -18.4170   42.9860  -60.6000 C.3   119  THR119      0.1770
     88  OG1      -19.3180   43.8070  -61.3260 O.3   119  THR119     -0.2211
     89  CG2      -18.4350   43.4150  -59.1360 C.3   119  THR119      0.0375
@<TRIPOS>BOND
     1    82    81    1
     2    79    81   ar
     3    79    77   ar
     4    81    80   ar
     5    77    76   ar
     6     1     2    1
     7    80    78   ar
     8     7     5    1
     9    71    72    1
    10    76    78   ar
    11    76    75    1
    12     2     5    1
    13     2     3    1
    14     5     6    1
    15    75    72    1
    16    72    73    1
    17     4     3    2
    18     3     8   am
    19    13    12    1
    20    73    74    2
    21     8     9    1
    22    14    12    1
    23    12     9    1
    24     9    10    1
    25    64    63    2
    26    10    11    2
    27    10    15   am
    28    70    69   ar
    29    70    68   ar
    30    69    67   ar
    31    63    62    1
    32    68    66   ar
    33    67    66   ar
    34    15    16    1
    35    83    84    1
    36    66    65    1
    37    62    65    1
    38    62    61    1
    39    16    17    1
    40    16    19    1
    41    18    17    2
    42    88    87    1
    43    84    87    1
    44    84    85    1
    45    53    52    2
    46    87    89    1
    47    86    85    2
    48    45    44    2
    49    48    47   ar
    50    52    51    1
    51    58    56   ar
    52    58    60   ar
    53    56    55   ar
    54    49    47   ar
    55    27    25    1
    56    47    46    1
    57    51    50    1
    58    51    54    1
    59    44    50   am
    60    44    43    1
    61    60    59   ar
    62    55    54    1
    63    55    57   ar
    64    25    26    1
    65    25    24    1
    66    43    46    1
    67    43    42    1
    68    39    41   ar
    69    39    37   ar
    70    41    40   ar
    71    20    21    1
    72    59    57   ar
    73    21    24    1
    74    21    22    1
    75    37    36   ar
    76    37    35   ar
    77    40    38   ar
    78    36    34   ar
    79    22    23    2
    80    35    38   ar
    81    35    33   ar
    82    34    33   ar
    83    33    32    1
    84    28    29    1
    85    32    29    1
    86    31    30    2
    87    29    30    1
