@<TRIPOS>MOLECULE
tmp/4ky4C03.pdb
 150 145 0 0 0
SMALL
GASTEIGER

@<TRIPOS>ATOM
      1  N          3.0840   44.0520  -45.3490 N.3   253  PHE253     -0.1241
      2  CA         3.3040   43.2350  -44.1510 C.3   253  PHE253      0.1605
      3  C          2.2930   43.5610  -43.0410 C.2   253  PHE253      0.2264
      4  O          2.5730   44.3370  -42.1750 O.2   253  PHE253     -0.2867
      5  CB         4.7250   43.4770  -43.6600 C.3   253  PHE253      0.0534
      6  CG         5.1710   42.5860  -42.5380 C.ar  253  PHE253     -0.0203
      7  CD1        4.6690   41.3010  -42.3720 C.ar  253  PHE253     -0.0042
      8  CD2        6.1790   43.0140  -41.6870 C.ar  253  PHE253     -0.0042
      9  CE1        5.1340   40.4900  -41.3500 C.ar  253  PHE253     -0.0003
     10  CE2        6.6410   42.2110  -40.6600 C.ar  253  PHE253     -0.0003
     11  CZ         6.1230   40.9500  -40.4900 C.ar  253  PHE253     -0.0000
     12  N          3.0450   46.3700  -34.3470 N.3   260  GLU260     -0.1245
     13  CA         3.6940   47.6150  -34.0020 C.3   260  GLU260      0.1567
     14  C          2.6760   48.5850  -33.3840 C.2   260  GLU260      0.2260
     15  O          2.9690   49.3270  -32.4660 O.2   260  GLU260     -0.2867
     16  CB         4.3460   48.1970  -35.2480 C.3   260  GLU260      0.0388
     17  CG         5.2450   49.4000  -34.9880 C.3   260  GLU260      0.1160
     18  CD         5.3800   50.3330  -36.1940 C.2   260  GLU260      0.3649
     19  OE1        4.3880   50.5190  -36.9360 O.co2 260  GLU260     -0.2457
     20  OE2        6.4700   50.9200  -36.3790 O.co2 260  GLU260     -0.2457
     21  N         11.1980   45.2460  -37.9810 N.3   281  ILE281     -0.1231
     22  CA        11.2680   46.5880  -38.5760 C.3   281  ILE281      0.1692
     23  C         12.0440   47.6210  -37.7560 C.2   281  ILE281      0.2592
     24  O         12.4250   48.6420  -38.2830 O.2   281  ILE281     -0.2718
     25  CB         9.8600   47.1620  -38.8250 C.3   281  ILE281      0.0266
     26  CG1        9.1110   47.3130  -37.4950 C.3   281  ILE281      0.0019
     27  CG2        9.0830   46.2920  -39.8090 C.3   281  ILE281      0.0020
     28  CD1        7.6260   47.4780  -37.6500 C.3   281  ILE281      0.0001
     29  N         12.2680   47.3590  -36.4760 N.am  282  TRP282     -0.1976
     30  CA        12.9840   48.2930  -35.5990 C.3   282  TRP282      0.1640
     31  C         14.4140   47.9090  -35.2920 C.2   282  TRP282      0.2290
     32  O         15.0890   48.6530  -34.6140 O.2   282  TRP282     -0.2864
     33  CB        12.2300   48.4730  -34.2750 C.3   282  TRP282      0.0576
     34  CG        11.1960   49.5050  -34.3870 C.ar  282  TRP282      0.0006
     35  CD1        9.8480   49.3280  -34.5840 C.ar  282  TRP282      0.0946
     36  CD2       11.4170   50.9010  -34.3560 C.ar  282  TRP282      0.0152
     37  NE1        9.2270   50.5380  -34.6700 N.ar  282  TRP282     -0.2442
     38  CE2       10.1720   51.5250  -34.5340 C.ar  282  TRP282      0.0810
     39  CE3       12.5540   51.6930  -34.1930 C.ar  282  TRP282      0.0012
     40  CZ2       10.0380   52.9050  -34.5460 C.ar  282  TRP282      0.0191
     41  CZ3       12.4190   53.0550  -34.2060 C.ar  282  TRP282      0.0001
     42  CH2       11.1750   53.6500  -34.3780 C.ar  282  TRP282      0.0015
     43  N         17.7170   49.9440  -36.1900 N.3   285  ASN285     -0.1240
     44  CA        17.7510   51.2440  -35.5300 C.3   285  ASN285      0.1653
     45  C         17.8620   51.1230  -34.0130 C.2   285  ASN285      0.2266
     46  O         17.7760   52.1210  -33.3220 O.2   285  ASN285     -0.2867
     47  CB        16.5130   52.0880  -35.9160 C.3   285  ASN285      0.1155
     48  CG        16.3870   52.2900  -37.4200 C.2   285  ASN285      0.2627
     49  OD1       15.4230   51.8420  -38.0310 O.2   285  ASN285     -0.2716
     50  ND2       17.3840   52.9190  -38.0240 N.am  285  ASN285     -0.0877
     51  N          7.7010   57.1900  -29.8710 N.3   308  TYR308     -0.1241
     52  CA         6.3070   56.9710  -30.2640 C.3   308  TYR308      0.1605
     53  C          5.3420   56.6730  -29.1180 C.2   308  TYR308      0.2264
     54  O          4.8280   57.5940  -28.4910 O.2   308  TYR308     -0.2867
     55  CB         6.2290   55.8920  -31.3210 C.3   308  TYR308      0.0534
     56  CG         6.8180   56.2880  -32.6550 C.ar  308  TYR308     -0.0201
     57  CD1        6.1520   57.1310  -33.5180 C.ar  308  TYR308     -0.0009
     58  CD2        8.0210   55.7900  -33.0550 C.ar  308  TYR308     -0.0009
     59  CE1        6.6910   57.4680  -34.7520 C.ar  308  TYR308      0.0417
     60  CE2        8.5690   56.1270  -34.2650 C.ar  308  TYR308      0.0417
     61  CZ         7.9040   56.9520  -35.1230 C.ar  308  TYR308      0.1957
     62  OH         8.5120   57.2410  -36.3360 O.3   308  TYR308     -0.2866
     63  N         15.3360   56.9960  -32.8790 N.3   365  LEU365     -0.1245
     64  CA        14.9540   57.7490  -34.0270 C.3   365  LEU365      0.1561
     65  C         13.8870   58.7550  -33.6180 C.2   365  LEU365      0.2260
     66  O         12.9200   58.3980  -32.9410 O.2   365  LEU365     -0.2867
     67  CB        14.4360   56.8140  -35.1270 C.3   365  LEU365      0.0270
     68  CG        15.3360   56.5790  -36.3510 C.3   365  LEU365      0.0019
     69  CD1       14.4960   56.1360  -37.5530 C.3   365  LEU365      0.0001
     70  CD2       16.1500   57.8160  -36.7160 C.3   365  LEU365      0.0001
     71  N          8.5710   59.8830  -37.0290 N.3   368  CYS368     -0.1221
     72  CA         8.3280   60.2420  -38.4400 C.3   368  CYS368      0.1808
     73  C          6.8750   60.6550  -38.5640 C.2   368  CYS368      0.2601
     74  O          6.5570   61.7350  -39.0280 O.2   368  CYS368     -0.2717
     75  CB         8.5930   59.0540  -39.3830 C.3   368  CYS368      0.0970
     76  SG        10.3320   58.6280  -39.6470 S.3   368  CYS368     -0.0800
     77  N          5.9950   59.7660  -38.1630 N.am  369  HIS369     -0.1975
     78  CA         4.6130   60.1290  -37.9680 C.3   369  HIS369      0.1656
     79  C          4.4920   60.7460  -36.5630 C.2   369  HIS369      0.2291
     80  O          4.5820   60.0440  -35.5460 O.2   369  HIS369     -0.2864
     81  CB         3.6740   58.9210  -38.1660 C.3   369  HIS369      0.0771
     82  CG         4.1450   57.6530  -37.5230 C.ar  369  HIS369      0.0820
     83  ND1        3.7870   57.2870  -36.2420 N.ar  369  HIS369     -0.2267
     84  CD2        4.9300   56.6570  -37.9920 C.ar  369  HIS369      0.1154
     85  CE1        4.3340   56.1230  -35.9490 C.ar  369  HIS369      0.1986
     86  NE2        5.0400   55.7220  -36.9900 N.ar  369  HIS369     -0.2212
     87  N          9.4610   57.6330  -46.2720 N.3   392  ASP392     -0.1239
     88  CA        10.0060   56.7150  -47.2480 C.3   392  ASP392      0.1674
     89  C          8.8400   56.1550  -48.0200 C.2   392  ASP392      0.2266
     90  O          8.0850   55.3460  -47.5310 O.2   392  ASP392     -0.2867
     91  CB        10.8270   55.6060  -46.5980 C.3   392  ASP392      0.1410
     92  CG        11.5100   54.7150  -47.6220 C.2   392  ASP392      0.3668
     93  OD1       11.3200   54.8840  -48.8610 O.co2 392  ASP392     -0.2456
     94  OD2       12.2610   53.8380  -47.1710 O.co2 392  ASP392     -0.2456
     95  N          8.9190   52.2590  -48.8250 N.3   395  LEU395     -0.1231
     96  CA         8.8770   51.2630  -47.7950 C.3   395  LEU395      0.1693
     97  C          7.8810   51.6200  -46.7280 C.2   395  LEU395      0.2592
     98  O          6.9310   50.8850  -46.5080 O.2   395  LEU395     -0.2718
     99  CB        10.2730   51.1060  -47.2090 C.3   395  LEU395      0.0284
    100  CG        10.6000   49.8100  -46.4710 C.3   395  LEU395      0.0019
    101  CD1       10.5790   48.6290  -47.4350 C.3   395  LEU395      0.0001
    102  CD2       11.9630   49.9620  -45.8020 C.3   395  LEU395      0.0001
    103  N          8.0850   52.7650  -46.0920 N.am  396  GLY396     -0.1957
    104  CA         7.2770   53.1620  -44.9430 C.3   396  GLY396      0.1869
    105  C          5.8390   53.5730  -45.2290 C.2   396  GLY396      0.2309
    106  O          4.9390   53.2900  -44.4550 O.2   396  GLY396     -0.2863
    107  N          2.9250   51.1230  -45.2410 N.3   399  PHE399     -0.1227
    108  CA         2.8130   50.5790  -43.8830 C.3   399  PHE399      0.1736
    109  C          2.1020   51.5350  -42.9510 C.2   399  PHE399      0.2595
    110  O          1.2190   51.1410  -42.1970 O.2   399  PHE399     -0.2718
    111  CB         4.2230   50.3420  -43.3650 C.3   399  PHE399      0.0547
    112  CG         4.3180   49.4200  -42.2130 C.ar  399  PHE399     -0.0202
    113  CD1        4.3170   49.9130  -40.9150 C.ar  399  PHE399     -0.0042
    114  CD2        4.4870   48.0710  -42.4160 C.ar  399  PHE399     -0.0042
    115  CE1        4.4520   49.0680  -39.8370 C.ar  399  PHE399     -0.0003
    116  CE2        4.6210   47.2120  -41.3280 C.ar  399  PHE399     -0.0003
    117  CZ         4.5960   47.7160  -40.0350 C.ar  399  PHE399     -0.0000
    118  N          2.5290   52.7910  -43.0120 N.am  400  ASN400     -0.1974
    119  CA         1.9260   53.8980  -42.2920 C.3   400  ASN400      0.1688
    120  C          0.4580   54.1700  -42.6150 C.2   400  ASN400      0.2292
    121  O         -0.3310   54.4620  -41.7290 O.2   400  ASN400     -0.2864
    122  CB         2.7500   55.1590  -42.5660 C.3   400  ASN400      0.1181
    123  CG         4.1310   55.1050  -41.9280 C.2   400  ASN400      0.2629
    124  OD1        5.1380   55.1360  -42.6220 O.2   400  ASN400     -0.2716
    125  ND2        4.1780   55.0060  -40.5970 N.am  400  ASN400     -0.0877
    126  N         14.2030   56.6280  -52.0810 N.3   432  TYR432     -0.1241
    127  CA        15.6380   56.2950  -52.0530 C.3   432  TYR432      0.1605
    128  C         16.0830   55.9130  -53.4490 C.2   432  TYR432      0.2264
    129  O         15.3650   55.2070  -54.1620 O.2   432  TYR432     -0.2867
    130  CB        15.9380   55.1780  -51.0210 C.3   432  TYR432      0.0534
    131  CG        15.9170   55.7420  -49.6350 C.ar  432  TYR432     -0.0201
    132  CD1       16.9730   56.4950  -49.1830 C.ar  432  TYR432     -0.0009
    133  CD2       14.8090   55.6160  -48.8150 C.ar  432  TYR432     -0.0009
    134  CE1       16.9610   57.0830  -47.9310 C.ar  432  TYR432      0.0417
    135  CE2       14.7750   56.2110  -47.5550 C.ar  432  TYR432      0.0417
    136  CZ        15.8640   56.9500  -47.1060 C.ar  432  TYR432      0.1957
    137  OH        15.9010   57.5590  -45.8490 O.3   432  TYR432     -0.2866
    138  N         16.1950   48.5830  -46.3610 N.3   487  MET487     -0.1230
    139  CA        16.0250   49.7680  -45.5030 C.3   487  MET487      0.1702
    140  C         17.3220   50.5630  -45.3800 C.2   487  MET487      0.2592
    141  O         18.3680   50.0050  -45.0590 O.2   487  MET487     -0.2718
    142  CB        15.5600   49.3540  -44.1080 C.3   487  MET487      0.0401
    143  CG        15.0770   50.4900  -43.2290 C.3   487  MET487      0.0596
    144  SD        15.2370   50.1150  -41.4770 S.3   487  MET487     -0.1393
    145  CE        14.1500   48.7000  -41.3460 C.3   487  MET487      0.0692
    146  N         17.2370   51.8660  -45.6390 N.am  488  ALA488     -0.1980
    147  CA        18.3490   52.7760  -45.4330 C.3   488  ALA488      0.1597
    148  C         18.4160   53.0910  -43.9370 C.2   488  ALA488      0.2287
    149  O         17.5000   53.6970  -43.3650 O.2   488  ALA488     -0.2864
    150  CB        18.1760   54.0350  -46.2740 C.3   488  ALA488      0.0319
@<TRIPOS>BOND
     1   129   128    2
     2   128   127    1
     3   126   127    1
     4   127   130    1
     5   130   131    1
     6   131   132   ar
     7   131   133   ar
     8   132   134   ar
     9    93    92   ar
    10    95    96    1
    11   133   135   ar
    12    89    90    2
    13    89    88    1
    14   134   136   ar
    15    96    99    1
    16    96    97    1
    17    92    94   ar
    18    92    91    1
    19   135   136   ar
    20   101   100    1
    21    88    91    1
    22    88    87    1
    23    99   100    1
    24   136   137    1
    25    97    98    2
    26    97   103   am
    27   100   102    1
    28   138   139    1
    29   150   147    1
    30   103   104    1
    31   146   147    1
    32   146   140   am
    33   139   140    1
    34   139   142    1
    35   147   148    1
    36   140   141    2
    37     1     2    1
    38   107   108    1
    39   105   104    1
    40   105   106    2
    41     2     5    1
    42     2     3    1
    43   142   143    1
    44   148   149    2
    45   108   111    1
    46   108   109    1
    47     5     6    1
    48   111   112    1
    49   143   144    1
    50     3     4    2
    51   118   109   am
    52   118   119    1
    53   109   110    2
    54   124   123    2
    55   120   119    1
    56   120   121    2
    57   122   119    1
    58   122   123    1
    59     6     7   ar
    60     6     8   ar
    61   114   112   ar
    62   114   116   ar
    63     7     9   ar
    64   112   113   ar
    65   123   125   am
    66     8    10   ar
    67   144   145    1
    68     9    11   ar
    69   116   117   ar
    70   113   115   ar
    71    10    11   ar
    72   117   115   ar
    73    27    25    1
    74    76    75    1
    75    75    72    1
    76    74    73    2
    77    25    22    1
    78    25    26    1
    79    22    21    1
    80    22    23    1
    81    73    72    1
    82    73    77   am
    83    72    71    1
    84    24    23    2
    85    81    78    1
    86    81    82    1
    87    77    78    1
    88    49    48    2
    89    50    48   am
    90    84    82   ar
    91    84    86   ar
    92    78    79    1
    93    23    29   am
    94    28    26    1
    95    69    68    1
    96    82    83   ar
    97    48    47    1
    98    86    85   ar
    99    19    18   ar
   100    70    68    1
   101    79    80    2
   102    29    30    1
   103    20    18   ar
   104    68    67    1
   105    62    61    1
   106    83    85   ar
   107    18    17    1
   108    43    44    1
   109    47    44    1
   110    30    31    1
   111    30    33    1
   112    44    45    1
   113    31    32    2
   114    16    17    1
   115    16    13    1
   116    67    64    1
   117    61    59   ar
   118    61    60   ar
   119    59    57   ar
   120    37    35   ar
   121    37    38   ar
   122    35    34   ar
   123    40    38   ar
   124    40    42   ar
   125    38    36   ar
   126    34    36   ar
   127    34    33    1
   128    42    41   ar
   129    36    39   ar
   130    12    13    1
   131    60    58   ar
   132    41    39   ar
   133    64    65    1
   134    64    63    1
   135    45    46    2
   136    13    14    1
   137    65    66    2
   138    57    56   ar
   139    14    15    2
   140    58    56   ar
   141    56    55    1
   142    55    52    1
   143    52    51    1
   144    52    53    1
   145    53    54    2
