@<TRIPOS>MOLECULE
tmp/4ky8C03.pdb
 221 211 0 0 0
SMALL
GASTEIGER

@<TRIPOS>ATOM
      1  N        209.1120 -146.5470  513.0510 N.3   241  ARG241     -0.1231
      2  CA       208.4500 -147.5900  513.8280 C.3   241  ARG241      0.1694
      3  C        209.0120 -148.9780  513.5220 C.2   241  ARG241      0.2592
      4  O        208.9880 -149.8660  514.3740 O.2   241  ARG241     -0.2718
      5  CB       206.9370 -147.5680  513.5900 C.3   241  ARG241      0.0321
      6  CG       206.5330 -147.8390  512.1500 C.3   241  ARG241      0.0489
      7  CD       205.0300 -148.0120  512.0080 C.3   241  ARG241      0.2205
      8  NE       204.6720 -148.4520  510.6630 N.pl3 241  ARG241     -0.0865
      9  CZ       204.6570 -149.7230  510.2740 C.cat 241  ARG241      0.5346
     10  NH1      204.3220 -150.0360  509.0300 N.pl3 241  ARG241      0.1354
     11  NH2      204.9800 -150.6830  511.1310 N.pl3 241  ARG241      0.1354
     12  N        209.5150 -149.1590  512.3050 N.am  242  THR242     -0.1953
     13  CA       210.1160 -150.4260  511.9080 C.3   242  THR242      0.1897
     14  C        211.6120 -150.4120  512.2000 C.2   242  THR242      0.2313
     15  O        212.1960 -149.3520  512.4320 O.2   242  THR242     -0.2863
     16  CB       209.8960 -150.7150  510.4130 C.3   242  THR242      0.1794
     17  OG1      210.7310 -149.8550  509.6280 O.3   242  THR242     -0.2208
     18  CG2      208.4420 -150.4850  510.0360 C.3   242  THR242      0.0378
     19  N        210.4850 -150.4700  486.0230 N.3   268  LYS268     -0.1231
     20  CA       210.2840 -151.6700  486.8240 C.3   268  LYS268      0.1693
     21  C        208.9260 -152.2700  486.4920 C.2   268  LYS268      0.2592
     22  O        207.9300 -151.5520  486.4120 O.2   268  LYS268     -0.2718
     23  CB       210.3610 -151.3490  488.3180 C.3   268  LYS268      0.0285
     24  CG       210.0810 -152.5460  489.2180 C.3   268  LYS268      0.0035
     25  CD       210.0540 -152.1590  490.6890 C.3   268  LYS268      0.0206
     26  CE       208.9470 -151.1610  490.9800 C.3   268  LYS268      0.1093
     27  NZ       208.8460 -150.8500  492.4320 N.3   268  LYS268     -0.1314
     28  N        208.8870 -153.5820  486.2850 N.am  269  LYS269     -0.1966
     29  CA       207.6280 -154.2570  485.9950 C.3   269  LYS269      0.1728
     30  C        206.7390 -154.2580  487.2340 C.2   269  LYS269      0.2616
     31  O        207.0060 -154.9710  488.2020 O.2   269  LYS269     -0.2715
     32  CB       207.8790 -155.6850  485.5120 C.3   269  LYS269      0.0311
     33  CG       206.6260 -156.4250  485.0730 C.3   269  LYS269      0.0038
     34  CD       206.9660 -157.8020  484.5260 C.3   269  LYS269      0.0206
     35  CE       205.7200 -158.5350  484.0560 C.3   269  LYS269      0.1093
     36  NZ       206.0470 -159.8690  483.4810 N.3   269  LYS269     -0.1314
     37  N        205.6830 -153.4520  487.1950 N.am  270  VAL270     -0.1963
     38  CA       204.7910 -153.2970  488.3380 C.3   270  VAL270      0.1727
     39  C        203.5810 -154.2210  488.2290 C.2   270  VAL270      0.2616
     40  O        202.9230 -154.2740  487.1890 O.2   270  VAL270     -0.2715
     41  CB       204.3020 -151.8420  488.4720 C.3   270  VAL270      0.0290
     42  CG1      203.5550 -151.6550  489.7790 C.3   270  VAL270      0.0023
     43  CG2      205.4730 -150.8780  488.3910 C.3   270  VAL270      0.0023
     44  N        203.2940 -154.9460  489.3060 N.am  271  ALA271     -0.1977
     45  CA       202.1470 -155.8480  489.3420 C.3   271  ALA271      0.1597
     46  C        200.8390 -155.0630  489.3280 C.2   271  ALA271      0.2287
     47  O        200.3070 -154.7090  490.3790 O.2   271  ALA271     -0.2864
     48  CB       202.2160 -156.7470  490.5660 C.3   271  ALA271      0.0319
     49  N        197.5280 -156.6350  491.1490 N.3   274  SER274     -0.1217
     50  CA       197.4500 -156.4520  492.5930 C.3   274  SER274      0.1889
     51  C        196.9660 -155.0450  492.9250 C.2   274  SER274      0.2288
     52  O        196.1870 -154.8450  493.8590 O.2   274  SER274     -0.2866
     53  CB       198.8130 -156.7050  493.2370 C.3   274  SER274      0.2089
     54  OG       199.3350 -157.9630  492.8460 O.3   274  SER274     -0.2183
     55  N        193.4610 -154.3570  494.7840 N.3   278  GLU278     -0.1245
     56  CA       193.4660 -153.5710  496.0120 C.3   278  GLU278      0.1567
     57  C        192.5210 -152.3810  495.8820 C.2   278  GLU278      0.2260
     58  O        191.8300 -152.0180  496.8360 O.2   278  GLU278     -0.2867
     59  CB       194.8780 -153.0770  496.3330 C.3   278  GLU278      0.0388
     60  CG       194.9600 -152.2110  497.5820 C.3   278  GLU278      0.1160
     61  CD       196.2670 -151.4490  497.6890 C.2   278  GLU278      0.3649
     62  OE1      196.9550 -151.2970  496.6570 O.co2 278  GLU278     -0.2457
     63  OE2      196.6060 -151.0020  498.8050 O.co2 278  GLU278     -0.2457
     64  N        195.4710 -164.1320  495.5390 N.3   296  LYS296     -0.1245
     65  CA       196.9250 -164.1360  495.3860 C.3   296  LYS296      0.1561
     66  C        197.5370 -162.7350  495.3740 C.2   296  LYS296      0.2260
     67  O        198.4260 -162.4430  494.5740 O.2   296  LYS296     -0.2867
     68  CB       197.3380 -164.9220  494.1380 C.3   296  LYS296      0.0271
     69  CG       196.9800 -166.4000  494.2000 C.3   296  LYS296      0.0035
     70  CD       197.4380 -167.1380  492.9530 C.3   296  LYS296      0.0206
     71  CE       197.0770 -168.6140  493.0220 C.3   296  LYS296      0.1093
     72  NZ       197.5180 -169.3520  491.8060 N.3   296  LYS296     -0.1314
     73  N        199.4030 -160.3290  498.0960 N.3   298  TYR298     -0.1227
     74  CA       199.9780 -160.3810  499.4350 C.3   298  TYR298      0.1736
     75  C        200.5870 -159.0500  499.8690 C.2   298  TYR298      0.2595
     76  O        201.5800 -159.0250  500.5970 O.2   298  TYR298     -0.2718
     77  CB       201.0430 -161.4770  499.5060 C.3   298  TYR298      0.0548
     78  CG       200.6620 -162.7530  498.7900 C.ar  298  TYR298     -0.0200
     79  CD1      199.8840 -163.7190  499.4120 C.ar  298  TYR298     -0.0009
     80  CD2      201.0800 -162.9870  497.4860 C.ar  298  TYR298     -0.0009
     81  CE1      199.5340 -164.8860  498.7560 C.ar  298  TYR298      0.0417
     82  CE2      200.7350 -164.1480  496.8220 C.ar  298  TYR298      0.0417
     83  CZ       199.9630 -165.0940  497.4610 C.ar  298  TYR298      0.1957
     84  OH       199.6200 -166.2520  496.8000 O.3   298  TYR298     -0.2866
     85  N        199.9910 -157.9460  499.4290 N.am  299  ILE299     -0.1966
     86  CA       200.5130 -156.6280  499.7730 C.3   299  ILE299      0.1727
     87  C        200.0790 -156.1910  501.1700 C.2   299  ILE299      0.2616
     88  O        200.7030 -155.3210  501.7770 O.2   299  ILE299     -0.2715
     89  CB       200.1100 -155.5610  498.7350 C.3   299  ILE299      0.0290
     90  CG1      198.5940 -155.3760  498.7100 C.3   299  ILE299      0.0022
     91  CG2      200.6220 -155.9420  497.3550 C.3   299  ILE299      0.0023
     92  CD1      198.1290 -154.3470  497.7060 C.3   299  ILE299      0.0001
     93  N        199.0100 -156.7970  501.6760 N.am  300  TRP300     -0.1974
     94  CA       198.5320 -156.5060  503.0250 C.3   300  TRP300      0.1640
     95  C        198.7270 -157.6900  503.9690 C.2   300  TRP300      0.2290
     96  O        197.9470 -157.8850  504.9020 O.2   300  TRP300     -0.2864
     97  CB       197.0590 -156.0890  503.0020 C.3   300  TRP300      0.0576
     98  CG       196.8400 -154.6810  502.5380 C.ar  300  TRP300      0.0006
     99  CD1      196.5540 -154.2700  501.2690 C.ar  300  TRP300      0.0946
    100  CD2      196.8780 -153.4980  503.3440 C.ar  300  TRP300      0.0152
    101  NE1      196.4180 -152.9020  501.2340 N.ar  300  TRP300     -0.2442
    102  CE2      196.6110 -152.4050  502.4960 C.ar  300  TRP300      0.0810
    103  CE3      197.1150 -153.2560  504.7010 C.ar  300  TRP300      0.0012
    104  CZ2      196.5750 -151.0910  502.9590 C.ar  300  TRP300      0.0191
    105  CZ3      197.0770 -151.9510  505.1590 C.ar  300  TRP300      0.0001
    106  CH2      196.8100 -150.8860  504.2910 C.ar  300  TRP300      0.0015
    107  N        201.1290 -156.3350  507.3300 N.3   303  ASN303     -0.1240
    108  CA       200.3630 -155.4580  508.2080 C.3   303  ASN303      0.1653
    109  C        199.0830 -156.1220  508.7010 C.2   303  ASN303      0.2266
    110  O        198.2250 -155.4720  509.2990 O.2   303  ASN303     -0.2867
    111  CB       200.0270 -154.1440  507.4990 C.3   303  ASN303      0.1155
    112  CG       201.2620 -153.3900  507.0520 C.2   303  ASN303      0.2627
    113  OD1      201.7410 -153.5710  505.9320 O.2   303  ASN303     -0.2716
    114  ND2      201.7820 -152.5340  507.9250 N.am  303  ASN303     -0.0877
    115  N        196.8400 -149.9190  510.1590 N.3   383  LEU383     -0.1245
    116  CA       197.8380 -148.9920  509.6440 C.3   383  LEU383      0.1561
    117  C        197.1670 -147.7030  509.1840 C.2   383  LEU383      0.2260
    118  O        196.3340 -147.7260  508.2780 O.2   383  LEU383     -0.2867
    119  CB       198.6120 -149.6260  508.4880 C.3   383  LEU383      0.0270
    120  CG       199.7480 -148.7910  507.8960 C.3   383  LEU383      0.0019
    121  CD1      200.8310 -148.5550  508.9350 C.3   383  LEU383      0.0001
    122  CD2      200.3230 -149.4680  506.6620 C.3   383  LEU383      0.0001
    123  N        198.1030 -143.7320  504.5240 N.3   386  CYS386     -0.1235
    124  CA       199.2680 -143.1270  503.8920 C.3   386  CYS386      0.1677
    125  C        198.8120 -142.1630  502.8070 C.2   386  CYS386      0.2270
    126  O        199.1190 -140.9730  502.8610 O.2   386  CYS386     -0.2867
    127  CB       200.1970 -144.1960  503.3220 C.3   386  CYS386      0.0956
    128  SG       201.0020 -145.1960  504.5910 S.3   386  CYS386     -0.0801
    129  N        206.7030 -144.8090  500.5580 N.3   410  ASP410     -0.1239
    130  CA       207.7650 -145.7640  500.2770 C.3   410  ASP410      0.1674
    131  C        208.0440 -145.7260  498.7810 C.2   410  ASP410      0.2266
    132  O        207.3130 -146.3230  497.9920 O.2   410  ASP410     -0.2867
    133  CB       207.3510 -147.1730  500.7050 C.3   410  ASP410      0.1410
    134  CG       208.5210 -148.1420  500.7500 C.2   410  ASP410      0.3668
    135  OD1      209.5020 -147.9440  500.0020 O.co2 410  ASP410     -0.2456
    136  OD2      208.4570 -149.1120  501.5340 O.co2 410  ASP410     -0.2456
    137  N        210.0080 -147.2130  497.0660 N.3   412  GLY412     -0.1210
    138  CA       210.3230 -148.5180  496.5160 C.3   412  GLY412      0.1956
    139  C        209.0900 -149.3610  496.2540 C.2   412  GLY412      0.2612
    140  O        208.9790 -150.0080  495.2130 O.2   412  GLY412     -0.2717
    141  N        208.1550 -149.3500  497.1990 N.am  413  LEU413     -0.1965
    142  CA       206.9720 -150.1970  497.1050 C.3   413  LEU413      0.1728
    143  C        205.6760 -149.3950  497.0200 C.2   413  LEU413      0.2616
    144  O        204.9010 -149.5520  496.0760 O.2   413  LEU413     -0.2715
    145  CB       206.9120 -151.1530  498.2960 C.3   413  LEU413      0.0311
    146  CG       208.1190 -152.0770  498.4640 C.3   413  LEU413      0.0022
    147  CD1      207.9890 -152.9030  499.7300 C.3   413  LEU413      0.0001
    148  CD2      208.2790 -152.9760  497.2480 C.3   413  LEU413      0.0001
    149  N        205.4450 -148.5410  498.0110 N.am  414  GLY414     -0.1955
    150  CA       204.1940 -147.8110  498.1170 C.3   414  GLY414      0.1869
    151  C        203.8990 -146.8510  496.9790 C.2   414  GLY414      0.2309
    152  O        202.7720 -146.8020  496.4850 O.2   414  GLY414     -0.2863
    153  N        202.4790 -148.1470  493.3930 N.3   417  PHE417     -0.1227
    154  CA       201.1530 -148.6750  493.6770 C.3   417  PHE417      0.1736
    155  C        200.1470 -147.5560  493.9130 C.2   417  PHE417      0.2595
    156  O        199.0140 -147.6360  493.4510 O.2   417  PHE417     -0.2718
    157  CB       201.1920 -149.6220  494.8770 C.3   417  PHE417      0.0547
    158  CG       201.4620 -151.0510  494.5080 C.ar  417  PHE417     -0.0202
    159  CD1      202.6640 -151.4150  493.9240 C.ar  417  PHE417     -0.0042
    160  CD2      200.5110 -152.0310  494.7410 C.ar  417  PHE417     -0.0042
    161  CE1      202.9130 -152.7310  493.5810 C.ar  417  PHE417     -0.0003
    162  CE2      200.7530 -153.3480  494.4000 C.ar  417  PHE417     -0.0003
    163  CZ       201.9560 -153.6990  493.8200 C.ar  417  PHE417     -0.0000
    164  N        200.5640 -146.5130  494.6270 N.am  418  ASN418     -0.1974
    165  CA       199.6900 -145.3700  494.8730 C.3   418  ASN418      0.1688
    166  C        199.3620 -144.6110  493.5910 C.2   418  ASN418      0.2292
    167  O        198.1960 -144.2850  493.3290 O.2   418  ASN418     -0.2864
    168  CB       200.3080 -144.4230  495.9040 C.3   418  ASN418      0.1181
    169  CG       200.3490 -145.0220  497.2960 C.2   418  ASN418      0.2629
    170  OD1      201.3610 -144.9390  497.9910 O.2   418  ASN418     -0.2716
    171  ND2      199.2450 -145.6330  497.7090 N.am  418  ASN418     -0.0877
    172  N        213.7680 -146.7530  502.1400 N.3   450  TYR450     -0.1241
    173  CA       214.3010 -147.7040  503.1090 C.3   450  TYR450      0.1605
    174  C        215.7060 -148.1490  502.7070 C.2   450  TYR450      0.2264
    175  O        216.0010 -148.3020  501.5210 O.2   450  TYR450     -0.2867
    176  CB       213.3630 -148.9040  503.2600 C.3   450  TYR450      0.0534
    177  CG       212.0700 -148.5730  503.9730 C.ar  450  TYR450     -0.0201
    178  CD1      211.0170 -147.9690  503.2990 C.ar  450  TYR450     -0.0009
    179  CD2      211.9030 -148.8660  505.3200 C.ar  450  TYR450     -0.0009
    180  CE1      209.8340 -147.6610  503.9490 C.ar  450  TYR450      0.0417
    181  CE2      210.7250 -148.5620  505.9780 C.ar  450  TYR450      0.0417
    182  CZ       209.6940 -147.9610  505.2880 C.ar  450  TYR450      0.1957
    183  OH       208.5220 -147.6590  505.9390 O.3   450  TYR450     -0.2866
    184  N        211.9510 -155.9250  490.0140 N.3   499  ILE499     -0.1231
    185  CA       212.9440 -155.6960  491.0540 C.3   499  ILE499      0.1692
    186  C        212.3790 -156.1150  492.4050 C.2   499  ILE499      0.2592
    187  O        211.4490 -155.4940  492.9210 O.2   499  ILE499     -0.2718
    188  CB       213.3790 -154.2200  491.1170 C.3   499  ILE499      0.0266
    189  CG1      214.0080 -153.7920  489.7900 C.3   499  ILE499      0.0019
    190  CG2      214.3550 -154.0030  492.2590 C.3   499  ILE499      0.0020
    191  CD1      214.4970 -152.3620  489.7840 C.3   499  ILE499      0.0001
    192  N        212.9430 -157.1770  492.9710 N.am  500  LYS500     -0.1966
    193  CA       212.4600 -157.7200  494.2330 C.3   500  LYS500      0.1728
    194  C        212.8260 -156.7980  495.3910 C.2   500  LYS500      0.2616
    195  O        213.9980 -156.4790  495.5960 O.2   500  LYS500     -0.2715
    196  CB       213.0260 -159.1250  494.4600 C.3   500  LYS500      0.0311
    197  CG       212.0690 -160.0930  495.1480 C.3   500  LYS500      0.0038
    198  CD       211.9610 -159.8230  496.6410 C.3   500  LYS500      0.0206
    199  CE       213.2870 -160.0700  497.3440 C.3   500  LYS500      0.1093
    200  NZ       213.7290 -161.4870  497.2190 N.3   500  LYS500     -0.1314
    201  N        211.8170 -156.3670  496.1410 N.am  501  MET501     -0.1977
    202  CA       212.0360 -155.5090  497.3010 C.3   501  MET501      0.1605
    203  C        211.1470 -155.9210  498.4720 C.2   501  MET501      0.2287
    204  O        209.9480 -156.1480  498.3080 O.2   501  MET501     -0.2864
    205  CB       211.8050 -154.0400  496.9390 C.3   501  MET501      0.0413
    206  CG       212.9470 -153.4160  496.1500 C.3   501  MET501      0.0598
    207  SD       212.5890 -151.7480  495.5690 S.3   501  MET501     -0.1393
    208  CE       211.3580 -152.0880  494.3160 C.3   501  MET501      0.0692
    209  N        209.1460 -155.7210  502.1170 N.3   503  MET503     -0.1230
    210  CA       208.3220 -154.7660  502.8490 C.3   503  MET503      0.1702
    211  C        208.6970 -154.7160  504.3260 C.2   503  MET503      0.2592
    212  O        208.8320 -155.7520  504.9770 O.2   503  MET503     -0.2718
    213  CB       206.8410 -155.1160  502.6990 C.3   503  MET503      0.0401
    214  CG       205.9040 -154.2180  503.4900 C.3   503  MET503      0.0596
    215  SD       204.1800 -154.7220  503.3390 S.3   503  MET503     -0.1393
    216  CE       204.2560 -156.3820  504.0040 C.3   503  MET503      0.0692
    217  N        208.8650 -153.5050  504.8490 N.am  504  ALA504     -0.1980
    218  CA       209.1660 -153.3150  506.2630 C.3   504  ALA504      0.1597
    219  C        207.8950 -153.3860  507.1020 C.2   504  ALA504      0.2287
    220  O        207.0430 -152.5000  507.0320 O.2   504  ALA504     -0.2864
    221  CB       209.8710 -151.9870  506.4790 C.3   504  ALA504      0.0319
@<TRIPOS>BOND
     1    36    35    1
     2    35    34    1
     3    34    33    1
     4    33    32    1
     5    32    29    1
     6    29    28    1
     7    29    30    1
     8    19    20    1
     9    28    21   am
    10    22    21    2
    11    21    20    1
    12    20    23    1
    13    40    39    2
    14    37    30   am
    15    37    38    1
    16    30    31    2
    17    39    38    1
    18    39    44   am
    19    23    24    1
    20    38    41    1
    21    43    41    1
    22    41    42    1
    23    24    25    1
    24    44    45    1
    25    46    45    1
    26    46    47    2
    27    45    48    1
    28   191   189    1
    29   189   188    1
    30   184   185    1
    31    25    26    1
    32    26    27    1
    33   185   188    1
    34   185   186    1
    35   188   190    1
    36    49    50    1
    37    72    71    1
    38   186   187    2
    39   186   192   am
    40    50    51    1
    41    50    53    1
    42    54    53    1
    43    51    52    2
    44    70    71    1
    45    70    69    1
    46   192   193    1
    47   167   166    2
    48   153   154    1
    49   156   155    2
    50   161   163   ar
    51   161   159   ar
    52   166   165    1
    53   154   155    1
    54   154   157    1
    55   163   162   ar
    56   155   164   am
    57   159   158   ar
    58    68    69    1
    59    68    65    1
    60   193   196    1
    61   193   194    1
    62   208   207    1
    63   162   160   ar
    64   196   197    1
    65   158   160   ar
    66   158   157    1
    67    67    66    2
    68   164   165    1
    69    55    56    1
    70   165   168    1
    71   197   198    1
    72   140   139    2
    73    66    65    1
    74    65    64    1
    75   194   195    2
    76   194   201   am
    77   207   206    1
    78    57    56    1
    79    57    58    2
    80   168   169    1
    81    56    59    1
    82   144   143    2
    83   201   202    1
    84   206   205    1
    85   139   138    1
    86   139   141   am
    87    59    60    1
    88   152   151    2
    89   138   137    1
    90   198   199    1
    91    62    61   ar
    92    84    83    1
    93    82    83   ar
    94    82    80   ar
    95   205   202    1
    96   151   150    1
    97   143   142    1
    98   143   149   am
    99   142   141    1
   100   142   145    1
   101   200   199    1
   102   148   146    1
   103   169   171   am
   104   169   170    2
   105   202   203    1
   106    91    89    1
   107    83    81   ar
   108    80    78   ar
   109    60    61    1
   110    61    63   ar
   111    92    90    1
   112   132   131    2
   113   149   150    1
   114    73    74    1
   115   145   146    1
   116   204   203    2
   117   146   147    1
   118    90    89    1
   119    89    86    1
   120    81    79   ar
   121   131   130    1
   122    78    79   ar
   123    78    77    1
   124    85    86    1
   125    85    75   am
   126    74    77    1
   127    74    75    1
   128    86    87    1
   129    75    76    2
   130   135   134   ar
   131   130   129    1
   132   130   133    1
   133   133   134    1
   134   134   136   ar
   135    87    93   am
   136    87    88    2
   137   101    99   ar
   138   101   102   ar
   139    99    98   ar
   140   175   174    2
   141    93    94    1
   142   209   210    1
   143   172   173    1
   144   102   104   ar
   145   102   100   ar
   146    98    97    1
   147    98   100   ar
   148   213   210    1
   149   213   214    1
   150   174   173    1
   151   125   126    2
   152   125   124    1
   153   210   211    1
   154   104   106   ar
   155    97    94    1
   156    94    95    1
   157   173   176    1
   158   176   177    1
   159   178   180   ar
   160   178   177   ar
   161   127   124    1
   162   127   128    1
   163   215   214    1
   164   215   216    1
   165   100   103   ar
   166   124   123    1
   167   180   182   ar
   168    95    96    2
   169   177   179   ar
   170   106   105   ar
   171   211   217   am
   172   211   212    2
   173   103   105   ar
   174   217   218    1
   175   182   183    1
   176   182   181   ar
   177   179   181   ar
   178   113   112    2
   179   218   221    1
   180   218   219    1
   181   122   120    1
   182   220   219    2
   183   112   111    1
   184   112   114   am
   185   107   108    1
   186   111   108    1
   187   120   119    1
   188   120   121    1
   189   108   109    1
   190   118   117    2
   191   119   116    1
   192   109   110    2
   193    10     9    1
   194   117   116    1
   195    17    16    1
   196   116   115    1
   197    18    16    1
   198     9     8    2
   199     9    11    1
   200    16    13    1
   201     8     7    1
   202    13    14    1
   203    13    12    1
   204     7     6    1
   205     6     5    1
   206    14    15    2
   207    12     3   am
   208     1     2    1
   209     3     2    1
   210     3     4    2
   211     5     2    1
