@<TRIPOS>MOLECULE
tmp/4kyaF01.pdb
 156 149 0 0 0
SMALL
GASTEIGER

@<TRIPOS>ATOM
      1  N        -21.9020  -58.2870  -44.1610 N.3   226  THR226     -0.1218
      2  CA       -22.3700  -56.9370  -44.4520 C.3   226  THR226      0.1862
      3  C        -23.5480  -56.9080  -45.4280 C.2   226  THR226      0.2287
      4  O        -24.4140  -56.0340  -45.3450 O.2   226  THR226     -0.2866
      5  CB       -21.2260  -56.0790  -45.0290 C.3   226  THR226      0.1770
      6  OG1      -20.9270  -56.5080  -46.3650 O.3   226  THR226     -0.2211
      7  CG2      -19.9760  -56.2190  -44.1730 C.3   226  THR226      0.0375
      8  N         -3.6870  -43.4620  -44.9460 N.3   255  PHE255     -0.1241
      9  CA        -3.9130  -42.7020  -43.7180 C.3   255  PHE255      0.1605
     10  C         -2.8470  -42.9890  -42.6580 C.2   255  PHE255      0.2264
     11  O         -3.0690  -43.7500  -41.7100 O.2   255  PHE255     -0.2867
     12  CB        -5.3060  -42.9920  -43.1550 C.3   255  PHE255      0.0534
     13  CG        -5.7690  -41.9810  -42.1480 C.ar  255  PHE255     -0.0203
     14  CD1       -5.2300  -40.7050  -42.1340 C.ar  255  PHE255     -0.0042
     15  CD2       -6.7310  -42.3090  -41.2090 C.ar  255  PHE255     -0.0042
     16  CE1       -5.6490  -39.7730  -41.2050 C.ar  255  PHE255     -0.0003
     17  CE2       -7.1530  -41.3830  -40.2760 C.ar  255  PHE255     -0.0003
     18  CZ        -6.6120  -40.1120  -40.2740 C.ar  255  PHE255     -0.0000
     19  N         -3.4780  -45.5840  -34.2850 N.3   262  GLU262     -0.1245
     20  CA        -4.1170  -46.8630  -33.9880 C.3   262  GLU262      0.1567
     21  C         -3.1190  -47.8440  -33.3790 C.2   262  GLU262      0.2260
     22  O         -3.4730  -48.6270  -32.4930 O.2   262  GLU262     -0.2867
     23  CB        -4.7490  -47.4810  -35.2380 C.3   262  GLU262      0.0388
     24  CG        -5.6800  -48.6510  -34.9310 C.3   262  GLU262      0.1160
     25  CD        -5.8210  -49.6130  -36.0960 C.2   262  GLU262      0.3649
     26  OE1       -4.8600  -49.7390  -36.8870 O.co2 262  GLU262     -0.2457
     27  OE2       -6.8900  -50.2500  -36.2190 O.co2 262  GLU262     -0.2457
     28  N        -11.6950  -44.3450  -37.6910 N.3   283  ILE283     -0.1231
     29  CA       -11.7050  -45.5770  -38.4640 C.3   283  ILE283      0.1692
     30  C        -12.4410  -46.6880  -37.7300 C.2   283  ILE283      0.2592
     31  O        -12.6360  -47.7750  -38.2700 O.2   283  ILE283     -0.2718
     32  CB       -10.2770  -46.0450  -38.7730 C.3   283  ILE283      0.0266
     33  CG1       -9.6750  -46.7480  -37.5540 C.3   283  ILE283      0.0019
     34  CG2       -9.4200  -44.8630  -39.1740 C.3   283  ILE283      0.0020
     35  CD1       -8.2200  -47.1110  -37.7050 C.3   283  ILE283      0.0001
     36  N        -12.8490  -46.4070  -36.4970 N.am  284  TRP284     -0.1976
     37  CA       -13.4870  -47.4060  -35.6500 C.3   284  TRP284      0.1640
     38  C        -14.9460  -47.0880  -35.3570 C.2   284  TRP284      0.2290
     39  O        -15.7060  -47.9670  -34.9620 O.2   284  TRP284     -0.2864
     40  CB       -12.7260  -47.5370  -34.3320 C.3   284  TRP284      0.0576
     41  CG       -11.6950  -48.6040  -34.3320 C.ar  284  TRP284      0.0006
     42  CD1      -10.3450  -48.4410  -34.4190 C.ar  284  TRP284      0.0946
     43  CD2      -11.9260  -50.0120  -34.2340 C.ar  284  TRP284      0.0152
     44  NE1       -9.7190  -49.6630  -34.3810 N.ar  284  TRP284     -0.2442
     45  CE2      -10.6690  -50.6450  -34.2680 C.ar  284  TRP284      0.0810
     46  CE3      -13.0750  -50.8020  -34.1230 C.ar  284  TRP284      0.0012
     47  CZ2      -10.5260  -52.0270  -34.1940 C.ar  284  TRP284      0.0191
     48  CZ3      -12.9310  -52.1770  -34.0500 C.ar  284  TRP284      0.0001
     49  CH2      -11.6650  -52.7740  -34.0850 C.ar  284  TRP284      0.0015
     50  N        -18.1740  -49.0620  -36.0370 N.3   287  ASN287     -0.1240
     51  CA       -18.2340  -50.3720  -35.3930 C.3   287  ASN287      0.1653
     52  C        -18.3900  -50.2700  -33.8790 C.2   287  ASN287      0.2266
     53  O        -18.3940  -51.2800  -33.1790 O.2   287  ASN287     -0.2867
     54  CB       -16.9850  -51.1880  -35.7350 C.3   287  ASN287      0.1155
     55  CG       -16.9140  -51.5470  -37.2070 C.2   287  ASN287      0.2627
     56  OD1      -16.0540  -51.0560  -37.9350 O.2   287  ASN287     -0.2716
     57  ND2      -17.8240  -52.4050  -37.6530 N.am  287  ASN287     -0.0877
     58  N         -8.1480  -56.6020  -29.6910 N.3   310  TYR310     -0.1241
     59  CA        -6.7650  -56.2580  -30.0600 C.3   310  TYR310      0.1605
     60  C         -5.8130  -55.9300  -28.9050 C.2   310  TYR310      0.2264
     61  O         -5.2830  -56.8310  -28.2560 O.2   310  TYR310     -0.2867
     62  CB        -6.7740  -55.0910  -31.0510 C.3   310  TYR310      0.0534
     63  CG        -7.3470  -55.4510  -32.4070 C.ar  310  TYR310     -0.0201
     64  CD1       -6.7290  -56.3950  -33.2160 C.ar  310  TYR310     -0.0009
     65  CD2       -8.5020  -54.8430  -32.8790 C.ar  310  TYR310     -0.0009
     66  CE1       -7.2480  -56.7280  -34.4560 C.ar  310  TYR310      0.0417
     67  CE2       -9.0290  -55.1670  -34.1190 C.ar  310  TYR310      0.0417
     68  CZ        -8.3980  -56.1090  -34.9040 C.ar  310  TYR310      0.1957
     69  OH        -8.9200  -56.4350  -36.1360 O.3   310  TYR310     -0.2866
     70  N        -15.8120  -56.1950  -32.7310 N.3   367  LEU367     -0.1245
     71  CA       -15.4520  -56.9400  -33.9270 C.3   367  LEU367      0.1561
     72  C        -14.3700  -57.9640  -33.6140 C.2   367  LEU367      0.2260
     73  O        -13.3530  -57.6300  -33.0050 O.2   367  LEU367     -0.2867
     74  CB       -14.9710  -56.0000  -35.0350 C.3   367  LEU367      0.0270
     75  CG       -15.9800  -55.6200  -36.1200 C.3   367  LEU367      0.0019
     76  CD1      -15.2700  -55.0140  -37.3260 C.3   367  LEU367      0.0001
     77  CD2      -16.8080  -56.8240  -36.5310 C.3   367  LEU367      0.0001
     78  N         -9.9020  -56.7680  -46.2250 N.3   394  ASP394     -0.1239
     79  CA       -10.4890  -55.8250  -47.1670 C.3   394  ASP394      0.1674
     80  C         -9.3700  -55.2660  -48.0400 C.2   394  ASP394      0.2266
     81  O         -8.7190  -54.2880  -47.6740 O.2   394  ASP394     -0.2867
     82  CB       -11.2230  -54.7010  -46.4340 C.3   394  ASP394      0.1410
     83  CG       -12.0870  -53.8590  -47.3580 C.2   394  ASP394      0.3668
     84  OD1      -11.8550  -53.8680  -48.5850 O.co2 394  ASP394     -0.2456
     85  OD2      -13.0030  -53.1800  -46.8500 O.co2 394  ASP394     -0.2456
     86  N         -9.5050  -51.5070  -48.9340 N.3   397  LEU397     -0.1231
     87  CA        -9.4810  -50.5160  -47.8660 C.3   397  LEU397      0.1693
     88  C         -8.4430  -50.8070  -46.7860 C.2   397  LEU397      0.2592
     89  O         -7.5410  -50.0030  -46.5510 O.2   397  LEU397     -0.2718
     90  CB       -10.8720  -50.4150  -47.2360 C.3   397  LEU397      0.0284
     91  CG       -11.3750  -49.0260  -46.8440 C.3   397  LEU397      0.0019
     92  CD1      -10.9530  -47.9840  -47.8660 C.3   397  LEU397      0.0001
     93  CD2      -12.8890  -49.0490  -46.7100 C.3   397  LEU397      0.0001
     94  N         -8.5740  -51.9580  -46.1360 N.am  398  GLY398     -0.1957
     95  CA        -7.7860  -52.2670  -44.9560 C.3   398  GLY398      0.1869
     96  C         -6.3500  -52.7140  -45.1710 C.2   398  GLY398      0.2309
     97  O         -5.4730  -52.3550  -44.3870 O.2   398  GLY398     -0.2863
     98  N         -3.3000  -50.2670  -45.0770 N.3   401  PHE401     -0.1227
     99  CA        -3.2900  -49.8120  -43.6980 C.3   401  PHE401      0.1736
    100  C         -2.6240  -50.8350  -42.7810 C.2   401  PHE401      0.2595
    101  O         -1.8020  -50.4760  -41.9390 O.2   401  PHE401     -0.2718
    102  CB        -4.7190  -49.5330  -43.2340 C.3   401  PHE401      0.0547
    103  CG        -4.8050  -48.6430  -42.0330 C.ar  401  PHE401     -0.0202
    104  CD1       -4.8610  -47.2670  -42.1810 C.ar  401  PHE401     -0.0042
    105  CD2       -4.8470  -49.1790  -40.7570 C.ar  401  PHE401     -0.0042
    106  CE1       -4.9520  -46.4440  -41.0840 C.ar  401  PHE401     -0.0003
    107  CE2       -4.9350  -48.3550  -39.6530 C.ar  401  PHE401     -0.0003
    108  CZ        -4.9920  -46.9880  -39.8190 C.ar  401  PHE401     -0.0000
    109  N         -2.9710  -52.1080  -42.9540 N.am  402  ASN402     -0.1974
    110  CA        -2.4190  -53.1720  -42.1210 C.3   402  ASN402      0.1688
    111  C         -0.9330  -53.3930  -42.3820 C.2   402  ASN402      0.2292
    112  O         -0.1440  -53.5500  -41.4390 O.2   402  ASN402     -0.2864
    113  CB        -3.1910  -54.4730  -42.3400 C.3   402  ASN402      0.1181
    114  CG        -4.6000  -54.4170  -41.7750 C.2   402  ASN402      0.2629
    115  OD1       -5.5800  -54.4610  -42.5150 O.2   402  ASN402     -0.2716
    116  ND2       -4.7040  -54.3150  -40.4550 N.am  402  ASN402     -0.0877
    117  N        -14.4720  -55.9580  -52.0780 N.3   434  TYR434     -0.1241
    118  CA       -15.8920  -55.6200  -52.0490 C.3   434  TYR434      0.1605
    119  C        -16.3510  -55.1240  -53.4120 C.2   434  TYR434      0.2264
    120  O        -15.6460  -54.3690  -54.0820 O.2   434  TYR434     -0.2867
    121  CB       -16.1840  -54.5830  -50.9600 C.3   434  TYR434      0.0534
    122  CG       -16.2320  -55.1940  -49.5780 C.ar  434  TYR434     -0.0201
    123  CD1      -17.3450  -55.9080  -49.1580 C.ar  434  TYR434     -0.0009
    124  CD2      -15.1600  -55.0780  -48.7040 C.ar  434  TYR434     -0.0009
    125  CE1      -17.3950  -56.4830  -47.9020 C.ar  434  TYR434      0.0417
    126  CE2      -15.2010  -55.6500  -47.4440 C.ar  434  TYR434      0.0417
    127  CZ       -16.3220  -56.3520  -47.0500 C.ar  434  TYR434      0.1957
    128  OH       -16.3770  -56.9260  -45.8020 O.3   434  TYR434     -0.2866
    129  N        -13.1620  -44.7280  -50.8960 N.3   487  MET487     -0.1245
    130  CA       -13.8540  -46.0130  -50.8280 C.3   487  MET487      0.1570
    131  C        -14.6590  -46.1220  -49.5360 C.2   487  MET487      0.2261
    132  O        -14.1190  -45.9480  -48.4420 O.2   487  MET487     -0.2867
    133  CB       -12.8630  -47.1750  -50.9190 C.3   487  MET487      0.0387
    134  CG       -12.0300  -47.1960  -52.1860 C.3   487  MET487      0.0595
    135  SD       -10.8440  -48.5520  -52.1880 S.3   487  MET487     -0.1393
    136  CE        -9.6260  -47.9230  -53.3420 C.3   487  MET487      0.0692
    137  N        -16.6290  -47.8060  -46.4790 N.3   489  MET489     -0.1230
    138  CA       -16.4550  -49.0070  -45.6710 C.3   489  MET489      0.1702
    139  C        -17.7560  -49.7850  -45.5300 C.2   489  MET489      0.2592
    140  O        -18.7710  -49.2440  -45.0890 O.2   489  MET489     -0.2718
    141  CB       -15.9210  -48.6500  -44.2810 C.3   489  MET489      0.0401
    142  CG       -15.6500  -49.8620  -43.4030 C.3   489  MET489      0.0596
    143  SD       -15.7580  -49.5140  -41.6350 S.3   489  MET489     -0.1393
    144  CE       -14.6070  -48.1550  -41.4780 C.3   489  MET489      0.0692
    145  N        -17.7200  -51.0590  -45.9040 N.am  490  ALA490     -0.1966
    146  CA       -18.8510  -51.9490  -45.6810 C.3   490  ALA490      0.1728
    147  C        -18.9940  -52.2310  -44.1900 C.2   490  ALA490      0.2616
    148  O        -18.2480  -53.0320  -43.6260 O.2   490  ALA490     -0.2715
    149  CB       -18.6780  -53.2440  -46.4580 C.3   490  ALA490      0.0334
    150  N        -19.9500  -51.5600  -43.5550 N.am  491  VAL491     -0.1977
    151  CA       -20.1330  -51.6720  -42.1140 C.3   491  VAL491      0.1596
    152  C        -20.5930  -53.0720  -41.7220 C.2   491  VAL491      0.2287
    153  O        -20.0000  -53.7040  -40.8450 O.2   491  VAL491     -0.2864
    154  CB       -21.1520  -50.6360  -41.5920 C.3   491  VAL491      0.0276
    155  CG1      -21.3070  -50.7560  -40.0830 C.3   491  VAL491      0.0022
    156  CG2      -20.7210  -49.2280  -41.9760 C.3   491  VAL491      0.0022
@<TRIPOS>BOND
     1   120   119    2
     2   119   118    1
     3   136   135    1
     4   135   134    1
     5   134   133    1
     6   117   118    1
     7   118   121    1
     8   121   122    1
     9   133   130    1
    10   129   130    1
    11   130   131    1
    12   122   123   ar
    13   122   124   ar
    14   131   132    2
    15   123   125   ar
    16    86    87    1
    17   124   126   ar
    18    84    83   ar
    19    80    81    2
    20    80    79    1
    21   125   127   ar
    22    92    91    1
    23    87    90    1
    24    87    88    1
    25   126   127   ar
    26    83    85   ar
    27    83    82    1
    28    90    91    1
    29    79    82    1
    30    79    78    1
    31   127   128    1
    32    91    93    1
    33    88    89    2
    34    88    94   am
    35   137   138    1
    36   149   146    1
    37     6     5    1
    38    94    95    1
    39   145   146    1
    40   145   139   am
    41   146   147    1
    42   138   139    1
    43   138   141    1
    44   139   140    2
    45     3     4    2
    46     3     2    1
    47    96    95    1
    48    96    97    2
    49    98    99    1
    50     5     2    1
    51     5     7    1
    52     8     9    1
    53     2     1    1
    54   141   142    1
    55   147   148    2
    56   147   150   am
    57     9    12    1
    58     9    10    1
    59    99   102    1
    60    99   100    1
    61   150   151    1
    62   142   143    1
    63   102   103    1
    64    12    13    1
    65   109   100   am
    66   109   110    1
    67   100   101    2
    68    10    11    2
    69   115   114    2
    70   111   110    1
    71   111   112    2
    72   113   110    1
    73   113   114    1
    74   104   103   ar
    75   104   106   ar
    76    13    14   ar
    77    13    15   ar
    78    14    16   ar
    79   151   152    1
    80   151   154    1
    81   103   105   ar
    82   156   154    1
    83   114   116   am
    84   152   153    2
    85   143   144    1
    86   154   155    1
    87    15    17   ar
    88    16    18   ar
    89   106   108   ar
    90   105   107   ar
    91    17    18   ar
    92   108   107   ar
    93    34    32    1
    94    32    29    1
    95    32    33    1
    96    29    30    1
    97    29    28    1
    98    31    30    2
    99    56    55    2
   100    30    36   am
   101    35    33    1
   102    57    55   am
   103    76    75    1
   104    55    54    1
   105    26    25   ar
   106    77    75    1
   107    36    37    1
   108    27    25   ar
   109    69    68    1
   110    75    74    1
   111    25    24    1
   112    50    51    1
   113    54    51    1
   114    37    38    1
   115    37    40    1
   116    51    52    1
   117    38    39    2
   118    23    24    1
   119    23    20    1
   120    74    71    1
   121    68    66   ar
   122    68    67   ar
   123    66    64   ar
   124    42    44   ar
   125    42    41   ar
   126    44    45   ar
   127    41    40    1
   128    41    43   ar
   129    19    20    1
   130    45    43   ar
   131    45    47   ar
   132    43    46   ar
   133    47    49   ar
   134    46    48   ar
   135    67    65   ar
   136    49    48   ar
   137    20    21    1
   138    71    72    1
   139    71    70    1
   140    52    53    2
   141    72    73    2
   142    21    22    2
   143    64    63   ar
   144    65    63   ar
   145    63    62    1
   146    62    59    1
   147    59    58    1
   148    59    60    1
   149    60    61    2
