@<TRIPOS>MOLECULE
tmp/4kydB01.pdb
 83 80 0 0 0
SMALL
GASTEIGER

@<TRIPOS>ATOM
      1  N        -63.3020    9.2630  -66.2270 N.3    12  ASN12      -0.1225
      2  CA       -62.5480    8.0190  -66.4060 C.3    12  ASN12       0.1785
      3  C        -63.3330    6.9920  -67.2380 C.2    12  ASN12       0.2598
      4  O        -64.5660    7.0080  -67.2540 O.2    12  ASN12      -0.2718
      5  CB       -62.1370    7.4380  -65.0450 C.3    12  ASN12       0.1169
      6  CG       -60.8280    6.6330  -65.1040 C.2    12  ASN12       0.2627
      7  OD1      -59.8880    6.9820  -65.8330 O.2    12  ASN12      -0.2716
      8  ND2      -60.7570    5.5620  -64.3130 N.am   12  ASN12      -0.0877
      9  N        -62.6090    6.1140  -67.9270 N.am   13  GLY13      -0.1942
     10  CA       -63.2090    5.1110  -68.8220 C.3    13  GLY13       0.2014
     11  C        -64.0620    4.0360  -68.1650 C.2    13  GLY13       0.2638
     12  O        -64.8760    3.3930  -68.8250 O.2    13  GLY13      -0.2714
     13  N        -63.8840    3.8340  -66.8630 N.am   14  ASP14      -0.1971
     14  CA       -64.6650    2.8310  -66.1340 C.3    14  ASP14       0.1709
     15  C        -66.0640    3.3050  -65.7160 C.2    14  ASP14       0.2293
     16  O        -66.8520    2.5130  -65.1950 O.2    14  ASP14      -0.2864
     17  CB       -63.8920    2.2760  -64.9240 C.3    14  ASP14       0.1436
     18  CG       -63.2960    3.3760  -64.0110 C.2    14  ASP14       0.3671
     19  OD1      -63.4880    4.5980  -64.2740 O.co2  14  ASP14      -0.2456
     20  OD2      -62.6140    2.9910  -63.0180 O.co2  14  ASP14      -0.2456
     21  N        -57.0760   -6.3020  -59.7060 N.3   150  ASN150     -0.1240
     22  CA       -56.0450   -5.4420  -60.2800 C.3   150  ASN150      0.1653
     23  C        -54.8970   -5.2310  -59.2850 C.2   150  ASN150      0.2266
     24  O        -55.0930   -4.7020  -58.1970 O.2   150  ASN150     -0.2867
     25  CB       -56.6380   -4.1080  -60.7740 C.3   150  ASN150      0.1155
     26  CG       -55.6100   -3.2170  -61.4920 C.2   150  ASN150      0.2627
     27  OD1      -54.4820   -3.6270  -61.7380 O.2   150  ASN150     -0.2716
     28  ND2      -56.0030   -1.9930  -61.8170 N.am  150  ASN150     -0.0877
     29  N        -52.0350   -3.6110  -60.2460 N.3   152  GLN152     -0.1231
     30  CA       -51.1930   -2.5000  -60.7560 C.3   152  GLN152      0.1698
     31  C        -51.5570   -1.1660  -60.1050 C.2   152  GLN152      0.2592
     32  O        -50.7460   -0.2440  -60.0610 O.2   152  GLN152     -0.2718
     33  CB       -51.2770   -2.3630  -62.2930 C.3   152  GLN152      0.0381
     34  CG       -51.1670   -3.6760  -63.0820 C.3   152  GLN152      0.0905
     35  CD       -49.9300   -4.4870  -62.7230 C.2   152  GLN152      0.2608
     36  OE1      -48.8020   -3.9770  -62.7430 O.2   152  GLN152     -0.2717
     37  NE2      -50.1360   -5.7490  -62.3750 N.am  152  GLN152     -0.0878
     38  N        -52.7790   -1.0670  -59.6020 N.am  153  GLU153     -0.1979
     39  CA       -53.2560    0.1690  -58.9700 C.3   153  GLU153      0.1602
     40  C        -53.3980    0.0040  -57.4650 C.2   153  GLU153      0.2287
     41  O        -54.1670   -0.8550  -57.0030 O.2   153  GLU153     -0.2864
     42  CB       -54.5730    0.6470  -59.6020 C.3   153  GLU153      0.0415
     43  CG       -54.3890    1.3680  -60.9490 C.3   153  GLU153      0.1163
     44  CD       -53.6210    2.6930  -60.8130 C.2   153  GLU153      0.3649
     45  OE1      -53.8420    3.4440  -59.8290 O.co2 153  GLU153     -0.2457
     46  OE2      -52.7970    2.9970  -61.6980 O.co2 153  GLU153     -0.2457
     47  N        -56.5440   -0.8350  -55.1870 N.3   156  PHE156     -0.1241
     48  CA       -57.1140   -2.1630  -55.0610 C.3   156  PHE156      0.1605
     49  C        -56.4630   -2.9880  -53.9620 C.2   156  PHE156      0.2264
     50  O        -57.1400   -3.7950  -53.3030 O.2   156  PHE156     -0.2867
     51  CB       -57.0800   -2.9030  -56.4270 C.3   156  PHE156      0.0534
     52  CG       -58.0620   -2.3530  -57.4250 C.ar  156  PHE156     -0.0203
     53  CD1      -57.7050   -1.3080  -58.2780 C.ar  156  PHE156     -0.0042
     54  CD2      -59.3520   -2.8590  -57.5040 C.ar  156  PHE156     -0.0042
     55  CE1      -58.6180   -0.7860  -59.1950 C.ar  156  PHE156     -0.0003
     56  CE2      -60.2700   -2.3400  -58.4150 C.ar  156  PHE156     -0.0003
     57  CZ       -59.9070   -1.3000  -59.2560 C.ar  156  PHE156     -0.0000
     58  N        -53.7710   -7.1890  -64.1170 N.3   209  ASP209     -0.1225
     59  CA       -54.2560   -5.8100  -64.1600 C.3   209  ASP209      0.1805
     60  C        -55.7950   -5.7690  -64.2720 C.2   209  ASP209      0.2598
     61  O        -56.4520   -6.8090  -64.1390 O.2   209  ASP209     -0.2718
     62  CB       -53.5690   -5.0190  -65.2850 C.3   209  ASP209      0.1424
     63  CG       -53.9430   -5.5090  -66.7010 C.2   209  ASP209      0.3668
     64  OD1      -54.8890   -6.3180  -66.8830 O.co2 209  ASP209     -0.2456
     65  OD2      -53.2730   -5.0710  -67.6590 O.co2 209  ASP209     -0.2456
     66  N        -56.3640   -4.5770  -64.4990 N.am  210  TYR210     -0.1962
     67  CA       -57.8180   -4.4110  -64.4600 C.3   210  TYR210      0.1771
     68  C        -58.5610   -5.3450  -65.4290 C.2   210  TYR210      0.2620
     69  O        -59.4270   -6.1250  -65.0240 O.2   210  TYR210     -0.2715
     70  CB       -58.2340   -2.9590  -64.7220 C.3   210  TYR210      0.0574
     71  CG       -59.7050   -2.7230  -64.4010 C.ar  210  TYR210     -0.0198
     72  CD1      -60.7040   -2.9010  -65.3730 C.ar  210  TYR210     -0.0009
     73  CD2      -60.0960   -2.3200  -63.1120 C.ar  210  TYR210     -0.0009
     74  CE1      -62.0430   -2.6850  -65.0750 C.ar  210  TYR210      0.0417
     75  CE2      -61.4260   -2.1070  -62.7980 C.ar  210  TYR210      0.0417
     76  CZ       -62.3900   -2.2960  -63.7730 C.ar  210  TYR210      0.1957
     77  OH       -63.6960   -2.0950  -63.4230 O.3   210  TYR210     -0.2866
     78  N        -58.2450   -5.2670  -66.7110 N.am  211  SER211     -0.1950
     79  CA       -59.0480   -6.0190  -67.6720 C.3   211  SER211      0.1924
     80  C        -58.7500   -7.5320  -67.6870 C.2   211  SER211      0.2314
     81  O        -59.6210   -8.3190  -68.0490 O.2   211  SER211     -0.2863
     82  CB       -58.9600   -5.4080  -69.0670 C.3   211  SER211      0.2116
     83  OG       -57.7400   -5.7550  -69.6790 O.3   211  SER211     -0.2180
@<TRIPOS>BOND
     1    83    82    1
     2    82    79    1
     3    12    11    2
     4    10    11    1
     5    10     9    1
     6    11    13   am
     7    81    80    2
     8     9     3   am
     9    80    79    1
    10    79    78    1
    11    65    63   ar
    12     4     3    2
    13     3     2    1
    14    64    63   ar
    15    13    14    1
    16    78    68   am
    17    63    62    1
    18     2     1    1
    19     2     5    1
    20    14    15    1
    21    14    17    1
    22     7     6    2
    23    15    16    2
    24    68    69    2
    25    68    67    1
    26    72    74   ar
    27    72    71   ar
    28    62    59    1
    29     6     5    1
    30     6     8   am
    31    74    76   ar
    32    17    18    1
    33    70    67    1
    34    70    71    1
    35    66    67    1
    36    66    60   am
    37    71    73   ar
    38    19    18   ar
    39    60    59    1
    40    60    61    2
    41    59    58    1
    42    18    20   ar
    43    76    77    1
    44    76    75   ar
    45    73    75   ar
    46    34    35    1
    47    34    33    1
    48    36    35    2
    49    35    37   am
    50    33    30    1
    51    28    26   am
    52    27    26    2
    53    46    44   ar
    54    26    25    1
    55    43    44    1
    56    43    42    1
    57    44    45   ar
    58    25    22    1
    59    30    29    1
    60    30    31    1
    61    22    21    1
    62    22    23    1
    63    31    32    2
    64    31    38   am
    65    38    39    1
    66    42    39    1
    67    23    24    2
    68    57    55   ar
    69    57    56   ar
    70    55    53   ar
    71    39    40    1
    72    56    54   ar
    73    53    52   ar
    74    54    52   ar
    75    40    41    2
    76    52    51    1
    77    51    48    1
    78    47    48    1
    79    48    49    1
    80    49    50    2
