@<TRIPOS>MOLECULE
tmp/4kyhB00.pdb
 95 90 0 0 0
SMALL
GASTEIGER

@<TRIPOS>ATOM
      1  N          3.2590   16.0680    7.4580 N.3   111  ASN111     -0.1240
      2  CA         2.7400   16.5370    6.1610 C.3   111  ASN111      0.1653
      3  C          3.6390   17.4580    5.3290 C.2   111  ASN111      0.2266
      4  O          3.2650   17.7820    4.2070 O.2   111  ASN111     -0.2867
      5  CB         1.3430   17.1300    6.3020 C.3   111  ASN111      0.1155
      6  CG         0.3030   16.0690    6.5760 C.2   111  ASN111      0.2627
      7  OD1        0.1720   15.1210    5.8180 O.2   111  ASN111     -0.2716
      8  ND2       -0.4450   16.2300    7.6430 N.am  111  ASN111     -0.0877
      9  N          8.0970   13.8510    4.9450 N.3   115  ARG115     -0.1245
     10  CA         6.7290   13.3530    5.1030 C.3   115  ARG115      0.1563
     11  C          6.6590   11.9200    5.6540 C.2   115  ARG115      0.2260
     12  O          7.5800   11.1210    5.4390 O.2   115  ARG115     -0.2867
     13  CB         6.0100   13.3940    3.7460 C.3   115  ARG115      0.0307
     14  CG         5.4570   14.7470    3.2850 C.3   115  ARG115      0.0489
     15  CD         4.4690   14.5530    2.0760 C.3   115  ARG115      0.2205
     16  NE         5.0410   13.7940    0.9320 N.pl3 115  ARG115     -0.0865
     17  CZ         4.3440   13.2530   -0.0930 C.cat 115  ARG115      0.5346
     18  NH1        3.0120   13.3380   -0.1740 N.pl3 115  ARG115      0.1354
     19  NH2        4.9810   12.5800   -1.0500 N.pl3 115  ARG115      0.1354
     20  N         -2.4280   11.8050    8.9220 N.3   119  HIS119     -0.1241
     21  CA        -3.5290   12.2650    9.7330 C.3   119  HIS119      0.1621
     22  C         -4.2990   11.2050   10.4750 C.2   119  HIS119      0.2264
     23  O         -4.1660    9.9940   10.2210 O.2   119  HIS119     -0.2867
     24  CB        -4.5060   13.0130    8.8620 C.3   119  HIS119      0.0745
     25  CG        -5.0840   12.2080    7.7510 C.ar  119  HIS119      0.0817
     26  ND1       -4.6260   12.2980    6.4560 N.ar  119  HIS119     -0.2268
     27  CD2       -6.1310   11.3510    7.7200 C.ar  119  HIS119      0.1154
     28  CE1       -5.3670   11.5280    5.6760 C.ar  119  HIS119      0.1986
     29  NE2       -6.2850   10.9390    6.4220 N.ar  119  HIS119     -0.2212
     30  N         -7.5340   23.3380    7.8820 N.3   142  VAL142     -0.1231
     31  CA        -6.7170   23.1560    6.6980 C.3   142  VAL142      0.1692
     32  C         -7.6230   23.2490    5.4540 C.2   142  VAL142      0.2591
     33  O         -7.3770   24.0340    4.5480 O.2   142  VAL142     -0.2718
     34  CB        -6.0160   21.7810    6.7030 C.3   142  VAL142      0.0266
     35  CG1       -5.3350   21.5080    5.3680 C.3   142  VAL142      0.0020
     36  CG2       -5.0140   21.6850    7.8390 C.3   142  VAL142      0.0020
     37  N         -8.6420   22.3930    5.4100 N.am  143  LYS143     -0.1980
     38  CA        -9.6000   22.3610    4.3280 C.3   143  LYS143      0.1596
     39  C        -11.0140   22.4480    4.9060 C.2   143  LYS143      0.2287
     40  O        -11.4680   21.5550    5.6100 O.2   143  LYS143     -0.2864
     41  CB        -9.4190   21.1150    3.4460 C.3   143  LYS143      0.0298
     42  CG       -10.7150   20.6380    2.7800 C.3   143  LYS143      0.0038
     43  CD       -10.4500   19.8020    1.5250 C.3   143  LYS143      0.0206
     44  CE       -11.6710   19.0160    1.0620 C.3   143  LYS143      0.1093
     45  NZ       -12.9490   19.8150    1.0270 N.3   143  LYS143     -0.1314
     46  N        -14.3170   23.6510    0.5380 N.3   147  ASP147     -0.1239
     47  CA       -13.1220   24.0000   -0.2140 C.3   147  ASP147      0.1674
     48  C        -12.6510   22.8420   -1.1150 C.2   147  ASP147      0.2266
     49  O        -12.5200   21.6850   -0.6840 O.2   147  ASP147     -0.2867
     50  CB       -11.9790   24.4370    0.7140 C.3   147  ASP147      0.1410
     51  CG       -12.2500   25.7640    1.4700 C.2   147  ASP147      0.3668
     52  OD1      -13.1810   26.5390    1.1510 O.co2 147  ASP147     -0.2456
     53  OD2      -11.4930   26.0230    2.4220 O.co2 147  ASP147     -0.2456
     54  N        -13.2460   17.9060   -3.4330 N.3   150  MET150     -0.1245
     55  CA       -13.9390   16.9780   -2.5500 C.3   150  MET150      0.1570
     56  C        -14.7650   17.7570   -1.5440 C.2   150  MET150      0.2261
     57  O        -14.3240   18.0590   -0.4300 O.2   150  MET150     -0.2867
     58  CB       -12.9350   16.0690   -1.8440 C.3   150  MET150      0.0387
     59  CG       -11.9080   15.4270   -2.7510 C.3   150  MET150      0.0595
     60  SD       -12.6650   14.3740   -3.9860 S.3   150  MET150     -0.1393
     61  CE       -11.2380   14.1020   -5.0630 C.3   150  MET150      0.0692
     62  N        -10.6130   18.9560    6.7800 N.3   155  PHE155     -0.1241
     63  CA        -9.4320   18.7470    7.5860 C.3   155  PHE155      0.1605
     64  C         -9.2800   19.9170    8.5350 C.2   155  PHE155      0.2264
     65  O         -9.2280   21.0850    8.1140 O.2   155  PHE155     -0.2867
     66  CB        -8.1900   18.6990    6.7120 C.3   155  PHE155      0.0534
     67  CG        -7.9730   17.3970    6.0430 C.ar  155  PHE155     -0.0203
     68  CD1       -7.2670   16.3880    6.6960 C.ar  155  PHE155     -0.0042
     69  CD2       -8.4770   17.1740    4.7620 C.ar  155  PHE155     -0.0042
     70  CE1       -7.0570   15.1880    6.0830 C.ar  155  PHE155     -0.0003
     71  CE2       -8.2960   15.9670    4.1470 C.ar  155  PHE155     -0.0003
     72  CZ        -7.5690   14.9670    4.7960 C.ar  155  PHE155     -0.0000
     73  N         -3.1180   17.0740   11.5210 N.3   163  TRP163     -0.1241
     74  CA        -4.2500   17.1660   10.6500 C.3   163  TRP163      0.1605
     75  C         -5.2410   16.1480   11.0700 C.2   163  TRP163      0.2264
     76  O         -4.9230   14.9840   11.1510 O.2   163  TRP163     -0.2867
     77  CB        -3.8240   16.9010    9.2060 C.3   163  TRP163      0.0550
     78  CG        -3.0960   18.0590    8.5900 C.ar  163  TRP163      0.0003
     79  CD1       -2.4790   19.0800    9.2490 C.ar  163  TRP163      0.0946
     80  CD2       -2.8780   18.2930    7.1920 C.ar  163  TRP163      0.0152
     81  NE1       -1.9230   19.9630    8.3530 N.ar  163  TRP163     -0.2442
     82  CE2       -2.1490   19.4980    7.0810 C.ar  163  TRP163      0.0810
     83  CE3       -3.2610   17.6180    6.0160 C.ar  163  TRP163      0.0012
     84  CZ2       -1.7810   20.0420    5.8330 C.ar  163  TRP163      0.0191
     85  CZ3       -2.9020   18.1610    4.7870 C.ar  163  TRP163      0.0001
     86  CH2       -2.1660   19.3580    4.7020 C.ar  163  TRP163      0.0015
     87  N         -8.8250   14.6360    9.8850 N.3   165  GLU165     -0.1245
     88  CA        -9.8580   14.5790    8.8280 C.3   165  GLU165      0.1567
     89  C        -11.2370   14.3750    9.4020 C.2   165  GLU165      0.2260
     90  O        -11.3830   13.6300   10.3600 O.2   165  GLU165     -0.2867
     91  CB        -9.6060   13.4150    7.8720 C.3   165  GLU165      0.0388
     92  CG       -10.6700   13.3110    6.8180 C.3   165  GLU165      0.1160
     93  CD       -10.2500   12.4750    5.6360 C.2   165  GLU165      0.3649
     94  OE1      -10.8790   12.6120    4.5920 O.co2 165  GLU165     -0.2457
     95  OE2       -9.3040   11.6780    5.7370 O.co2 165  GLU165     -0.2457
@<TRIPOS>BOND
     1    61    60    1
     2    60    59    1
     3    54    55    1
     4    59    58    1
     5    55    58    1
     6    55    56    1
     7    56    57    2
     8    48    49    2
     9    48    47    1
    10    19    17    1
    11    47    46    1
    12    47    50    1
    13    18    17    1
    14    17    16    2
    15    50    51    1
    16    16    15    1
    17    45    44    1
    18    44    43    1
    19    52    51   ar
    20    51    53   ar
    21    43    42    1
    22    15    14    1
    23    42    41    1
    24    14    13    1
    25    41    38    1
    26    13    10    1
    27    71    69   ar
    28    71    72   ar
    29     4     3    2
    30    38    39    1
    31    38    37    1
    32    33    32    2
    33    94    93   ar
    34    86    85   ar
    35    86    84   ar
    36    69    67   ar
    37    85    83   ar
    38    72    70   ar
    39    39    40    2
    40     9    10    1
    41    10    11    1
    42     3     2    1
    43    35    34    1
    44    37    32   am
    45    12    11    2
    46    32    31    1
    47    93    95   ar
    48    93    92    1
    49    28    29   ar
    50    28    26   ar
    51     7     6    2
    52    84    82   ar
    53    83    80   ar
    54    67    68   ar
    55    67    66    1
    56    70    68   ar
    57     2     5    1
    58     2     1    1
    59     5     6    1
    60    29    27   ar
    61    26    25   ar
    62     6     8   am
    63    31    34    1
    64    31    30    1
    65    34    36    1
    66    66    63    1
    67    62    63    1
    68    92    91    1
    69    82    80   ar
    70    82    81   ar
    71    80    78   ar
    72    63    64    1
    73    27    25   ar
    74    25    24    1
    75    91    88    1
    76    65    64    2
    77    81    79   ar
    78    78    77    1
    79    78    79   ar
    80    88    89    1
    81    88    87    1
    82    24    21    1
    83    20    21    1
    84    77    74    1
    85    89    90    2
    86    21    22    1
    87    23    22    2
    88    74    75    1
    89    74    73    1
    90    75    76    2
