@<TRIPOS>MOLECULE
tmp/4kykB00.pdb
 92 86 0 0 0
SMALL
GASTEIGER

@<TRIPOS>ATOM
      1  N         26.6710   11.3830   72.6180 N.3   120  HIS120     -0.1241
      2  CA        25.5720   11.8700   73.4490 C.3   120  HIS120      0.1621
      3  C         24.8360   10.7730   74.1680 C.2   120  HIS120      0.2264
      4  O         25.0080    9.5920   73.8740 O.2   120  HIS120     -0.2867
      5  CB        24.5490   12.6270   72.6020 C.3   120  HIS120      0.0745
      6  CG        23.9840   11.8170   71.4850 C.ar  120  HIS120      0.0817
      7  ND1       24.4440   11.9140   70.1920 N.ar  120  HIS120     -0.2268
      8  CD2       23.0100   10.8790   71.4680 C.ar  120  HIS120      0.1154
      9  CE1       23.7680   11.0830   69.4210 C.ar  120  HIS120      0.1986
     10  NE2       22.8950   10.4400   70.1720 N.ar  120  HIS120     -0.2212
     11  N         20.6760   21.8360   68.6820 N.3   144  LYS144     -0.1245
     12  CA        19.7650   21.7660   67.5500 C.3   144  LYS144      0.1561
     13  C         18.3440   21.9170   68.0870 C.2   144  LYS144      0.2260
     14  O         17.8570   21.0750   68.8440 O.2   144  LYS144     -0.2867
     15  CB        19.9060   20.4290   66.8190 C.3   144  LYS144      0.0271
     16  CG        19.1820   20.3850   65.4780 C.3   144  LYS144      0.0035
     17  CD        18.6000   19.0080   65.2250 C.3   144  LYS144      0.0206
     18  CE        17.6600   18.9920   64.0290 C.3   144  LYS144      0.1093
     19  NZ        16.2920   19.4810   64.3460 N.3   144  LYS144     -0.1314
     20  N         16.4720   22.4480   60.6060 N.3   149  GLY149     -0.1210
     21  CA        17.0860   21.4460   59.7570 C.3   149  GLY149      0.1956
     22  C         16.1440   20.4700   59.0910 C.2   149  GLY149      0.2612
     23  O         14.9500   20.6120   59.1680 O.2   149  GLY149     -0.2717
     24  N         16.7060   19.4780   58.4140 N.am  150  LYS150     -0.1965
     25  CA        15.9490   18.4820   57.6880 C.3   150  LYS150      0.1728
     26  C         15.2000   17.5650   58.6180 C.2   150  LYS150      0.2616
     27  O         14.0940   17.1460   58.3070 O.2   150  LYS150     -0.2715
     28  CB        16.8970   17.6310   56.8440 C.3   150  LYS150      0.0311
     29  CG        16.2310   16.5570   55.9910 C.3   150  LYS150      0.0038
     30  CD        15.4580   17.2020   54.8750 C.3   150  LYS150      0.0206
     31  CE        15.1090   16.2070   53.8140 C.3   150  LYS150      0.1093
     32  NZ        14.4970   15.0060   54.4360 N.3   150  LYS150     -0.1314
     33  N         15.7980   17.2230   59.7590 N.am  151  MET151     -0.1977
     34  CA        15.1400   16.3070   60.7030 C.3   151  MET151      0.1605
     35  C         14.4370   17.0860   61.7850 C.2   151  MET151      0.2287
     36  O         14.9340   17.2170   62.9010 O.2   151  MET151     -0.2864
     37  CB        16.1660   15.3550   61.3360 C.3   151  MET151      0.0413
     38  CG        16.9230   14.5440   60.2880 C.3   151  MET151      0.0598
     39  SD        15.8690   13.3970   59.4290 S.3   151  MET151     -0.1393
     40  CE        16.8920   12.8270   58.0680 C.3   151  MET151      0.0692
     41  N         13.1930   16.4700   66.2400 N.3   154  LEU154     -0.1245
     42  CA        14.2820   15.8640   66.9930 C.3   154  LEU154      0.1561
     43  C         15.2420   16.9580   67.4230 C.2   154  LEU154      0.2260
     44  O         15.5900   17.7980   66.6070 O.2   154  LEU154     -0.2867
     45  CB        15.0460   14.9050   66.0890 C.3   154  LEU154      0.0270
     46  CG        16.2640   14.3030   66.7820 C.3   154  LEU154      0.0019
     47  CD1       15.8140   13.0960   67.5670 C.3   154  LEU154      0.0001
     48  CD2       17.3710   13.9330   65.8130 C.3   154  LEU154      0.0001
     49  N         18.6970   18.4310   70.1570 N.3   156  PHE156     -0.1241
     50  CA        19.8720   18.1840   70.9690 C.3   156  PHE156      0.1605
     51  C         20.0270   19.3690   71.8910 C.2   156  PHE156      0.2264
     52  O         20.1080   20.4940   71.4260 O.2   156  PHE156     -0.2867
     53  CB        21.1210   18.0920   70.0900 C.3   156  PHE156      0.0534
     54  CG        21.2420   16.7950   69.3370 C.ar  156  PHE156     -0.0203
     55  CD1       21.7850   15.6760   69.9450 C.ar  156  PHE156     -0.0042
     56  CD2       20.7950   16.6920   68.0320 C.ar  156  PHE156     -0.0042
     57  CE1       21.8940   14.4810   69.2610 C.ar  156  PHE156     -0.0003
     58  CE2       20.9060   15.4890   67.3350 C.ar  156  PHE156     -0.0003
     59  CZ        21.4570   14.3850   67.9520 C.ar  156  PHE156     -0.0000
     60  N         20.3170   14.0540   73.2660 N.3   166  GLU166     -0.1245
     61  CA        19.3030   13.9730   72.2250 C.3   166  GLU166      0.1567
     62  C         17.9180   13.8810   72.8250 C.2   166  GLU166      0.2260
     63  O         17.7140   13.2200   73.8330 O.2   166  GLU166     -0.2867
     64  CB        19.5310   12.7730   71.3090 C.3   166  GLU166      0.0388
     65  CG        18.5750   12.7520   70.1380 C.3   166  GLU166      0.1160
     66  CD        19.0140   11.7960   69.0680 C.2   166  GLU166      0.3649
     67  OE1       18.5000   11.8720   67.9400 O.co2 166  GLU166     -0.2457
     68  OE2       19.8800   10.9650   69.3510 O.co2 166  GLU166     -0.2457
     69  N         10.0020    8.9790   64.9070 N.3   173  ILE173     -0.1245
     70  CA        11.3240    8.8160   64.2900 C.3   173  ILE173      0.1561
     71  C         11.2550    8.3200   62.8430 C.2   173  ILE173      0.2260
     72  O         11.8580    8.9160   61.9490 O.2   173  ILE173     -0.2867
     73  CB        12.2500    7.8630   65.0840 C.3   173  ILE173      0.0252
     74  CG1       12.8740    8.5660   66.2870 C.3   173  ILE173      0.0019
     75  CG2       13.4030    7.4260   64.2040 C.3   173  ILE173      0.0019
     76  CD1       14.0170    9.5320   65.8900 C.3   173  ILE173      0.0001
     77  N         10.3560   10.8220   60.5470 N.3   176  ILE176     -0.1231
     78  CA        11.3620   11.8670   60.4100 C.3   176  ILE176      0.1692
     79  C         12.4010   11.5200   59.3440 C.2   176  ILE176      0.2591
     80  O         12.6920   12.3540   58.4850 O.2   176  ILE176     -0.2718
     81  CB        11.9770   12.2420   61.7900 C.3   176  ILE176      0.0266
     82  CG1       10.9940   13.1290   62.5690 C.3   176  ILE176      0.0019
     83  CG2       13.2730   12.9710   61.6320 C.3   176  ILE176      0.0020
     84  CD1       11.2160   13.1450   64.1040 C.3   176  ILE176      0.0001
     85  N         12.9270   10.2940   59.3840 N.am  177  ILE177     -0.1980
     86  CA        13.7700    9.7720   58.3030 C.3   177  ILE177      0.1595
     87  C         13.0750    9.8920   56.9480 C.2   177  ILE177      0.2287
     88  O         12.4040    8.9580   56.4930 O.2   177  ILE177     -0.2864
     89  CB        14.0880    8.2870   58.5010 C.3   177  ILE177      0.0276
     90  CG1       14.5440    8.0180   59.9290 C.3   177  ILE177      0.0022
     91  CG2       15.1400    7.8200   57.4840 C.3   177  ILE177      0.0022
     92  CD1       14.7350    6.5490   60.2050 C.3   177  ILE177      0.0001
@<TRIPOS>BOND
     1    31    32    1
     2    31    30    1
     3    30    29    1
     4    29    28    1
     5    88    87    2
     6    28    25    1
     7    87    86    1
     8    91    89    1
     9    25    24    1
    10    25    26    1
    11    40    39    1
    12    86    89    1
    13    86    85    1
    14    27    26    2
    15    24    22   am
    16    80    79    2
    17    89    90    1
    18    26    33   am
    19    22    23    2
    20    22    21    1
    21    79    85   am
    22    79    78    1
    23    39    38    1
    24    21    20    1
    25    33    34    1
    26    90    92    1
    27    38    37    1
    28    78    77    1
    29    78    81    1
    30    34    37    1
    31    34    35    1
    32    83    81    1
    33    35    36    2
    34    81    82    1
    35    72    71    2
    36    82    84    1
    37    71    70    1
    38    18    19    1
    39    18    17    1
    40    75    73    1
    41    70    69    1
    42    70    73    1
    43    73    74    1
    44    17    16    1
    45    16    15    1
    46    48    46    1
    47    76    74    1
    48    45    46    1
    49    45    42    1
    50    41    42    1
    51    44    43    2
    52    46    47    1
    53    15    12    1
    54    42    43    1
    55    58    59   ar
    56    58    56   ar
    57    12    13    1
    58    12    11    1
    59    67    66   ar
    60    59    57   ar
    61    56    54   ar
    62    13    14    2
    63    66    68   ar
    64    66    65    1
    65    57    55   ar
    66    54    55   ar
    67    54    53    1
    68     9    10   ar
    69     9     7   ar
    70    53    50    1
    71    65    64    1
    72    49    50    1
    73    10     8   ar
    74     7     6   ar
    75    50    51    1
    76    64    61    1
    77    52    51    2
    78     8     6   ar
    79     6     5    1
    80    61    62    1
    81    61    60    1
    82     5     2    1
    83     1     2    1
    84    62    63    2
    85     2     3    1
    86     4     3    2
