@<TRIPOS>MOLECULE
tmp/4kyqA00.pdb
 114 113 0 0 0
SMALL
GASTEIGER

@<TRIPOS>ATOM
      1  N         -7.6330  -18.3510   11.9390 N.3     9  TYR9       -0.1241
      2  CA        -7.1170  -19.6810   12.2910 C.3     9  TYR9        0.1605
      3  C         -8.2020  -20.6020   12.7870 C.2     9  TYR9        0.2264
      4  O         -9.0680  -20.1840   13.5770 O.2     9  TYR9       -0.2867
      5  CB        -6.0680  -19.4960   13.3730 C.3     9  TYR9        0.0534
      6  CG        -5.2920  -20.7500   13.7970 C.ar    9  TYR9       -0.0201
      7  CD1       -4.8500  -21.6830   12.8850 C.ar    9  TYR9       -0.0009
      8  CD2       -4.9860  -20.9570   15.1270 C.ar    9  TYR9       -0.0009
      9  CE1       -4.1100  -22.7880   13.2620 C.ar    9  TYR9        0.0417
     10  CE2       -4.2400  -22.0530   15.5180 C.ar    9  TYR9        0.0417
     11  CZ        -3.7970  -22.9600   14.5920 C.ar    9  TYR9        0.1957
     12  OH        -3.0910  -24.0680   14.9750 O.3     9  TYR9       -0.2866
     13  N         -2.0050  -23.0020   23.2480 N.3    60  TRP60      -0.1241
     14  CA        -2.3850  -24.0500   22.3240 C.3    60  TRP60       0.1605
     15  C         -2.1760  -25.4560   22.7930 C.2    60  TRP60       0.2264
     16  O         -2.6420  -26.4110   22.1370 O.2    60  TRP60      -0.2867
     17  CB        -1.7170  -23.8010   20.9610 C.3    60  TRP60       0.0550
     18  CG        -2.3540  -22.6490   20.2640 C.ar   60  TRP60       0.0003
     19  CD1       -1.8020  -21.4080   19.9630 C.ar   60  TRP60       0.0946
     20  CD2       -3.7640  -22.5480   19.8480 C.ar   60  TRP60       0.0152
     21  NE1       -2.7420  -20.5980   19.3630 N.ar   60  TRP60      -0.2442
     22  CE2       -3.9230  -21.2310   19.2470 C.ar   60  TRP60       0.0810
     23  CE3       -4.8550  -23.4110   19.8850 C.ar   60  TRP60       0.0012
     24  CZ2       -5.1610  -20.7890   18.7510 C.ar   60  TRP60       0.0191
     25  CZ3       -6.0780  -22.9940   19.3680 C.ar   60  TRP60       0.0001
     26  CH2       -6.2260  -21.7090   18.7650 C.ar   60  TRP60       0.0015
     27  N          5.5750  -11.2850   18.9100 N.3    84  LYS84      -0.1231
     28  CA         4.2070  -11.1860   19.4740 C.3    84  LYS84       0.1693
     29  C          3.1420  -11.2050   18.3820 C.2    84  LYS84       0.2592
     30  O          3.3140  -10.6540   17.2820 O.2    84  LYS84      -0.2718
     31  CB         4.0660   -9.9220   20.3490 C.3    84  LYS84       0.0285
     32  CG         5.0310   -9.8840   21.5170 C.3    84  LYS84       0.0035
     33  CD         4.9530   -8.5480   22.2590 C.3    84  LYS84       0.0206
     34  CE         5.8060   -8.5560   23.5070 C.3    84  LYS84       0.1093
     35  NZ         7.1970   -8.9710   23.1960 N.3    84  LYS84      -0.1314
     36  N          2.0280  -11.8860   18.6710 N.am   85  ASP85      -0.1960
     37  CA         0.9130  -11.9580   17.7130 C.3    85  ASP85       0.1840
     38  C          0.1810  -10.6110   17.5580 C.2    85  ASP85       0.2622
     39  O          0.0860   -9.8360   18.4970 O.2    85  ASP85      -0.2715
     40  CB        -0.0920  -13.0470   18.1600 C.3    85  ASP85       0.1450
     41  CG        -0.8570  -12.6690   19.4270 C.2    85  ASP85       0.3671
     42  OD1       -0.2430  -12.5300   20.5060 O.co2  85  ASP85      -0.2456
     43  OD2       -2.0900  -12.5070   19.3500 O.co2  85  ASP85      -0.2456
     44  N         -0.2960  -10.3200   16.3440 N.am   86  PHE86      -0.1960
     45  CA        -1.0550   -9.1160   16.0820 C.3    86  PHE86       0.1771
     46  C         -0.3530   -7.8860   16.6850 C.2    86  PHE86       0.2619
     47  O         -0.9920   -6.9990   17.2870 O.2    86  PHE86      -0.2715
     48  CB        -2.4730   -9.2290   16.6290 C.3    86  PHE86       0.0574
     49  CG        -3.3370  -10.2110   15.8830 C.ar   86  PHE86      -0.0200
     50  CD1       -3.7820   -9.9320   14.5800 C.ar   86  PHE86      -0.0042
     51  CD2       -3.7010  -11.3960   16.4570 C.ar   86  PHE86      -0.0042
     52  CE1       -4.6090  -10.8300   13.8850 C.ar   86  PHE86      -0.0003
     53  CE2       -4.5130  -12.2990   15.7860 C.ar   86  PHE86      -0.0003
     54  CZ        -4.9710  -12.0110   14.4890 C.ar   86  PHE86      -0.0000
     55  N          0.9350   -7.7920   16.4280 N.am   87  ASP87      -0.1971
     56  CA         1.7650   -6.7190   16.9900 C.3    87  ASP87       0.1709
     57  C          2.8040   -6.2900   15.9690 C.2    87  ASP87       0.2293
     58  O          3.9090   -6.8840   15.9120 O.2    87  ASP87      -0.2864
     59  CB         2.4100   -7.1860   18.2840 C.3    87  ASP87       0.1436
     60  CG         3.1900   -6.1020   18.9950 C.2    87  ASP87       0.3671
     61  OD1        3.6050   -5.1190   18.3690 O.co2  87  ASP87      -0.2456
     62  OD2        3.3770   -6.2270   20.2200 O.co2  87  ASP87      -0.2456
     63  N          6.8090   -7.4150   15.3420 N.3    91  LEU91      -0.1245
     64  CA         7.2390   -8.0850   14.1380 C.3    91  LEU91       0.1561
     65  C          8.4070   -7.2790   13.5120 C.2    91  LEU91       0.2260
     66  O          9.4150   -7.8520   13.0600 O.2    91  LEU91      -0.2867
     67  CB         6.0920   -8.2230   13.1450 C.3    91  LEU91       0.0270
     68  CG         6.3650   -8.9160   11.7970 C.3    91  LEU91       0.0019
     69  CD1        7.0460  -10.2640   11.9840 C.3    91  LEU91       0.0001
     70  CD2        5.0460   -9.0240   11.0360 C.3    91  LEU91       0.0001
     71  N          3.9390  -19.6030   12.4480 N.3   117  CYS117     -0.1221
     72  CA         3.6410  -18.9950   13.7530 C.3   117  CYS117      0.1808
     73  C          2.4520  -19.7950   14.2820 C.2   117  CYS117      0.2602
     74  O          2.4320  -21.0160   14.1000 O.2   117  CYS117     -0.2717
     75  CB         3.3920  -17.5210   13.5910 C.3   117  CYS117      0.0970
     76  SG         2.2370  -17.2710   12.3330 S.3   117  CYS117     -0.0800
     77  N          1.5420  -19.2210   15.0630 N.am  118  SER118     -0.1938
     78  CA         0.4060  -20.0560   15.4860 C.3   118  SER118      0.2055
     79  C         -0.4420  -20.4770   14.2860 C.2   118  SER118      0.2643
     80  O         -0.6790  -21.6980   14.0510 O.2   118  SER118     -0.2714
     81  CB        -0.4450  -19.3960   16.5840 C.3   118  SER118      0.2130
     82  OG         0.3260  -19.1580   17.7360 O.3   118  SER118     -0.2179
     83  N         -0.8780  -19.4910   13.5070 N.am  119  ALA119     -0.1963
     84  CA        -1.7590  -19.7110   12.3440 C.3   119  ALA119      0.1728
     85  C         -1.0480  -19.5770   11.0250 C.2   119  ALA119      0.2617
     86  O         -1.5880  -20.0110   10.0370 O.2   119  ALA119     -0.2715
     87  CB        -2.9180  -18.7330   12.3760 C.3   119  ALA119      0.0334
     88  N          0.1430  -18.9670   10.9520 N.am  120  GLY120     -0.1940
     89  CA         0.7690  -18.7480    9.6190 C.3   120  GLY120      0.2014
     90  C          0.0240  -17.6940    8.8330 C.2   120  GLY120      0.2639
     91  O         -0.0590  -17.7820    7.5980 O.2   120  GLY120     -0.2714
     92  N         -0.5500  -16.7200    9.5500 N.am  121  LEU121     -0.1963
     93  CA        -1.3730  -15.6720    8.9020 C.3   121  LEU121      0.1728
     94  C         -0.8130  -14.2640    9.0170 C.2   121  LEU121      0.2617
     95  O         -1.2270  -13.3950    8.2580 O.2   121  LEU121     -0.2715
     96  CB        -2.8360  -15.6960    9.4170 C.3   121  LEU121      0.0311
     97  CG        -3.5860  -17.0420    9.1450 C.3   121  LEU121      0.0022
     98  CD1       -4.9960  -17.0280    9.7780 C.3   121  LEU121      0.0001
     99  CD2       -3.6100  -17.3680    7.6560 C.3   121  LEU121      0.0001
    100  N          0.0550  -14.0260    9.9840 N.am  122  GLY122     -0.1940
    101  CA         0.6640  -12.7210   10.2070 C.3   122  GLY122      0.2014
    102  C          2.1650  -12.7670   10.2160 C.2   122  GLY122      0.2638
    103  O          2.7880  -12.4470    9.2110 O.2   122  GLY122     -0.2714
    104  N          2.7150  -13.2490   11.3180 N.am  123  ARG123     -0.1977
    105  CA         4.1570  -13.3320   11.5510 C.3   123  ARG123      0.1597
    106  C          4.8450  -14.1390   10.4670 C.2   123  ARG123      0.2287
    107  O          5.8580  -13.6620    9.9010 O.2   123  ARG123     -0.2864
    108  CB         4.4850  -13.8880   12.9520 C.3   123  ARG123      0.0334
    109  CG         4.2060  -12.9160   14.0890 C.3   123  ARG123      0.0492
    110  CD         4.1510  -13.5720   15.4810 C.3   123  ARG123      0.2205
    111  NE         2.9510  -14.4330   15.5590 N.pl3 123  ARG123     -0.0865
    112  CZ         2.6680  -15.2230   16.5640 C.cat 123  ARG123      0.5346
    113  NH1        3.4110  -15.2200   17.6280 N.pl3 123  ARG123      0.1354
    114  NH2        1.5870  -15.9690   16.5380 N.pl3 123  ARG123      0.1354
@<TRIPOS>BOND
     1    91    90    2
     2    99    97    1
     3    95    94    2
     4    90    92   am
     5    90    89    1
     6    93    94    1
     7    93    96    1
     8    93    92    1
     9    94   100   am
    10    97    96    1
    11    97    98    1
    12   103   102    2
    13    89    88    1
    14   107   106    2
    15   100   101    1
    16    86    85    2
    17   101   102    1
    18   102   104   am
    19   106   105    1
    20    88    85   am
    21    85    84    1
    22    70    68    1
    23   104   105    1
    24   105   108    1
    25    68    69    1
    26    68    67    1
    27     1     2    1
    28     2     3    1
    29     2     5    1
    30    76    75    1
    31    84    87    1
    32    84    83    1
    33    71    72    1
    34     3     4    2
    35     7     9   ar
    36     7     6   ar
    37   108   109    1
    38    66    65    2
    39    67    64    1
    40     9    11   ar
    41     5     6    1
    42    83    79   am
    43    65    64    1
    44    75    72    1
    45    72    73    1
    46     6     8   ar
    47    52    54   ar
    48    52    50   ar
    49    80    79    2
    50   109   110    1
    51    74    73    2
    52    64    63    1
    53    73    77   am
    54    79    78    1
    55    54    53   ar
    56    50    49   ar
    57    11    12    1
    58    11    10   ar
    59    77    78    1
    60     8    10   ar
    61   110   111    1
    62    78    81    1
    63   111   112    2
    64    53    51   ar
    65    49    51   ar
    66    49    48    1
    67    58    57    2
    68    57    56    1
    69    45    44    1
    70    45    48    1
    71    45    46    1
    72    44    38   am
    73    55    46   am
    74    55    56    1
    75   114   112    1
    76   112   113    1
    77    81    82    1
    78    46    47    2
    79    56    59    1
    80    30    29    2
    81    38    37    1
    82    38    39    2
    83    37    40    1
    84    37    36    1
    85    40    41    1
    86    59    60    1
    87    61    60   ar
    88    29    36   am
    89    29    28    1
    90    24    26   ar
    91    24    22   ar
    92    26    25   ar
    93    27    28    1
    94    60    62   ar
    95    22    21   ar
    96    22    20   ar
    97    43    41   ar
    98    21    19   ar
    99    25    23   ar
   100    41    42   ar
   101    28    31    1
   102    20    23   ar
   103    20    18   ar
   104    19    18   ar
   105    18    17    1
   106    31    32    1
   107    17    14    1
   108    32    33    1
   109    16    15    2
   110    33    34    1
   111    14    15    1
   112    14    13    1
   113    35    34    1
