@<TRIPOS>MOLECULE
tmp/4kyrA01.pdb
 99 98 0 0 0
SMALL
GASTEIGER

@<TRIPOS>ATOM
      1  N          1.8520   21.8940   -6.0580 N.3    79  ARG79      -0.1231
      2  CA         2.2550   22.1970   -4.7200 C.3    79  ARG79       0.1694
      3  C          1.7230   23.5340   -4.1780 C.2    79  ARG79       0.2592
      4  O          2.0000   24.5880   -4.7200 O.2    79  ARG79      -0.2718
      5  CB         3.7650   22.1750   -4.6400 C.3    79  ARG79       0.0321
      6  CG         4.1990   21.9830   -3.2150 C.3    79  ARG79       0.0489
      7  CD         5.6710   22.1640   -3.1180 C.3    79  ARG79       0.2205
      8  NE         6.3430   20.9070   -3.4120 N.pl3  79  ARG79      -0.0865
      9  CZ         6.6540   19.9990   -2.5110 C.cat  79  ARG79       0.5346
     10  NH1        6.3640   20.1730   -1.2300 N.pl3  79  ARG79       0.1354
     11  NH2        7.2720   18.9160   -2.9050 N.pl3  79  ARG79       0.1354
     12  N          0.9950   23.4590   -3.0700 N.am   80  HIS80      -0.1962
     13  CA         0.3510   24.5980   -2.4570 C.3    80  HIS80       0.1787
     14  C          1.1490   25.0070   -1.2060 C.2    80  HIS80       0.2620
     15  O          1.3860   24.2020   -0.3140 O.2    80  HIS80      -0.2715
     16  CB        -1.0960   24.2370   -2.1170 C.3    80  HIS80       0.0785
     17  CG        -1.8920   25.3770   -1.5750 C.ar   80  HIS80       0.0821
     18  ND1       -1.8900   25.7100   -0.2350 N.ar   80  HIS80      -0.2267
     19  CD2       -2.7270   26.2580   -2.1880 C.ar   80  HIS80       0.1154
     20  CE1       -2.6550   26.7760   -0.0570 C.ar   80  HIS80       0.1986
     21  NE2       -3.1710   27.1300   -1.2250 N.ar   80  HIS80      -0.2212
     22  N          1.5590   26.2760   -1.1670 N.am   81  MET81      -0.1963
     23  CA         2.4280   26.7960   -0.1510 C.3    81  MET81       0.1736
     24  C          1.8230   27.9930    0.5580 C.2    81  MET81       0.2616
     25  O          1.3650   28.9600   -0.0880 O.2    81  MET81      -0.2715
     26  CB         3.7360   27.1940   -0.7890 C.3    81  MET81       0.0427
     27  CG         4.3660   26.1030   -1.6560 C.3    81  MET81       0.0599
     28  SD         5.9300   26.5640   -2.4350 S.3    81  MET81      -0.1393
     29  CE         5.4250   27.8860   -3.5500 C.3    81  MET81       0.0692
     30  N          1.8090   27.9390    1.8920 N.am   82  ARG82      -0.1963
     31  CA         1.3660   29.0920    2.6560 C.3    82  ARG82       0.1729
     32  C          2.4630   29.8740    3.3580 C.2    82  ARG82       0.2616
     33  O          3.2610   29.3070    4.1380 O.2    82  ARG82      -0.2715
     34  CB         0.3130   28.7260    3.6560 C.3    82  ARG82       0.0348
     35  CG        -0.9250   28.1910    3.0090 C.3    82  ARG82       0.0492
     36  CD        -2.0090   28.0350    4.0550 C.3    82  ARG82       0.2205
     37  NE        -2.4410   29.3440    4.4940 N.pl3  82  ARG82      -0.0865
     38  CZ        -3.2090   29.5760    5.5430 C.cat  82  ARG82       0.5346
     39  NH1       -3.6610   28.5700    6.2540 N.pl3  82  ARG82       0.1354
     40  NH2       -3.5390   30.8240    5.8600 N.pl3  82  ARG82       0.1354
     41  N          2.4530   31.1850    3.1010 N.am   83  ARG83      -0.1977
     42  CA         3.2920   32.1440    3.8080 C.3    83  ARG83       0.1597
     43  C          2.4760   33.3990    4.1450 C.2    83  ARG83       0.2287
     44  O          2.5500   34.3910    3.4030 O.2    83  ARG83      -0.2864
     45  CB         4.4990   32.5500    2.9580 C.3    83  ARG83       0.0334
     46  CG         5.5450   31.4710    2.7150 C.3    83  ARG83       0.0492
     47  CD         6.3420   31.1640    3.9640 C.3    83  ARG83       0.2205
     48  NE         7.5450   30.3680    3.7180 N.pl3  83  ARG83      -0.0865
     49  CZ         8.3020   29.8400    4.6750 C.cat  83  ARG83       0.5346
     50  NH1        7.9920   29.9920    5.9840 N.pl3  83  ARG83       0.1354
     51  NH2        9.3900   29.1560    4.3290 N.pl3  83  ARG83       0.1354
     52  N         11.6160   33.1010   -0.3340 N.3   102  SER102     -0.1202
     53  CA        12.3540   31.8460   -0.3750 C.3   102  SER102      0.2020
     54  C         11.5040   30.7460   -0.9500 C.2   102  SER102      0.2619
     55  O         12.0210   29.9350   -1.7230 O.2   102  SER102     -0.2717
     56  CB        12.9030   31.3960    0.9870 C.3   102  SER102      0.2103
     57  OG        11.9050   30.8500    1.8010 O.3   102  SER102     -0.2182
     58  N         10.2130   30.7120   -0.5780 N.am  103  SER103     -0.1951
     59  CA         9.2690   29.7350   -1.1420 C.3   103  SER103      0.1924
     60  C          9.1070   29.9370   -2.6850 C.2   103  SER103      0.2314
     61  O          9.1550   28.9710   -3.4310 O.2   103  SER103     -0.2863
     62  CB         7.8980   29.8120   -0.4350 C.3   103  SER103      0.2116
     63  OG         8.0090   29.5600    0.9730 O.3   103  SER103     -0.2180
     64  N         12.4570   29.1690   -4.6170 N.3   106  TRP106     -0.1241
     65  CA        12.6390   27.7340   -4.5920 C.3   106  TRP106      0.1605
     66  C         11.7940   27.0780   -5.6470 C.2   106  TRP106      0.2264
     67  O         12.2580   26.2200   -6.3730 O.2   106  TRP106     -0.2867
     68  CB        12.2230   27.1330   -3.2530 C.3   106  TRP106      0.0550
     69  CG        12.2210   25.6570   -3.3570 C.ar  106  TRP106      0.0003
     70  CD1       13.2990   24.8760   -3.4220 C.ar  106  TRP106      0.0946
     71  CD2       11.0790   24.7980   -3.5270 C.ar  106  TRP106      0.0152
     72  NE1       12.9190   23.5640   -3.5580 N.ar  106  TRP106     -0.2442
     73  CE2       11.5600   23.4870   -3.6460 C.ar  106  TRP106      0.0810
     74  CE3        9.7110   25.0140   -3.5600 C.ar  106  TRP106      0.0012
     75  CZ2       10.7300   22.3760   -3.8130 C.ar  106  TRP106      0.0191
     76  CZ3        8.8550   23.8850   -3.7190 C.ar  106  TRP106      0.0001
     77  CH2        9.3840   22.5900   -3.8420 C.ar  106  TRP106      0.0015
     78  N         14.6870   28.1280    3.0530 N.3   206  ARG206     -0.1231
     79  CA        13.9550   27.0090    2.4540 C.3   206  ARG206      0.1694
     80  C         13.4650   25.9180    3.3860 C.2   206  ARG206      0.2593
     81  O         14.2200   25.2880    4.0940 O.2   206  ARG206     -0.2718
     82  CB        14.7780   26.3890    1.3450 C.3   206  ARG206      0.0321
     83  CG        14.7850   27.2790    0.1250 C.3   206  ARG206      0.0489
     84  CD        15.8720   26.7950   -0.8060 C.3   206  ARG206      0.2205
     85  NE        15.8580   27.4920   -2.0850 N.pl3 206  ARG206     -0.0865
     86  CZ        16.4750   27.0510   -3.1770 C.cat 206  ARG206      0.5346
     87  NH1       17.0690   25.8870   -3.1710 N.pl3 206  ARG206      0.1354
     88  NH2       16.4300   27.7400   -4.3050 N.pl3 206  ARG206      0.1354
     89  N         12.1720   25.6820    3.3770 N.am  207  GLY207     -0.1942
     90  CA        11.6200   24.6150    4.1960 C.3   207  GLY207      0.2014
     91  C         11.5860   24.9640    5.6750 C.2   207  GLY207      0.2639
     92  O         11.3210   24.1060    6.4770 O.2   207  GLY207     -0.2714
     93  N         11.8730   26.2070    6.0410 N.am  208  THR208     -0.1950
     94  CA        11.7140   26.6600    7.4270 C.3   208  THR208      0.1897
     95  C         10.3080   27.1680    7.5650 C.2   208  THR208      0.2313
     96  O          9.4700   26.9920    6.6850 O.2   208  THR208     -0.2863
     97  CB        12.6850   27.7990    7.8210 C.3   208  THR208      0.1794
     98  OG1       12.4320   28.9620    7.0020 O.3   208  THR208     -0.2208
     99  CG2       14.1340   27.3370    7.6620 C.3   208  THR208      0.0378
@<TRIPOS>BOND
     1    67    66    2
     2     1     2    1
     3    66    65    1
     4     2     5    1
     5     2     3    1
     6     4     3    2
     7     5     6    1
     8    64    65    1
     9    65    68    1
    10    88    86    1
    11     3    12   am
    12    77    75   ar
    13    77    76   ar
    14    75    73   ar
    15    76    74   ar
    16    73    72   ar
    17    73    71   ar
    18    74    71   ar
    19    72    70   ar
    20    29    28    1
    21    71    69   ar
    22    61    60    2
    23    70    69   ar
    24     8     7    1
    25     8     9    2
    26    69    68    1
    27     6     7    1
    28    86    87    1
    29    86    85    2
    30    12    13    1
    31    11     9    1
    32    60    59    1
    33     9    10    1
    34    13    16    1
    35    13    14    1
    36    28    27    1
    37    19    17   ar
    38    19    21   ar
    39    16    17    1
    40    85    84    1
    41    55    54    2
    42    27    26    1
    43    17    18   ar
    44    21    20   ar
    45    14    22   am
    46    14    15    2
    47    22    23    1
    48    59    58    1
    49    59    62    1
    50    54    58   am
    51    54    53    1
    52    84    83    1
    53    26    23    1
    54    62    63    1
    55    53    52    1
    56    53    56    1
    57    18    20   ar
    58    23    24    1
    59    25    24    2
    60    83    82    1
    61    24    30   am
    62    56    57    1
    63    82    79    1
    64    30    31    1
    65    79    78    1
    66    79    80    1
    67    31    32    1
    68    31    34    1
    69    46    45    1
    70    46    47    1
    71    45    42    1
    72    35    34    1
    73    35    36    1
    74    41    32   am
    75    41    42    1
    76    32    33    2
    77    89    80   am
    78    89    90    1
    79    80    81    2
    80    44    43    2
    81    48    47    1
    82    48    49    2
    83    42    43    1
    84    36    37    1
    85    90    91    1
    86    51    49    1
    87    37    38    2
    88    49    50    1
    89    38    40    1
    90    38    39    1
    91    91    93   am
    92    91    92    2
    93    93    94    1
    94    96    95    2
    95    98    97    1
    96    94    95    1
    97    94    97    1
    98    99    97    1
