@<TRIPOS>MOLECULE
tmp/4kyrA00.pdb
 162 161 0 0 0
SMALL
GASTEIGER

@<TRIPOS>ATOM
      1  N        -14.5520   53.7160   -4.7760 N.3     6  ARG6       -0.1231
      2  CA       -14.1160   53.6250   -3.3710 C.3     6  ARG6        0.1694
      3  C        -12.7010   54.1680   -3.2230 C.2     6  ARG6        0.2593
      4  O        -12.4850   55.1990   -2.5750 O.2     6  ARG6       -0.2718
      5  CB       -14.1200   52.1690   -2.8740 C.3     6  ARG6        0.0321
      6  CG       -15.4650   51.4660   -2.7610 C.3     6  ARG6        0.0489
      7  CD       -15.2260   50.0680   -2.2110 C.3     6  ARG6        0.2205
      8  NE       -16.4080   49.2190   -2.2830 N.pl3   6  ARG6       -0.0865
      9  CZ       -16.4590   47.9540   -1.8590 C.cat   6  ARG6        0.5346
     10  NH1      -15.3850   47.3670   -1.3270 N.pl3   6  ARG6        0.1354
     11  NH2      -17.5970   47.2700   -1.9680 N.pl3   6  ARG6        0.1354
     12  N        -11.7590   53.4660   -3.8640 N.am    7  SER7       -0.1939
     13  CA       -10.3270   53.7620   -3.7960 C.3     7  SER7        0.2040
     14  C         -9.7360   53.6490   -5.2020 C.2     7  SER7        0.2485
     15  O        -10.4620   53.2570   -6.1500 O.2     7  SER7       -0.2729
     16  CB        -9.6220   52.7710   -2.8510 C.3     7  SER7        0.2129
     17  OG        -9.7190   51.4350   -3.3430 O.3     7  SER7       -0.2179
     18  N         -8.4300   53.9890   -5.3450 N.am    8  PRO8       -0.2715
     19  CA        -7.7840   53.9180   -6.6410 C.3     8  PRO8        0.1536
     20  C         -7.8130   52.5320   -7.2790 C.2     8  PRO8        0.2599
     21  O         -8.1360   52.4170   -8.4590 O.2     8  PRO8       -0.2715
     22  CB        -6.3570   54.3780   -6.3480 C.3     8  PRO8        0.0310
     23  CG        -6.5450   55.3680   -5.2290 C.3     8  PRO8        0.0237
     24  CD        -7.5830   54.7100   -4.3660 C.3     8  PRO8        0.0939
     25  N         -7.4970   51.5040   -6.5020 N.am    9  TYR9       -0.1960
     26  CA        -7.5880   50.1210   -6.9480 C.3     9  TYR9        0.1771
     27  C         -8.6590   49.3730   -6.1210 C.2     9  TYR9        0.2619
     28  O         -8.6420   49.4150   -4.8950 O.2     9  TYR9       -0.2715
     29  CB        -6.2360   49.4650   -6.8260 C.3     9  TYR9        0.0574
     30  CG        -5.1920   50.1960   -7.6180 C.ar    9  TYR9       -0.0198
     31  CD1       -5.0590   49.9900   -9.0150 C.ar    9  TYR9       -0.0009
     32  CD2       -4.3400   51.0590   -7.0080 C.ar    9  TYR9       -0.0009
     33  CE1       -4.1050   50.6660   -9.7460 C.ar    9  TYR9        0.0417
     34  CE2       -3.3880   51.7460   -7.7180 C.ar    9  TYR9        0.0417
     35  CZ        -3.2870   51.5530   -9.0840 C.ar    9  TYR9        0.1957
     36  OH        -2.3340   52.2420   -9.7650 O.3     9  TYR9       -0.2866
     37  N         -9.6240   48.7600   -6.7940 N.am   10  GLU10      -0.1963
     38  CA       -10.6910   48.0700   -6.0970 C.3    10  GLU10       0.1733
     39  C        -10.5410   46.5900   -6.3520 C.2    10  GLU10       0.2616
     40  O        -10.2300   46.2120   -7.4640 O.2    10  GLU10      -0.2715
     41  CB       -12.0860   48.5510   -6.5150 C.3    10  GLU10       0.0429
     42  CG       -13.1770   47.6350   -5.9190 C.3    10  GLU10       0.1163
     43  CD       -14.5000   48.3110   -5.5390 C.2    10  GLU10       0.3649
     44  OE1      -14.4840   49.5200   -5.1890 O.co2  10  GLU10      -0.2457
     45  OE2      -15.5520   47.6050   -5.5600 O.co2  10  GLU10      -0.2457
     46  N        -10.7620   45.7520   -5.3290 N.am   11  TYR11      -0.1974
     47  CA       -10.8790   44.2900   -5.5690 C.3    11  TYR11       0.1639
     48  C        -12.3300   43.9050   -5.9030 C.2    11  TYR11       0.2290
     49  O        -13.2130   44.1500   -5.1250 O.2    11  TYR11      -0.2864
     50  CB       -10.3420   43.5260   -4.3770 C.3    11  TYR11       0.0560
     51  CG       -10.4910   42.0230   -4.4300 C.ar   11  TYR11      -0.0198
     52  CD1      -10.1840   41.3030   -5.5710 C.ar   11  TYR11      -0.0009
     53  CD2      -10.8970   41.3160   -3.2980 C.ar   11  TYR11      -0.0009
     54  CE1      -10.3370   39.9320   -5.5980 C.ar   11  TYR11       0.0417
     55  CE2      -11.0630   39.9400   -3.3300 C.ar   11  TYR11       0.0417
     56  CZ       -10.7610   39.2590   -4.4660 C.ar   11  TYR11       0.1957
     57  OH       -10.8920   37.9020   -4.4450 O.3    11  TYR11      -0.2866
     58  N         -8.3240   36.2150    6.6910 N.3    58  ASP58      -0.1239
     59  CA        -8.6780   36.6300    5.3050 C.3    58  ASP58       0.1674
     60  C         -9.5160   35.5380    4.6430 C.2    58  ASP58       0.2266
     61  O        -10.4980   35.7910    3.9390 O.2    58  ASP58      -0.2867
     62  CB        -7.4410   36.8610    4.4680 C.3    58  ASP58       0.1410
     63  CG        -6.4970   37.8660    5.0880 C.2    58  ASP58       0.3668
     64  OD1       -6.9990   38.7110    5.8540 O.co2  58  ASP58      -0.2456
     65  OD2       -5.2650   37.7770    4.8080 O.co2  58  ASP58      -0.2456
     66  N        -13.1020   35.3910    5.9610 N.3    61  TYR61      -0.1227
     67  CA       -13.8950   36.5150    5.5520 C.3    61  TYR61       0.1736
     68  C        -14.4380   36.2930    4.1440 C.2    61  TYR61       0.2595
     69  O        -15.6030   36.6200    3.8710 O.2    61  TYR61      -0.2718
     70  CB       -13.0800   37.8030    5.6770 C.3    61  TYR61       0.0548
     71  CG       -13.8190   38.9860    5.1630 C.ar   61  TYR61      -0.0200
     72  CD1      -13.8040   39.3030    3.7870 C.ar   61  TYR61      -0.0009
     73  CD2      -14.5830   39.7710    6.0150 C.ar   61  TYR61      -0.0009
     74  CE1      -14.5070   40.3890    3.3030 C.ar   61  TYR61       0.0417
     75  CE2      -15.2940   40.8400    5.5270 C.ar   61  TYR61       0.0417
     76  CZ       -15.2510   41.1380    4.1640 C.ar   61  TYR61       0.1957
     77  OH       -15.9280   42.2150    3.6890 O.3    61  TYR61      -0.2866
     78  N        -13.6000   35.7310    3.2750 N.am   62  TRP62      -0.1976
     79  CA       -13.9240   35.5520    1.8190 C.3    62  TRP62       0.1640
     80  C        -14.5820   34.1900    1.5520 C.2    62  TRP62       0.2290
     81  O        -14.8280   33.8050    0.3980 O.2    62  TRP62      -0.2864
     82  CB       -12.6950   35.6790    0.9770 C.3    62  TRP62       0.0576
     83  CG       -12.2550   37.0930    0.8510 C.ar   62  TRP62       0.0006
     84  CD1      -11.1390   37.6510    1.3700 C.ar   62  TRP62       0.0946
     85  CD2      -12.9580   38.1620    0.1890 C.ar   62  TRP62       0.0152
     86  NE1      -11.0910   38.9830    1.0660 N.ar   62  TRP62      -0.2442
     87  CE2      -12.2080   39.3250    0.3650 C.ar   62  TRP62       0.0810
     88  CE3      -14.1580   38.2430   -0.5300 C.ar   62  TRP62       0.0012
     89  CZ2      -12.5920   40.5500   -0.1990 C.ar   62  TRP62       0.0191
     90  CZ3      -14.5350   39.4530   -1.0470 C.ar   62  TRP62       0.0001
     91  CH2      -13.7720   40.5770   -0.8860 C.ar   62  TRP62       0.0015
     92  N         -2.9720   41.6920    6.1110 N.3    87  ASP87      -0.1225
     93  CA        -3.5550   42.5340    5.0990 C.3    87  ASP87       0.1805
     94  C         -3.4420   43.9560    5.5430 C.2    87  ASP87       0.2597
     95  O         -3.3990   44.2110    6.7170 O.2    87  ASP87      -0.2718
     96  CB        -5.0160   42.1780    4.8580 C.3    87  ASP87       0.1424
     97  CG        -5.5520   42.7500    3.5320 C.2    87  ASP87       0.3668
     98  OD1       -4.7910   43.3630    2.7650 O.co2  87  ASP87      -0.2456
     99  OD2       -6.7380   42.5560    3.2320 O.co2  87  ASP87      -0.2456
    100  N         -3.3230   44.8810    4.5890 N.am   88  PHE88      -0.1976
    101  CA        -3.1750   46.2990    4.8550 C.3    88  PHE88       0.1639
    102  C         -2.0350   46.6110    5.8470 C.2    88  PHE88       0.2290
    103  O         -2.1740   47.5310    6.6550 O.2    88  PHE88      -0.2864
    104  CB        -4.4650   46.8670    5.4850 C.3    88  PHE88       0.0560
    105  CG        -5.6490   46.9270    4.5730 C.ar   88  PHE88      -0.0200
    106  CD1       -5.7340   47.9090    3.5920 C.ar   88  PHE88      -0.0042
    107  CD2       -6.7440   46.0940    4.7840 C.ar   88  PHE88      -0.0042
    108  CE1       -6.8670   48.0080    2.7930 C.ar   88  PHE88      -0.0003
    109  CE2       -7.8760   46.1820    3.9760 C.ar   88  PHE88      -0.0003
    110  CZ        -7.9370   47.1460    2.9910 C.ar   88  PHE88      -0.0000
    111  N         -5.2090   38.1900   -1.2190 N.3   120  SER120     -0.1202
    112  CA        -6.6690   38.2470   -1.3450 C.3   120  SER120      0.2020
    113  C         -7.0410   38.8550   -2.7210 C.2   120  SER120      0.2618
    114  O         -7.6770   38.1870   -3.5480 O.2   120  SER120     -0.2717
    115  CB        -7.3450   38.9890   -0.1880 C.3   120  SER120      0.2103
    116  OG        -7.1810   38.3050    1.0570 O.3   120  SER120     -0.2182
    117  N         -6.5850   40.0820   -2.9820 N.am  121  ALA121     -0.1979
    118  CA        -6.8040   40.7650   -4.2650 C.3   121  ALA121      0.1597
    119  C         -5.6460   40.7150   -5.2310 C.2   121  ALA121      0.2287
    120  O         -5.7650   41.1280   -6.4150 O.2   121  ALA121     -0.2864
    121  CB        -7.1300   42.2110   -3.9790 C.3   121  ALA121      0.0319
    122  N         -3.1660   42.8110   -5.0140 N.3   123  LEU123     -0.1231
    123  CA        -2.9350   44.2200   -5.2040 C.3   123  LEU123      0.1693
    124  C         -1.9170   44.7480   -4.2240 C.2   123  LEU123      0.2593
    125  O         -1.4160   45.8290   -4.3810 O.2   123  LEU123     -0.2718
    126  CB        -4.2230   45.0030   -5.0350 C.3   123  LEU123      0.0284
    127  CG        -5.3290   44.7670   -6.0240 C.3   123  LEU123      0.0019
    128  CD1       -6.5510   45.5320   -5.6030 C.3   123  LEU123      0.0001
    129  CD2       -4.8720   45.1980   -7.3890 C.3   123  LEU123      0.0001
    130  N         -1.6130   43.9640   -3.2150 N.am  124  GLY124     -0.1942
    131  CA        -0.7280   44.3840   -2.1720 C.3   124  GLY124      0.2014
    132  C          0.3830   43.4230   -1.8590 C.2   124  GLY124      0.2638
    133  O          1.5050   43.6630   -2.2060 O.2   124  GLY124     -0.2714
    134  N          0.0580   42.3360   -1.1950 N.am  125  ARG125     -0.1977
    135  CA         1.0510   41.3760   -0.7960 C.3   125  ARG125      0.1597
    136  C          1.6870   40.6090   -1.9530 C.2   125  ARG125      0.2287
    137  O          2.8740   40.5700   -2.0620 O.2   125  ARG125     -0.2864
    138  CB         0.5210   40.4340    0.2780 C.3   125  ARG125      0.0334
    139  CG         0.2310   41.0970    1.6070 C.3   125  ARG125      0.0492
    140  CD        -0.7530   40.3260    2.4440 C.3   125  ARG125      0.2205
    141  NE        -2.1180   40.4810    2.0040 N.pl3 125  ARG125     -0.0865
    142  CZ        -3.1530   39.8770    2.5380 C.cat 125  ARG125      0.5346
    143  NH1       -3.0060   39.0830    3.5480 N.pl3 125  ARG125      0.1354
    144  NH2       -4.3390   40.0830    2.0650 N.pl3 125  ARG125      0.1354
    145  N         -1.3210   48.6480   -9.5580 N.3   155  CYS155     -0.1221
    146  CA        -1.5950   48.5950   -8.1140 C.3   155  CYS155      0.1808
    147  C         -0.5650   49.4510   -7.3570 C.2   155  CYS155      0.2601
    148  O          0.3500   49.9940   -7.9770 O.2   155  CYS155     -0.2717
    149  CB        -1.5600   47.1520   -7.6110 C.3   155  CYS155      0.0970
    150  SG        -0.0100   46.2820   -7.9420 S.3   155  CYS155     -0.0800
    151  N         -0.6960   49.5800   -6.0330 N.am  156  GLY156     -0.1957
    152  CA         0.2650   50.3940   -5.2770 C.3   156  GLY156      0.1869
    153  C          0.8770   49.5900   -4.1620 C.2   156  GLY156      0.2309
    154  O          0.6510   49.8930   -2.9880 O.2   156  GLY156     -0.2863
    155  N          3.6320   48.4770   -1.5690 N.3   158  ASN158     -0.1240
    156  CA         4.3700   49.3930   -0.7560 C.3   158  ASN158      0.1653
    157  C          5.8710   49.1910   -0.9830 C.2   158  ASN158      0.2266
    158  O          6.4500   48.1740   -0.5840 O.2   158  ASN158     -0.2867
    159  CB         3.9930   49.1740    0.7270 C.3   158  ASN158      0.1155
    160  CG         4.6490   50.1840    1.6350 C.2   158  ASN158      0.2627
    161  OD1        5.8730   50.2070    1.8000 O.2   158  ASN158     -0.2716
    162  ND2        3.8530   51.0420    2.2070 N.am  158  ASN158     -0.0877
@<TRIPOS>BOND
     1    36    35    1
     2    33    35   ar
     3    33    31   ar
     4   145   146    1
     5    35    34   ar
     6    31    30   ar
     7    21    20    2
     8   146   149    1
     9   146   147    1
    10   148   147    2
    11   150   149    1
    12    34    32   ar
    13    30    32   ar
    14    30    29    1
    15    40    39    2
    16   129   127    1
    17   147   151   am
    18    20    19    1
    19    20    25   am
    20    26    29    1
    21    26    25    1
    22    26    27    1
    23    37    27   am
    24    37    38    1
    25    19    22    1
    26    19    18    1
    27    41    38    1
    28    41    42    1
    29   120   119    2
    30    39    38    1
    31    39    46   am
    32    22    23    1
    33    15    14    2
    34    27    28    2
    35   151   152    1
    36   127   128    1
    37   127   126    1
    38    42    43    1
    39    48    47    1
    40    48    49    2
    41    54    52   ar
    42    54    56   ar
    43    52    51   ar
    44    47    46    1
    45    47    50    1
    46    45    43   ar
    47    43    44   ar
    48    18    14   am
    49    18    24    1
    50   152   153    1
    51   119   118    1
    52    23    24    1
    53   123   126    1
    54   123   122    1
    55   123   124    1
    56    14    13    1
    57     1     2    1
    58    56    57    1
    59    56    55   ar
    60    51    50    1
    61    51    53   ar
    62   125   124    2
    63   118   121    1
    64   118   117    1
    65   124   130   am
    66   153   154    2
    67    12    13    1
    68    12     3   am
    69    13    16    1
    70   114   113    2
    71     2     3    1
    72     2     5    1
    73    17    16    1
    74    55    53   ar
    75     3     4    2
    76   130   131    1
    77   117   113   am
    78     5     6    1
    79     6     7    1
    80   113   112    1
    81     8     7    1
    82     8     9    2
    83   133   132    2
    84   131   132    1
    85   137   136    2
    86    11     9    1
    87   136   135    1
    88   132   134   am
    89     9    10    1
    90   155   156    1
    91   112   111    1
    92   112   115    1
    93   134   135    1
    94    90    91   ar
    95    90    88   ar
    96   157   156    1
    97   157   158    2
    98    91    89   ar
    99   135   138    1
   100   156   159    1
   101    88    85   ar
   102    89    87   ar
   103   115   116    1
   104    85    87   ar
   105    85    83   ar
   106   138   139    1
   107    87    86   ar
   108    81    80    2
   109   159   160    1
   110    83    82    1
   111    83    84   ar
   112    82    79    1
   113    86    84   ar
   114    80    79    1
   115   139   140    1
   116   160   161    2
   117   160   162   am
   118    79    78    1
   119   141   140    1
   120   141   142    2
   121   144   142    1
   122   142   143    1
   123    98    97   ar
   124   108   110   ar
   125   108   106   ar
   126   110   109   ar
   127    99    97   ar
   128    78    68   am
   129    74    72   ar
   130    74    76   ar
   131    97    96    1
   132   106   105   ar
   133    77    76    1
   134    72    71   ar
   135    69    68    2
   136    61    60    2
   137   109   107   ar
   138    68    67    1
   139    76    75   ar
   140    62    63    1
   141    62    59    1
   142   105   107   ar
   143   105   104    1
   144   100   101    1
   145   100    94   am
   146    60    59    1
   147    65    63   ar
   148   101   104    1
   149   101   102    1
   150    96    93    1
   151    63    64   ar
   152    93    94    1
   153    93    92    1
   154    71    70    1
   155    71    73   ar
   156    59    58    1
   157    75    73   ar
   158    94    95    2
   159    67    70    1
   160    67    66    1
   161   102   103    2
