@<TRIPOS>MOLECULE
tmp/4kyrA02.pdb
 104 100 0 0 0
SMALL
GASTEIGER

@<TRIPOS>ATOM
      1  N         17.4070   46.4870  -10.3590 N.3   141  ASN141     -0.1240
      2  CA        17.2020   47.3120   -9.2090 C.3   141  ASN141      0.1653
      3  C         15.7220   47.4490   -8.8200 C.2   141  ASN141      0.2266
      4  O         14.8010   46.9420   -9.4990 O.2   141  ASN141     -0.2867
      5  CB        17.8460   48.6920   -9.4250 C.3   141  ASN141      0.1155
      6  CG        17.1650   49.5210  -10.5090 C.2   141  ASN141      0.2627
      7  OD1       16.0430   49.2790  -10.9040 O.2   141  ASN141     -0.2716
      8  ND2       17.8670   50.5180  -10.9850 N.am  141  ASN141     -0.0877
      9  N         22.2020   45.0370    5.4060 N.3   171  LYS171     -0.1245
     10  CA        22.9100   46.0240    6.1830 C.3   171  LYS171      0.1561
     11  C         23.6640   45.4030    7.3600 C.2   171  LYS171      0.2260
     12  O         23.1230   44.6050    8.0950 O.2   171  LYS171     -0.2867
     13  CB        21.8780   47.0560    6.7330 C.3   171  LYS171      0.0271
     14  CG        22.4420   48.2770    7.4110 C.3   171  LYS171      0.0035
     15  CD        23.2160   49.1510    6.4470 C.3   171  LYS171      0.0206
     16  CE        24.3290   49.9270    7.1220 C.3   171  LYS171      0.1093
     17  NZ        25.2990   50.4140    6.0870 N.3   171  LYS171     -0.1314
     18  N         22.8260   51.9850   12.2160 N.3   177  GLU177     -0.1245
     19  CA        22.3500   52.8120   11.1070 C.3   177  GLU177      0.1567
     20  C         20.9130   52.4600   10.8030 C.2   177  GLU177      0.2260
     21  O         20.6210   51.7690    9.8330 O.2   177  GLU177     -0.2867
     22  CB        23.1870   52.6010    9.8540 C.3   177  GLU177      0.0388
     23  CG        24.5850   53.2020    9.8420 C.3   177  GLU177      0.1160
     24  CD        25.1590   53.2140    8.4100 C.2   177  GLU177      0.3649
     25  OE1       24.8350   54.1450    7.6350 O.co2 177  GLU177     -0.2457
     26  OE2       25.9070   52.2790    8.0520 O.co2 177  GLU177     -0.2457
     27  N         18.4230   56.8230    7.3330 N.3   182  LEU182     -0.1231
     28  CA        19.1530   56.7220    6.0840 C.3   182  LEU182      0.1678
     29  C         18.4300   57.4320    4.9600 C.2   182  LEU182      0.2434
     30  O         17.2130   57.4770    4.9160 O.2   182  LEU182     -0.2733
     31  CB        19.2930   55.2500    5.6140 C.3   182  LEU182      0.0284
     32  CG        20.2550   54.3320    6.3670 C.3   182  LEU182      0.0019
     33  CD1       20.1930   52.9580    5.7610 C.3   182  LEU182      0.0001
     34  CD2       21.6830   54.8700    6.3290 C.3   182  LEU182      0.0001
     35  N         19.1880   57.9060    3.9680 N.am  183  PRO183     -0.2729
     36  CA        18.5370   58.5030    2.7950 C.3   183  PRO183      0.1401
     37  C         17.4190   57.6300    2.2520 C.2   183  PRO183      0.2269
     38  O         17.5380   56.3810    2.2760 O.2   183  PRO183     -0.2865
     39  CB        19.6510   58.5430    1.7760 C.3   183  PRO183      0.0296
     40  CG        20.9120   58.5530    2.5710 C.3   183  PRO183      0.0237
     41  CD        20.6340   57.6980    3.7710 C.3   183  PRO183      0.0939
     42  N         16.6110   56.9040   -0.7360 N.3   185  ASN185     -0.1225
     43  CA        16.9610   55.9970   -1.8420 C.3   185  ASN185      0.1785
     44  C         17.8440   54.8180   -1.4010 C.2   185  ASN185      0.2597
     45  O         18.2080   53.9700   -2.2160 O.2   185  ASN185     -0.2718
     46  CB        17.6850   56.7570   -2.9590 C.3   185  ASN185      0.1169
     47  CG        18.8940   57.5480   -2.4720 C.2   185  ASN185      0.2627
     48  OD1       19.3910   57.4000   -1.3440 O.2   185  ASN185     -0.2716
     49  ND2       19.3640   58.4210   -3.3350 N.am  185  ASN185     -0.0877
     50  N         18.2370   54.7830   -0.1350 N.am  186  ALA186     -0.1966
     51  CA        19.0470   53.6860    0.3400 C.3   186  ALA186      0.1728
     52  C         18.4120   52.3020    0.0710 C.2   186  ALA186      0.2616
     53  O         17.2720   52.0380    0.4710 O.2   186  ALA186     -0.2715
     54  CB        19.2620   53.8230    1.8180 C.3   186  ALA186      0.0334
     55  N         19.2030   51.4230   -0.5450 N.am  187  PHE187     -0.1960
     56  CA        18.8140   50.0450   -0.8640 C.3   187  PHE187      0.1771
     57  C         17.7170   49.9400   -1.9360 C.2   187  PHE187      0.2619
     58  O         17.0860   48.8800   -2.1070 O.2   187  PHE187     -0.2715
     59  CB        18.4790   49.2370    0.3880 C.3   187  PHE187      0.0574
     60  CG        19.6800   49.0010    1.2670 C.ar  187  PHE187     -0.0200
     61  CD1       20.5380   47.9500    1.0220 C.ar  187  PHE187     -0.0042
     62  CD2       19.9570   49.8480    2.2870 C.ar  187  PHE187     -0.0042
     63  CE1       21.6480   47.7210    1.8070 C.ar  187  PHE187     -0.0003
     64  CE2       21.0970   49.6770    3.0400 C.ar  187  PHE187     -0.0003
     65  CZ        21.9410   48.6020    2.8080 C.ar  187  PHE187     -0.0000
     66  N         17.5500   51.0240   -2.6810 N.am  188  GLU188     -0.1963
     67  CA        16.9130   50.9140   -4.0230 C.3   188  GLU188      0.1733
     68  C         17.7480   50.1540   -5.0460 C.2   188  GLU188      0.2616
     69  O         17.2580   49.8550   -6.1360 O.2   188  GLU188     -0.2715
     70  CB        16.6690   52.2950   -4.6010 C.3   188  GLU188      0.0429
     71  CG        15.3660   52.9210   -4.1570 C.3   188  GLU188      0.1163
     72  CD        15.2670   54.3280   -4.7330 C.2   188  GLU188      0.3649
     73  OE1       16.3070   54.8130   -5.3140 O.co2 188  GLU188     -0.2457
     74  OE2       14.1770   54.9210   -4.5740 O.co2 188  GLU188     -0.2457
     75  N         19.0290   49.9410   -4.7210 N.am  189  ASP189     -0.1957
     76  CA        19.9030   49.0750   -5.4990 C.3   189  ASP189      0.1840
     77  C         20.9540   48.5250   -4.5490 C.2   189  ASP189      0.2622
     78  O         21.0610   48.9920   -3.3990 O.2   189  ASP189     -0.2715
     79  CB        20.5370   49.8530   -6.6660 C.3   189  ASP189      0.1450
     80  CG        21.0930   48.9550   -7.7640 C.2   189  ASP189      0.3671
     81  OD1       20.8010   47.7410   -7.8570 O.co2 189  ASP189     -0.2456
     82  OD2       21.8560   49.4700   -8.5790 O.co2 189  ASP189     -0.2456
     83  N         21.7030   47.5260   -5.0160 N.am  190  ILE190     -0.1963
     84  CA        22.6070   46.7760   -4.1520 C.3   190  ILE190      0.1727
     85  C         23.8990   46.4150   -4.8720 C.2   190  ILE190      0.2616
     86  O         23.9060   46.1210   -6.0620 O.2   190  ILE190     -0.2715
     87  CB        21.9140   45.4760   -3.6450 C.3   190  ILE190      0.0290
     88  CG1       21.1960   44.7690   -4.7990 C.3   190  ILE190      0.0022
     89  CG2       20.9390   45.7990   -2.5020 C.3   190  ILE190      0.0023
     90  CD1       20.4610   43.4860   -4.4390 C.3   190  ILE190      0.0001
     91  N         24.9780   46.3830   -4.1320 N.am  191  ALA191     -0.1977
     92  CA        26.2680   45.9980   -4.6390 C.3   191  ALA191      0.1597
     93  C         26.2860   44.4810   -4.8230 C.2   191  ALA191      0.2287
     94  O         25.4100   43.7750   -4.2810 O.2   191  ALA191     -0.2864
     95  CB        27.3460   46.4260   -3.6460 C.3   191  ALA191      0.0319
     96  N         26.2430   42.3880   -1.4820 N.3   194  GLU194     -0.1245
     97  CA        24.9080   42.5080   -0.9320 C.3   194  GLU194      0.1567
     98  C         23.8740   41.5930   -1.6070 C.2   194  GLU194      0.2260
     99  O         23.0850   40.9070   -0.9340 O.2   194  GLU194     -0.2867
    100  CB        24.4730   43.9580   -1.0370 C.3   194  GLU194      0.0388
    101  CG        25.1130   44.8440    0.0040 C.3   194  GLU194      0.1160
    102  CD        24.8560   46.3060   -0.2230 C.2   194  GLU194      0.3649
    103  OE1       24.5630   46.6840   -1.3550 O.co2 194  GLU194     -0.2457
    104  OE2       25.0350   47.0830    0.7280 O.co2 194  GLU194     -0.2457
@<TRIPOS>BOND
     1     8     6   am
     2     7     6    2
     3     6     5    1
     4     1     2    1
     5     4     3    2
     6     5     2    1
     7     2     3    1
     8    82    80   ar
     9    81    80   ar
    10    80    79    1
    11    79    76    1
    12    69    68    2
    13    86    85    2
    14    76    75    1
    15    76    77    1
    16    73    72   ar
    17    68    75   am
    18    68    67    1
    19    83    77   am
    20    83    84    1
    21    85    84    1
    22    85    91   am
    23    93    92    1
    24    93    94    2
    25    88    90    1
    26    88    87    1
    27    72    74   ar
    28    72    71    1
    29    92    91    1
    30    92    95    1
    31    70    71    1
    32    70    67    1
    33    77    78    2
    34    84    87    1
    35    67    66    1
    36    87    89    1
    37    49    47   am
    38    46    47    1
    39    46    43    1
    40    66    57   am
    41    47    48    2
    42    45    44    2
    43    58    57    2
    44    57    56    1
    45    43    44    1
    46    43    42    1
    47    98    99    2
    48    98    97    1
    49    96    97    1
    50    44    50   am
    51   103   102   ar
    52   100    97    1
    53   100   101    1
    54    56    55    1
    55    56    59    1
    56    55    52   am
    57   102   101    1
    58   102   104   ar
    59    50    51    1
    60    52    51    1
    61    52    53    2
    62    51    54    1
    63    59    60    1
    64    61    60   ar
    65    61    63   ar
    66    60    62   ar
    67    39    40    1
    68    39    36    1
    69    63    65   ar
    70    37    38    2
    71    37    36    1
    72    62    64   ar
    73    40    41    1
    74    36    35    1
    75    65    64   ar
    76    41    35    1
    77    35    29   am
    78    30    29    2
    79    29    28    1
    80     9    10    1
    81    31    28    1
    82    31    32    1
    83    33    32    1
    84    28    27    1
    85    17    16    1
    86    10    13    1
    87    10    11    1
    88    34    32    1
    89    15    16    1
    90    15    14    1
    91    13    14    1
    92    11    12    2
    93    25    24   ar
    94    26    24   ar
    95    24    23    1
    96    21    20    2
    97    23    22    1
    98    22    19    1
    99    20    19    1
   100    19    18    1
