@<TRIPOS>MOLECULE
tmp/4kysA00.pdb
 140 131 0 0 0
SMALL
GASTEIGER

@<TRIPOS>ATOM
      1  N          6.6310   -6.5310   62.3360 N.3     8  TYR8       -0.1241
      2  CA         8.0740   -6.5510   62.1140 C.3     8  TYR8        0.1605
      3  C          8.7760   -6.7190   63.4480 C.2     8  TYR8        0.2264
      4  O          8.7160   -5.8360   64.3020 O.2     8  TYR8       -0.2867
      5  CB         8.5470   -5.2670   61.4310 C.3     8  TYR8        0.0534
      6  CG        10.0120   -5.3060   61.0460 C.ar    8  TYR8       -0.0201
      7  CD1       10.4260   -5.9300   59.8660 C.ar    8  TYR8       -0.0009
      8  CD2       10.9820   -4.7390   61.8680 C.ar    8  TYR8       -0.0009
      9  CE1       11.7580   -5.9650   59.5140 C.ar    8  TYR8        0.0417
     10  CE2       12.3210   -4.7650   61.5170 C.ar    8  TYR8        0.0417
     11  CZ        12.7040   -5.3830   60.3430 C.ar    8  TYR8        0.1957
     12  OH        14.0400   -5.4290   60.0020 O.3     8  TYR8       -0.2866
     13  N         12.0550   -7.2650   64.3150 N.3    10  TYR10      -0.1227
     14  CA        13.4270   -6.8450   64.5980 C.3    10  TYR10       0.1736
     15  C         13.4330   -5.4100   65.1030 C.2    10  TYR10       0.2595
     16  O         13.9060   -4.4770   64.4240 O.2    10  TYR10      -0.2718
     17  CB        14.3100   -6.9890   63.3640 C.3    10  TYR10       0.0548
     18  CG        14.4990   -8.4150   62.9120 C.ar   10  TYR10      -0.0200
     19  CD1       15.2740   -9.3050   63.6490 C.ar   10  TYR10      -0.0009
     20  CD2       13.9010   -8.8780   61.7440 C.ar   10  TYR10      -0.0009
     21  CE1       15.4520  -10.6250   63.2280 C.ar   10  TYR10       0.0417
     22  CE2       14.0760  -10.1920   61.3110 C.ar   10  TYR10       0.0417
     23  CZ        14.8500  -11.0570   62.0570 C.ar   10  TYR10       0.1957
     24  OH        15.0160  -12.3520   61.6310 O.3    10  TYR10      -0.2866
     25  N         12.8770   -5.2390   66.2970 N.am   11  VAL11      -0.1980
     26  CA        12.8050   -3.9450   66.9540 C.3    11  VAL11       0.1595
     27  C         13.1450   -4.2400   68.4010 C.2    11  VAL11       0.2287
     28  O         13.0510   -5.3990   68.8040 O.2    11  VAL11      -0.2864
     29  CB        11.3950   -3.2910   66.8310 C.3    11  VAL11       0.0276
     30  CG1       11.0410   -3.0620   65.3700 C.3    11  VAL11       0.0022
     31  CG2       10.3250   -4.1610   67.5290 C.3    11  VAL11       0.0022
     32  N         12.8780  -11.8880   55.6840 N.3    42  TYR42      -0.1241
     33  CA        14.2500  -12.1040   55.2240 C.3    42  TYR42       0.1605
     34  C         14.4680  -13.5680   54.8560 C.2    42  TYR42       0.2264
     35  O         15.3610  -13.8940   54.0790 O.2    42  TYR42      -0.2867
     36  CB        15.2630  -11.6450   56.2740 C.3    42  TYR42       0.0534
     37  CG        15.1040  -10.1680   56.6080 C.ar   42  TYR42      -0.0201
     38  CD1       15.5180   -9.1770   55.7130 C.ar   42  TYR42      -0.0009
     39  CD2       14.4990   -9.7650   57.7920 C.ar   42  TYR42      -0.0009
     40  CE1       15.3480   -7.8360   56.0070 C.ar   42  TYR42       0.0417
     41  CE2       14.3320   -8.4270   58.1010 C.ar   42  TYR42       0.0417
     42  CZ        14.7600   -7.4650   57.2060 C.ar   42  TYR42       0.1957
     43  OH        14.5890   -6.1350   57.5180 O.3    42  TYR42      -0.2866
     44  N         10.2330   -5.6320   55.2040 N.3    56  ASP56      -0.1239
     45  CA        11.2700   -4.7100   54.7540 C.3    56  ASP56       0.1674
     46  C         11.0500   -4.3980   53.2670 C.2    56  ASP56       0.2266
     47  O         10.9040   -5.3060   52.4390 O.2    56  ASP56      -0.2867
     48  CB        12.6570   -5.3150   55.0080 C.3    56  ASP56       0.1410
     49  CG        13.7900   -4.3130   54.8570 C.2    56  ASP56       0.3668
     50  OD1       13.7600   -3.4460   53.9370 O.co2  56  ASP56      -0.2456
     51  OD2       14.7230   -4.4040   55.6860 O.co2  56  ASP56      -0.2456
     52  N         12.8650   -3.6440   51.0350 N.3    58  VAL58      -0.1245
     53  CA        13.8050   -4.2000   50.0720 C.3    58  VAL58       0.1561
     54  C         13.1070   -5.3080   49.2410 C.2    58  VAL58       0.2260
     55  O         13.4580   -5.5220   48.0810 O.2    58  VAL58      -0.2867
     56  CB        15.0940   -4.7490   50.7520 C.3    58  VAL58       0.0252
     57  CG1       15.8720   -3.6290   51.4460 C.3    58  VAL58       0.0019
     58  CG2       14.7730   -5.8090   51.7330 C.3    58  VAL58       0.0019
     59  N          7.6290    1.9550   59.8150 N.3   103  ILE103     -0.1245
     60  CA         8.9030    2.3370   60.4290 C.3   103  ILE103      0.1561
     61  C          9.9240    2.6640   59.3250 C.2   103  ILE103      0.2260
     62  O          9.9350    2.0160   58.2710 O.2   103  ILE103     -0.2867
     63  CB         9.4760    1.1930   61.3260 C.3   103  ILE103      0.0252
     64  CG1        8.3980    0.6220   62.2460 C.3   103  ILE103      0.0019
     65  CG2       10.6980    1.6590   62.1090 C.3   103  ILE103      0.0019
     66  CD1        8.7730   -0.7040   62.8850 C.3   103  ILE103      0.0001
     67  N         14.3220    3.4560   59.0470 N.3   105  SER105     -0.1217
     68  CA        15.5250    3.1800   59.8000 C.3   105  SER105      0.1889
     69  C         16.8080    3.4250   58.9930 C.2   105  SER105      0.2288
     70  O         16.9070    3.1070   57.7910 O.2   105  SER105     -0.2866
     71  CB        15.4890    1.7390   60.3130 C.3   105  SER105      0.2089
     72  OG        16.4180    1.5710   61.3680 O.3   105  SER105     -0.2183
     73  N         23.4720  -10.6530   55.1560 N.3   155  THR155     -0.1203
     74  CA        22.4870   -9.8040   54.5100 C.3   155  THR155      0.1994
     75  C         22.7460   -8.3230   54.7620 C.2   155  THR155      0.2618
     76  O         22.6210   -7.4980   53.8610 O.2   155  THR155     -0.2717
     77  CB        21.0710  -10.1540   54.9960 C.3   155  THR155      0.1784
     78  OG1       20.8030  -11.5320   54.7100 O.3   155  THR155     -0.2211
     79  CG2       20.0270   -9.2750   54.3120 C.3   155  THR155      0.0376
     80  N         23.0880   -7.9870   56.0020 N.am  156  SER156     -0.1951
     81  CA        23.3260   -6.5980   56.3590 C.3   156  SER156      0.1924
     82  C         24.4870   -6.0370   55.5560 C.2   156  SER156      0.2314
     83  O         24.4580   -4.8740   55.1180 O.2   156  SER156     -0.2863
     84  CB        23.6020   -6.4590   57.8600 C.3   156  SER156      0.2116
     85  OG        22.4190   -6.6840   58.6060 O.3   156  SER156     -0.2180
     86  N         23.5420   -5.4190   51.9550 N.3   159  CYS159     -0.1235
     87  CA        22.7530   -4.1930   51.8980 C.3   159  CYS159      0.1677
     88  C         23.6440   -2.9620   52.0160 C.2   159  CYS159      0.2270
     89  O         23.4170   -1.9480   51.3400 O.2   159  CYS159     -0.2867
     90  CB        21.6810   -4.2000   52.9800 C.3   159  CYS159      0.0956
     91  SG        20.3680   -5.4170   52.6030 S.3   159  CYS159     -0.0801
     92  N         21.8620    1.7040   64.3220 N.3   231  TYR231     -0.1241
     93  CA        20.5320    2.2410   64.0220 C.3   231  TYR231      0.1605
     94  C         20.0490    3.1670   65.1310 C.2   231  TYR231      0.2264
     95  O         20.4810    3.0300   66.2760 O.2   231  TYR231     -0.2867
     96  CB        19.5190    1.0940   63.8330 C.3   231  TYR231      0.0534
     97  CG        19.8620    0.1590   62.6780 C.ar  231  TYR231     -0.0201
     98  CD1       19.9380    0.6420   61.3760 C.ar  231  TYR231     -0.0009
     99  CD2       20.0650   -1.2030   62.8840 C.ar  231  TYR231     -0.0009
    100  CE1       20.2510   -0.1910   60.3060 C.ar  231  TYR231      0.0417
    101  CE2       20.3670   -2.0550   61.8140 C.ar  231  TYR231      0.0417
    102  CZ        20.4590   -1.5330   60.5270 C.ar  231  TYR231      0.1957
    103  OH        20.7500   -2.3470   59.4520 O.3   231  TYR231     -0.2866
    104  N         17.4420    3.0570   66.7910 N.3   233  GLU233     -0.1245
    105  CA        16.8210    2.3640   67.9060 C.3   233  GLU233      0.1567
    106  C         17.8480    1.8030   68.8990 C.2   233  GLU233      0.2260
    107  O         17.4640    1.3150   69.9520 O.2   233  GLU233     -0.2867
    108  CB        15.8800    1.2480   67.4160 C.3   233  GLU233      0.0388
    109  CG        16.5110    0.1400   66.5700 C.3   233  GLU233      0.1160
    110  CD        16.4040    0.4240   65.0840 C.2   233  GLU233      0.3649
    111  OE1       16.1880    1.6130   64.7200 O.co2 233  GLU233     -0.2457
    112  OE2       16.5500   -0.5310   64.2830 O.co2 233  GLU233     -0.2457
    113  N         15.9440    2.1640   55.3750 N.3   262  TYR262     -0.1241
    114  CA        15.0840    0.9880   55.3530 C.3   262  TYR262      0.1605
    115  C         13.6660    1.4000   55.6860 C.2   262  TYR262      0.2264
    116  O         13.4480    2.2860   56.5240 O.2   262  TYR262     -0.2867
    117  CB        15.5430   -0.0760   56.3440 C.3   262  TYR262      0.0534
    118  CG        16.8850   -0.6860   56.0540 C.ar  262  TYR262     -0.0201
    119  CD1       17.0160   -1.7000   55.1230 C.ar  262  TYR262     -0.0009
    120  CD2       18.0230   -0.2650   56.7320 C.ar  262  TYR262     -0.0009
    121  CE1       18.2470   -2.2720   54.8630 C.ar  262  TYR262      0.0417
    122  CE2       19.2540   -0.8300   56.4840 C.ar  262  TYR262      0.0417
    123  CZ        19.3560   -1.8390   55.5550 C.ar  262  TYR262      0.1957
    124  OH        20.5680   -2.4110   55.3010 O.3   262  TYR262     -0.2866
    125  N         10.0270   -0.3810   56.9120 N.3   264  ASP264     -0.1239
    126  CA         9.2230   -1.5300   57.3190 C.3   264  ASP264      0.1674
    127  C          7.7900   -1.1490   57.0460 C.2   264  ASP264      0.2266
    128  O          7.2860   -0.1790   57.6130 O.2   264  ASP264     -0.2867
    129  CB         9.4650   -1.8760   58.7780 C.3   264  ASP264      0.1410
    130  CG        10.9280   -2.1510   59.0510 C.2   264  ASP264      0.3668
    131  OD1       11.5670   -2.7810   58.1870 O.co2 264  ASP264     -0.2456
    132  OD2       11.4450   -1.7240   60.1010 O.co2 264  ASP264     -0.2456
    133  N         12.7290    4.1180   67.6090 N.3   310  LEU310     -0.1245
    134  CA        12.4820    3.7940   66.2150 C.3   310  LEU310      0.1561
    135  C         11.9330    5.0440   65.5220 C.2   310  LEU310      0.2260
    136  O         11.2510    5.8590   66.1550 O.2   310  LEU310     -0.2867
    137  CB        11.4740    2.6490   66.1060 C.3   310  LEU310      0.0270
    138  CG        11.8810    1.3310   66.7530 C.3   310  LEU310      0.0019
    139  CD1       10.6140    0.5490   67.1280 C.3   310  LEU310      0.0001
    140  CD2       12.7320    0.5320   65.7690 C.3   310  LEU310      0.0001
@<TRIPOS>BOND
     1    55    54    2
     2    54    53    1
     3    53    56    1
     4    53    52    1
     5    56    57    1
     6    56    58    1
     7    89    88    2
     8    87    86    1
     9    87    88    1
    10    87    90    1
    11    47    46    2
    12    91    90    1
    13    46    45    1
    14    76    75    2
    15    50    49   ar
    16    35    34    2
    17    79    77    1
    18    74    75    1
    19    74    77    1
    20    74    73    1
    21    78    77    1
    22    45    48    1
    23    45    44    1
    24    75    80   am
    25    34    33    1
    26    49    48    1
    27    49    51   ar
    28   121   119   ar
    29   121   123   ar
    30    83    82    2
    31   119   118   ar
    32    33    32    1
    33    33    36    1
    34   124   123    1
    35   114   113    1
    36   114   115    1
    37   114   117    1
    38   123   122   ar
    39    82    81    1
    40   115   116    2
    41    38    40   ar
    42    38    37   ar
    43    80    81    1
    44    40    42   ar
    45   118   117    1
    46   118   120   ar
    47    36    37    1
    48    81    84    1
    49   122   120   ar
    50    37    39   ar
    51   125   126    1
    52   127   126    1
    53   127   128    2
    54    42    43    1
    55    42    41   ar
    56   126   129    1
    57    70    69    2
    58    39    41   ar
    59    84    85    1
    60   131   130   ar
    61    62    61    2
    62   129   130    1
    63    69    68    1
    64    67    68    1
    65   130   132   ar
    66    61    60    1
    67   103   102    1
    68     9     7   ar
    69     9    11   ar
    70    68    71    1
    71    59    60    1
    72     7     6   ar
    73    12    11    1
    74   100   102   ar
    75   100    98   ar
    76    71    72    1
    77    11    10   ar
    78    60    63    1
    79   102   101   ar
    80     6     5    1
    81     6     8   ar
    82    22    20   ar
    83    22    23   ar
    84    63    65    1
    85    63    64    1
    86    98    97   ar
    87     5     2    1
    88    10     8   ar
    89    24    23    1
    90    20    18   ar
    91   101    99   ar
    92    23    21   ar
    93     2     1    1
    94     2     3    1
    95    64    66    1
    96    97    99   ar
    97    97    96    1
    98    18    17    1
    99    18    19   ar
   100    21    19   ar
   101    17    14    1
   102     3     4    2
   103    96    93    1
   104    93    92    1
   105    93    94    1
   106   112   110   ar
   107    13    14    1
   108    16    15    2
   109    14    15    1
   110   111   110   ar
   111   110   109    1
   112    15    25   am
   113    94    95    2
   114    30    29    1
   115   135   136    2
   116   135   134    1
   117   140   138    1
   118   137   134    1
   119   137   138    1
   120   134   133    1
   121    25    26    1
   122   109   108    1
   123   138   139    1
   124   104   105    1
   125    29    26    1
   126    29    31    1
   127    26    27    1
   128   108   105    1
   129   105   106    1
   130    27    28    2
   131   106   107    2
