@<TRIPOS>MOLECULE
tmp/4kyvA00.pdb
 178 177 0 0 0
SMALL
GASTEIGER

@<TRIPOS>ATOM
      1  N         15.7720   -4.1360    5.0700 N.3    43  ASN43      -0.1226
      2  CA        15.6480   -5.0520    6.1840 C.3    43  ASN43       0.1770
      3  C         16.9540   -5.1850    6.9790 C.2    43  ASN43       0.2439
      4  O         18.0310   -4.9680    6.4280 O.2    43  ASN43      -0.2733
      5  CB        15.1900   -6.3960    5.6590 C.3    43  ASN43       0.1168
      6  CG        14.5730   -7.2100    6.7160 C.2    43  ASN43       0.2627
      7  OD1       13.3770   -7.1380    6.9610 O.2    43  ASN43      -0.2716
      8  ND2       15.3950   -7.9590    7.4050 N.am   43  ASN43      -0.0877
      9  N         16.8700   -5.4650    8.2950 N.am   44  PRO44      -0.2729
     10  CA        15.7300   -5.4670    9.2130 C.3    44  PRO44       0.1401
     11  C         15.7450   -4.1740   10.0090 C.2    44  PRO44       0.2269
     12  O         15.6310   -4.1800   11.2360 O.2    44  PRO44      -0.2865
     13  CB        16.0660   -6.6270   10.1430 C.3    44  PRO44       0.0296
     14  CG        17.5650   -6.5380   10.2690 C.3    44  PRO44       0.0237
     15  CD        18.0860   -5.9530    8.9690 C.3    44  PRO44       0.0939
     16  N         19.2130   -1.9250    0.3030 N.3   107  ASP107     -0.1225
     17  CA        18.5070   -3.2210    0.4500 C.3   107  ASP107      0.1805
     18  C         17.0730   -3.1620   -0.1220 C.2   107  ASP107      0.2597
     19  O         16.8910   -2.7660   -1.2700 O.2   107  ASP107     -0.2718
     20  CB        18.5220   -3.6780    1.9200 C.3   107  ASP107      0.1424
     21  CG        18.0330   -5.1240    2.1130 C.2   107  ASP107      0.3668
     22  OD1       18.5880   -6.0620    1.5040 O.co2 107  ASP107     -0.2456
     23  OD2       17.0750   -5.3130    2.8790 O.co2 107  ASP107     -0.2456
     24  N         16.0590   -3.5430    0.6560 N.am  108  TRP108     -0.1976
     25  CA        14.6860   -3.4480    0.1470 C.3   108  TRP108      0.1640
     26  C         14.2450   -2.0050   -0.0970 C.2   108  TRP108      0.2290
     27  O         13.3550   -1.7540   -0.8870 O.2   108  TRP108     -0.2864
     28  CB        13.6950   -4.2170    1.0380 C.3   108  TRP108      0.0576
     29  CG        13.7850   -5.6810    0.7710 C.ar  108  TRP108      0.0006
     30  CD1       14.3390   -6.6420    1.5740 C.ar  108  TRP108      0.0946
     31  CD2       13.3590   -6.3430   -0.4180 C.ar  108  TRP108      0.0152
     32  NE1       14.2640   -7.8660    0.9520 N.ar  108  TRP108     -0.2442
     33  CE2       13.6690   -7.7080   -0.2730 C.ar  108  TRP108      0.0810
     34  CE3       12.7380   -5.9110   -1.5980 C.ar  108  TRP108      0.0012
     35  CZ2       13.3630   -8.6490   -1.2550 C.ar  108  TRP108      0.0191
     36  CZ3       12.4510   -6.8400   -2.5790 C.ar  108  TRP108      0.0001
     37  CH2       12.7630   -8.1910   -2.4070 C.ar  108  TRP108      0.0015
     38  N         25.9150  -16.6480   -3.9200 N.3   141  TRP141     -0.1228
     39  CA        25.6040  -16.1350   -2.6010 C.3   141  TRP141      0.1722
     40  C         26.7650  -16.5350   -1.6960 C.2   141  TRP141      0.2437
     41  O         27.2250  -17.6690   -1.7500 O.2   141  TRP141     -0.2733
     42  CB        24.2880  -16.7430   -2.1260 C.3   141  TRP141      0.0563
     43  CG        23.7780  -16.1820   -0.8460 C.ar  141  TRP141      0.0003
     44  CD1       24.0900  -16.5980    0.4110 C.ar  141  TRP141      0.0946
     45  CD2       22.8540  -15.0950   -0.6960 C.ar  141  TRP141      0.0152
     46  NE1       23.4190  -15.8370    1.3390 N.ar  141  TRP141     -0.2442
     47  CE2       22.6520  -14.9090    0.6850 C.ar  141  TRP141      0.0810
     48  CE3       22.1810  -14.2680   -1.5950 C.ar  141  TRP141      0.0012
     49  CZ2       21.7980  -13.9270    1.1910 C.ar  141  TRP141      0.0191
     50  CZ3       21.3320  -13.2860   -1.0900 C.ar  141  TRP141      0.0001
     51  CH2       21.1570  -13.1220    0.2920 C.ar  141  TRP141      0.0015
     52  N         27.2650  -15.5960   -0.8760 N.am  142  PRO142     -0.2729
     53  CA        28.4820  -15.8890   -0.1070 C.3   142  PRO142      0.1401
     54  C         28.2970  -17.0380    0.8880 C.2   142  PRO142      0.2269
     55  O         27.2800  -17.1210    1.5760 O.2   142  PRO142     -0.2865
     56  CB        28.7810  -14.5640    0.6110 C.3   142  PRO142      0.0296
     57  CG        27.4890  -13.8070    0.5840 C.3   142  PRO142      0.0237
     58  CD        26.7610  -14.2320   -0.6480 C.3   142  PRO142      0.0939
     59  N         29.3880  -17.8330    3.7890 N.3   144  PHE144     -0.1227
     60  CA        29.2440  -17.6420    5.2400 C.3   144  PHE144      0.1736
     61  C         27.7860  -17.5230    5.6720 C.2   144  PHE144      0.2595
     62  O         27.4590  -17.7810    6.8330 O.2   144  PHE144     -0.2718
     63  CB        30.0700  -16.4480    5.7640 C.3   144  PHE144      0.0547
     64  CG        29.4550  -15.1070    5.4710 C.ar  144  PHE144     -0.0202
     65  CD1       29.6770  -14.4810    4.2580 C.ar  144  PHE144     -0.0042
     66  CD2       28.6460  -14.4800    6.4050 C.ar  144  PHE144     -0.0042
     67  CE1       29.1090  -13.2530    3.9780 C.ar  144  PHE144     -0.0003
     68  CE2       28.0660  -13.2500    6.1310 C.ar  144  PHE144     -0.0003
     69  CZ        28.3050  -12.6350    4.9130 C.ar  144  PHE144     -0.0000
     70  N         26.9100  -17.1610    4.7350 N.am  145  ALA145     -0.1980
     71  CA        25.5040  -16.9690    5.0590 C.3   145  ALA145      0.1597
     72  C         24.5840  -17.7720    4.1590 C.2   145  ALA145      0.2287
     73  O         23.3890  -17.4890    4.0960 O.2   145  ALA145     -0.2864
     74  CB        25.1380  -15.5020    4.9620 C.3   145  ALA145      0.0319
     75  N         20.5700  -18.4400    4.9330 N.3   149  PHE149     -0.1241
     76  CA        19.5320  -17.8180    4.1140 C.3   149  PHE149      0.1605
     77  C         18.6980  -18.8290    3.3300 C.2   149  PHE149      0.2264
     78  O         17.5260  -18.5860    3.0650 O.2   149  PHE149     -0.2867
     79  CB        20.1080  -16.7180    3.2260 C.3   149  PHE149      0.0534
     80  CG        20.1640  -15.3870    3.9130 C.ar  149  PHE149     -0.0203
     81  CD1       21.1090  -15.1430    4.8930 C.ar  149  PHE149     -0.0042
     82  CD2       19.2360  -14.4060    3.6220 C.ar  149  PHE149     -0.0042
     83  CE1       21.1420  -13.9280    5.5540 C.ar  149  PHE149     -0.0003
     84  CE2       19.2720  -13.1850    4.2710 C.ar  149  PHE149     -0.0003
     85  CZ        20.2270  -12.9500    5.2360 C.ar  149  PHE149     -0.0000
     86  N         16.7460  -13.2530   12.6340 N.3   168  PHE168     -0.1241
     87  CA        17.1500  -12.1990   11.7020 C.3   168  PHE168      0.1605
     88  C         17.7100  -10.9860   12.4490 C.2   168  PHE168      0.2264
     89  O         18.6360  -10.3230   11.9750 O.2   168  PHE168     -0.2867
     90  CB        16.0150  -11.7810   10.7550 C.3   168  PHE168      0.0534
     91  CG        16.5140  -11.3620    9.4040 C.ar  168  PHE168     -0.0203
     92  CD1       17.0400  -10.0960    9.2060 C.ar  168  PHE168     -0.0042
     93  CD2       16.5210  -12.2590    8.3490 C.ar  168  PHE168     -0.0042
     94  CE1       17.5430   -9.7290    7.9730 C.ar  168  PHE168     -0.0003
     95  CE2       17.0180  -11.8950    7.1070 C.ar  168  PHE168     -0.0003
     96  CZ        17.5170  -10.6160    6.9160 C.ar  168  PHE168     -0.0000
     97  N         21.4320  -12.3780   11.9790 N.3   172  ALA172     -0.1231
     98  CA        21.8090  -11.7930   10.6840 C.3   172  ALA172      0.1694
     99  C         22.2170  -10.3260   10.7950 C.2   172  ALA172      0.2591
    100  O         23.1740   -9.8940   10.1530 O.2   172  ALA172     -0.2718
    101  CB        20.6760  -11.9630    9.6570 C.3   172  ALA172      0.0304
    102  N         21.4750   -9.5610   11.5920 N.am  173  LEU173     -0.1980
    103  CA        21.7510   -8.1350   11.7630 C.3   173  LEU173      0.1596
    104  C         23.2020   -7.8280   12.1970 C.2   173  LEU173      0.2287
    105  O         23.9180   -7.1400   11.4730 O.2   173  LEU173     -0.2864
    106  CB        20.7100   -7.4930   12.6860 C.3   173  LEU173      0.0297
    107  CG        20.9730   -6.0870   13.2210 C.3   173  LEU173      0.0022
    108  CD1       20.9870   -5.0880   12.0710 C.3   173  LEU173      0.0001
    109  CD2       19.9020   -5.7170   14.2330 C.3   173  LEU173      0.0001
    110  N         25.8760   -8.5250    9.6320 N.3   175  GLY175     -0.1225
    111  CA        25.9760   -7.6630    8.4670 C.3   175  GLY175      0.1811
    112  C         26.7790   -6.3930    8.6930 C.2   175  GLY175      0.2280
    113  O         26.8330   -5.5260    7.8240 O.2   175  GLY175     -0.2866
    114  N         10.5630  -10.7880    3.7820 N.3   203  LEU203     -0.1231
    115  CA        11.5490  -10.0950    2.9460 C.3   203  LEU203      0.1678
    116  C         12.6750  -10.9980    2.4060 C.2   203  LEU203      0.2434
    117  O         12.9570  -10.9740    1.2150 O.2   203  LEU203     -0.2733
    118  CB        12.0860   -8.8250    3.6200 C.3   203  LEU203      0.0284
    119  CG        11.0840   -7.6680    3.6940 C.3   203  LEU203      0.0019
    120  CD1       11.6610   -6.4900    4.4470 C.3   203  LEU203      0.0001
    121  CD2       10.6590   -7.2420    2.3000 C.3   203  LEU203      0.0001
    122  N         13.3090  -11.8180    3.2670 N.am  204  PRO204     -0.2729
    123  CA        14.2980  -12.7280    2.6670 C.3   204  PRO204      0.1401
    124  C         13.6600  -13.7150    1.6900 C.2   204  PRO204      0.2269
    125  O         14.3240  -14.1690    0.7580 O.2   204  PRO204     -0.2865
    126  CB        14.9070  -13.4600    3.8750 C.3   204  PRO204      0.0296
    127  CG        14.0550  -13.0820    5.0520 C.3   204  PRO204      0.0237
    128  CD        13.4310  -11.7660    4.7300 C.3   204  PRO204      0.0939
    129  N         13.6620  -12.1200   -1.8710 N.3   207  LEU207     -0.1245
    130  CA        14.9030  -11.8740   -2.6260 C.3   207  LEU207      0.1561
    131  C         14.8990  -12.6560   -3.9450 C.2   207  LEU207      0.2260
    132  O         14.4990  -13.8080   -3.9680 O.2   207  LEU207     -0.2867
    133  CB        16.1300  -12.2700   -1.8060 C.3   207  LEU207      0.0270
    134  CG        16.3400  -11.4260   -0.5480 C.3   207  LEU207      0.0019
    135  CD1       17.3490  -12.0940    0.3670 C.3   207  LEU207      0.0001
    136  CD2       16.7980  -10.0150   -0.9660 C.3   207  LEU207      0.0001
    137  N         28.5300   -7.5760    0.4490 N.3   242  VAL242     -0.1231
    138  CA        27.7110   -8.7760    0.4190 C.3   242  VAL242      0.1692
    139  C         26.8920   -8.8030   -0.8620 C.2   242  VAL242      0.2591
    140  O         27.1430   -9.6220   -1.7440 O.2   242  VAL242     -0.2718
    141  CB        26.7970   -8.8820    1.6530 C.3   242  VAL242      0.0266
    142  CG1       25.7980  -10.0110    1.4580 C.3   242  VAL242      0.0020
    143  CG2       27.6370   -9.1180    2.9240 C.3   242  VAL242      0.0020
    144  N         25.9380   -7.8860   -0.9900 N.am  243  LEU243     -0.1980
    145  CA        25.1180   -7.8450   -2.1980 C.3   243  LEU243      0.1596
    146  C         25.8760   -7.2260   -3.3810 C.2   243  LEU243      0.2287
    147  O         25.6520   -7.5900   -4.5340 O.2   243  LEU243     -0.2864
    148  CB        23.7920   -7.1060   -1.9380 C.3   243  LEU243      0.0297
    149  CG        22.9370   -7.7010   -0.7990 C.3   243  LEU243      0.0022
    150  CD1       21.6490   -6.9090   -0.6160 C.3   243  LEU243      0.0001
    151  CD2       22.6270   -9.1690   -1.0520 C.3   243  LEU243      0.0001
    152  N         30.2570   -4.9570    5.0180 N.3   268  LEU268     -0.1231
    153  CA        29.5220   -6.1220    4.5640 C.3   268  LEU268      0.1693
    154  C         28.1790   -5.6620    4.0070 C.2   268  LEU268      0.2592
    155  O         28.0930   -5.2770    2.8420 O.2   268  LEU268     -0.2718
    156  CB        29.3550   -7.1180    5.7130 C.3   268  LEU268      0.0284
    157  CG        30.6490   -7.8600    6.0780 C.3   268  LEU268      0.0019
    158  CD1       30.5730   -8.4410    7.4960 C.3   268  LEU268      0.0001
    159  CD2       30.9470   -8.9640    5.0480 C.3   268  LEU268      0.0001
    160  N         27.1440   -5.6690    4.8390 N.am  269  PHE269     -0.1962
    161  CA        25.7910   -5.3480    4.3690 C.3   269  PHE269      0.1771
    162  C         25.3110   -3.9640    4.8140 C.2   269  PHE269      0.2619
    163  O         24.8810   -3.1500    3.9860 O.2   269  PHE269     -0.2715
    164  CB        24.8130   -6.4410    4.8180 C.3   269  PHE269      0.0574
    165  CG        23.3580   -6.1160    4.5790 C.ar  269  PHE269     -0.0200
    166  CD1       22.8470   -6.0430    3.2910 C.ar  269  PHE269     -0.0042
    167  CD2       22.4960   -5.9210    5.6540 C.ar  269  PHE269     -0.0042
    168  CE1       21.4970   -5.7760    3.0790 C.ar  269  PHE269     -0.0003
    169  CE2       21.1540   -5.6590    5.4480 C.ar  269  PHE269     -0.0003
    170  CZ        20.6530   -5.5770    4.1710 C.ar  269  PHE269     -0.0000
    171  N         25.3730   -3.6950    6.1130 N.am  270  LEU270     -0.1977
    172  CA        24.9510   -2.3990    6.6350 C.3   270  LEU270      0.1596
    173  C         26.1140   -1.4190    6.6210 C.2   270  LEU270      0.2287
    174  O         26.6640   -1.0890    7.6780 O.2   270  LEU270     -0.2864
    175  CB        24.4300   -2.5320    8.0700 C.3   270  LEU270      0.0297
    176  CG        23.0650   -3.2080    8.2390 C.3   270  LEU270      0.0022
    177  CD1       22.6000   -3.0790    9.6850 C.3   270  LEU270      0.0001
    178  CD2       22.0290   -2.5950    7.3220 C.3   270  LEU270      0.0001
@<TRIPOS>BOND
     1   147   146    2
     2   132   131    2
     3   131   130    1
     4    38    39    1
     5   146   145    1
     6   130   129    1
     7   130   133    1
     8    39    42    1
     9    39    40    1
    10    36    37   ar
    11    36    34   ar
    12    37    35   ar
    13   145   148    1
    14   145   144    1
    15    42    43    1
    16   148   149    1
    17   133   134    1
    18    41    40    2
    19   140   139    2
    20    40    52   am
    21    34    31   ar
    22    48    50   ar
    23    48    45   ar
    24    19    18    2
    25    35    33   ar
    26    50    51   ar
    27   151   149    1
    28   144   139   am
    29   136   134    1
    30    27    26    2
    31    52    58    1
    32    52    53    1
    33   139   138    1
    34    43    45   ar
    35    43    44   ar
    36   149   150    1
    37    45    47   ar
    38    58    57    1
    39   134   135    1
    40    31    33   ar
    41    31    29   ar
    42    33    32   ar
    43    18    17    1
    44    18    24   am
    45    53    56    1
    46    53    54    1
    47    26    25    1
    48    25    24    1
    49    25    28    1
    50    51    49   ar
    51    16    17    1
    52    44    46   ar
    53   138   137    1
    54   138   141    1
    55    17    20    1
    56    57    56    1
    57    47    49   ar
    58    47    46   ar
    59   125   124    2
    60    29    28    1
    61    29    30   ar
    62    54    55    2
    63    32    30   ar
    64   117   116    2
    65   142   141    1
    66    22    21   ar
    67   141   143    1
    68   124   123    1
    69    20    21    1
    70    21    23   ar
    71   121   119    1
    72   116   115    1
    73   116   122   am
    74   123   122    1
    75   123   126    1
    76   155   154    2
    77   115   118    1
    78   115   114    1
    79    78    77    2
    80   168   166   ar
    81   168   170   ar
    82    79    80    1
    83    79    76    1
    84   122   128    1
    85   166   165   ar
    86    77    76    1
    87   118   119    1
    88    82    80   ar
    89    82    84   ar
    90   119   120    1
    91    59    60    1
    92   126   127    1
    93    80    81   ar
    94    67    65   ar
    95    67    69   ar
    96   163   162    2
    97   154   153    1
    98   154   160   am
    99    73    72    2
   100    76    75    1
   101    72    71    1
   102   170   169   ar
   103    65    64   ar
   104    84    85   ar
   105   161   162    1
   106   161   164    1
   107   161   160    1
   108   153   152    1
   109   153   156    1
   110   165   164    1
   111   165   167   ar
   112   128   127    1
   113    70    71    1
   114    70    61   am
   115   162   171   am
   116    81    83   ar
   117    69    68   ar
   118    74    71    1
   119   159   157    1
   120     1     2    1
   121    85    83   ar
   122    60    61    1
   123    60    63    1
   124   169   167   ar
   125    64    63    1
   126    64    66   ar
   127     5     2    1
   128     5     6    1
   129    61    62    2
   130   156   157    1
   131   157   158    1
   132   171   172    1
   133    68    66   ar
   134     2     3    1
   135     4     3    2
   136   173   172    1
   137   173   174    2
   138   172   175    1
   139     6     7    2
   140     6     8   am
   141    96    95   ar
   142    96    94   ar
   143     3     9   am
   144    95    93   ar
   145   178   176    1
   146   113   112    2
   147    94    92   ar
   148   175   176    1
   149   176   177    1
   150     9    15    1
   151     9    10    1
   152    93    91   ar
   153   111   112    1
   154   111   110    1
   155    15    14    1
   156    92    91   ar
   157    10    11    1
   158    10    13    1
   159    91    90    1
   160   101    98    1
   161    11    12    2
   162    13    14    1
   163   100    99    2
   164    98    99    1
   165    98    97    1
   166    90    87    1
   167    99   102   am
   168   105   104    2
   169   102   103    1
   170    87    88    1
   171    87    86    1
   172   103   104    1
   173   103   106    1
   174    89    88    2
   175   108   107    1
   176   106   107    1
   177   107   109    1
