@<TRIPOS>MOLECULE
tmp/4kz0A00.pdb
 156 149 0 0 0
SMALL
GASTEIGER

@<TRIPOS>ATOM
      1  N         18.2920   16.6900   12.3480 N.3   557  MET557     -0.1245
      2  CA        18.6520   17.5800   13.4600 C.3   557  MET557      0.1570
      3  C         19.4940   18.7750   13.0300 C.2   557  MET557      0.2261
      4  O         20.2970   18.6680   12.1030 O.2   557  MET557     -0.2867
      5  CB        19.3170   16.8150   14.6140 C.3   557  MET557      0.0387
      6  CG        18.4390   15.7120   15.1910 C.3   557  MET557      0.0595
      7  SD        19.2050   14.7550   16.5250 S.3   557  MET557     -0.1393
      8  CE        18.7590   15.7600   17.9360 C.3   557  MET557      0.0692
      9  N         16.9430   11.9590   12.8500 N.3   565  TRP565     -0.1241
     10  CA        16.0100   11.7840   13.9610 C.3   565  TRP565      0.1605
     11  C         14.9540   10.8390   13.4090 C.2   565  TRP565      0.2264
     12  O         14.2010   11.2390   12.5210 O.2   565  TRP565     -0.2867
     13  CB        15.3950   13.1350   14.3510 C.3   565  TRP565      0.0550
     14  CG        14.3350   13.0510   15.4040 C.ar  565  TRP565      0.0003
     15  CD1       13.0610   12.5790   15.2570 C.ar  565  TRP565      0.0946
     16  CD2       14.4400   13.5110   16.7590 C.ar  565  TRP565      0.0152
     17  NE1       12.3840   12.6610   16.4550 N.ar  565  TRP565     -0.2442
     18  CE2       13.1960   13.2600   17.3860 C.ar  565  TRP565      0.0810
     19  CE3       15.4770   14.0830   17.5160 C.ar  565  TRP565      0.0012
     20  CZ2       12.9600   13.5670   18.7300 C.ar  565  TRP565      0.0191
     21  CZ3       15.2410   14.3920   18.8470 C.ar  565  TRP565      0.0001
     22  CH2       13.9950   14.1410   19.4380 C.ar  565  TRP565      0.0015
     23  N         18.6350    8.1710   16.9510 N.3   584  ILE584     -0.1245
     24  CA        19.4010    9.2010   16.2740 C.3   584  ILE584      0.1561
     25  C         20.5400    8.4990   15.5220 C.2   584  ILE584      0.2260
     26  O         21.2850    7.7420   16.1410 O.2   584  ILE584     -0.2867
     27  CB        19.9150   10.2780   17.2800 C.3   584  ILE584      0.0252
     28  CG1       18.7420   11.1480   17.7970 C.3   584  ILE584      0.0019
     29  CG2       21.0670   11.1410   16.6910 C.3   584  ILE584      0.0019
     30  CD1       19.0260   11.8850   19.0620 C.3   584  ILE584      0.0001
     31  N         23.9940    9.1600   13.4420 N.3   586  LYS586     -0.1245
     32  CA        24.9210   10.2700   13.2770 C.3   586  LYS586      0.1561
     33  C         26.3030    9.9170   12.7400 C.2   586  LYS586      0.2260
     34  O         27.0140    9.0790   13.3200 O.2   586  LYS586     -0.2867
     35  CB        25.0620   11.0260   14.6110 C.3   586  LYS586      0.0271
     36  CG        25.9490   12.2730   14.5480 C.3   586  LYS586      0.0035
     37  CD        26.1210   12.9740   15.8970 C.3   586  LYS586      0.0206
     38  CE        27.1600   12.3590   16.8140 C.3   586  LYS586      0.1093
     39  NZ        28.5510   12.6220   16.3570 N.3   586  LYS586     -0.1314
     40  N         31.6590    7.2320   17.9410 N.3   591  LEU591     -0.1245
     41  CA        30.7170    6.7980   18.9770 C.3   591  LEU591      0.1561
     42  C         31.2440    5.6240   19.8160 C.2   591  LEU591      0.2260
     43  O         30.5690    5.1610   20.7390 O.2   591  LEU591     -0.2867
     44  CB        29.3370    6.5060   18.3720 C.3   591  LEU591      0.0270
     45  CG        28.6770    7.6520   17.5750 C.3   591  LEU591      0.0019
     46  CD1       27.4450    7.1930   16.9360 C.3   591  LEU591      0.0001
     47  CD2       28.3250    8.8440   18.4480 C.3   591  LEU591      0.0001
     48  N         31.8200    7.4780   23.1070 N.3   594  ASP594     -0.1239
     49  CA        30.5550    7.6820   23.8120 C.3   594  ASP594      0.1674
     50  C         30.2650    6.3750   24.5090 C.2   594  ASP594      0.2266
     51  O         30.1250    6.3710   25.7310 O.2   594  ASP594     -0.2867
     52  CB        29.4040    7.9970   22.8400 C.3   594  ASP594      0.1410
     53  CG        29.3340    9.4290   22.3520 C.2   594  ASP594      0.3668
     54  OD1       30.3120    9.8930   21.7500 O.co2 594  ASP594     -0.2456
     55  OD2       28.2570   10.0570   22.4980 O.co2 594  ASP594     -0.2456
     56  N         22.0260    6.4950   28.3770 N.3   620  TYR620     -0.1241
     57  CA        21.2170    6.1410   27.2080 C.3   620  TYR620      0.1605
     58  C         21.9750    5.1850   26.2840 C.2   620  TYR620      0.2264
     59  O         23.2070    5.0970   26.3430 O.2   620  TYR620     -0.2867
     60  CB        20.7940    7.4370   26.4410 C.3   620  TYR620      0.0534
     61  CG        21.9670    8.3430   26.1110 C.ar  620  TYR620     -0.0201
     62  CD1       22.4280    9.2840   27.0290 C.ar  620  TYR620     -0.0009
     63  CD2       22.6570    8.2140   24.9090 C.ar  620  TYR620     -0.0009
     64  CE1       23.5540   10.0680   26.7610 C.ar  620  TYR620      0.0417
     65  CE2       23.7990    8.9710   24.6430 C.ar  620  TYR620      0.0417
     66  CZ        24.2340    9.9120   25.5650 C.ar  620  TYR620      0.1957
     67  OH        25.3660   10.6550   25.3150 O.3   620  TYR620     -0.2866
     68  N         22.0180    6.2170   18.3370 N.3   632  ILE632     -0.1231
     69  CA        21.8460    6.7160   19.7130 C.3   632  ILE632      0.1693
     70  C         20.3710    6.6050   20.1420 C.2   632  ILE632      0.2595
     71  O         19.4800    6.6140   19.3010 O.2   632  ILE632     -0.2718
     72  CB        22.4140    8.1700   19.8650 C.3   632  ILE632      0.0266
     73  CG1       23.8970    8.2820   19.4160 C.3   632  ILE632      0.0019
     74  CG2       22.2980    8.6700   21.2880 C.3   632  ILE632      0.0020
     75  CD1       24.1400    9.1710   18.2610 C.3   632  ILE632      0.0001
     76  N         20.1220    6.4700   21.4360 N.am  633  GLU633     -0.1920
     77  CA        18.7730    6.4340   21.9820 C.3   633  GLU633      0.1949
     78  C         18.2590    7.8830   22.1590 C.2   633  GLU633      0.2659
     79  O         19.0380    8.7960   22.4850 O.2   633  GLU633     -0.2711
     80  CB        18.7830    5.7110   23.3450 C.2   633  GLU633      0.0111
     81  CG        17.4350    5.5790   24.0470 C.2   633  GLU633      0.0838
     82  CD        17.4170    4.8510   25.3800 C.2   633  GLU633      0.3877
     83  OE1       18.4900    4.7260   26.0150 O.co2 633  GLU633     -0.2406
     84  OE2       16.3210    4.4070   25.7940 O.co2 633  GLU633     -0.2406
     85  N         16.9500    8.0800   21.9120 N.am  634  ILE634     -0.1961
     86  CA        16.2440    9.3320   22.1690 C.3   634  ILE634      0.1727
     87  C         15.6370    9.1770   23.5820 C.2   634  ILE634      0.2616
     88  O         14.8040    8.2820   23.8190 O.2   634  ILE634     -0.2715
     89  CB        15.1770    9.7090   21.0790 C.3   634  ILE634      0.0290
     90  CG1       15.8590   10.4050   19.8920 C.3   634  ILE634      0.0022
     91  CG2       14.0870   10.6200   21.6650 C.3   634  ILE634      0.0023
     92  CD1       15.1700   10.4030   18.5380 C.3   634  ILE634      0.0001
     93  N         16.1010   10.0010   24.5260 N.am  635  VAL635     -0.1963
     94  CA        15.5320    9.9790   25.8630 C.3   635  VAL635      0.1727
     95  C         14.2700   10.8240   25.7450 C.2   635  VAL635      0.2616
     96  O         14.3720   12.0220   25.5020 O.2   635  VAL635     -0.2715
     97  CB        16.4870   10.5240   26.9410 C.3   635  VAL635      0.0290
     98  CG1       15.8040   10.5400   28.3030 C.3   635  VAL635      0.0023
     99  CG2       17.7870    9.7240   26.9890 C.3   635  VAL635      0.0023
    100  N         13.0980   10.1980   25.8620 N.am  636  LYS636     -0.1963
    101  CA        11.7970   10.8460   25.7110 C.3   636  LYS636      0.1728
    102  C         11.5830   12.0260   26.6630 C.2   636  LYS636      0.2616
    103  O         12.0530   11.9870   27.8070 O.2   636  LYS636     -0.2715
    104  CB        10.6670    9.8140   25.8630 C.3   636  LYS636      0.0311
    105  CG        10.6820    8.7380   24.7910 C.3   636  LYS636      0.0038
    106  CD        10.4380    9.2990   23.4010 C.3   636  LYS636      0.0206
    107  CE        10.2790    8.2360   22.3390 C.3   636  LYS636      0.1093
    108  NZ        10.4220    8.8960   20.9230 N.3   636  LYS636     -0.1314
    109  N         10.8900   13.0860   26.1620 N.am  637  ASP637     -0.1957
    110  CA        10.4990   14.3240   26.8730 C.3   637  ASP637      0.1840
    111  C         11.6840   15.1580   27.3820 C.2   637  ASP637      0.2621
    112  O         11.5370   15.9670   28.2950 O.2   637  ASP637     -0.2715
    113  CB         9.5020   14.0140   28.0180 C.3   637  ASP637      0.1450
    114  CG         8.1880   13.4070   27.5610 C.2   637  ASP637      0.3671
    115  OD1        7.4610   14.0740   26.7830 O.co2 637  ASP637     -0.2456
    116  OD2        7.8660   12.2860   28.0130 O.co2 637  ASP637     -0.2456
    117  N         12.8400   14.9850   26.7690 N.am  638  ALA638     -0.1977
    118  CA        14.0380   15.6920   27.1850 C.3   638  ALA638      0.1597
    119  C         14.3580   16.8590   26.2820 C.2   638  ALA638      0.2287
    120  O         14.0530   16.8150   25.0910 O.2   638  ALA638     -0.2864
    121  CB        15.2080   14.7290   27.2230 C.3   638  ALA638      0.0319
    122  N         21.2820   17.8090   28.9640 N.3   706  MET706     -0.1245
    123  CA        19.8340   17.7510   28.7670 C.3   706  MET706      0.1570
    124  C         19.0280   17.5190   30.0700 C.2   706  MET706      0.2261
    125  O         19.6170   17.2710   31.1180 O.2   706  MET706     -0.2867
    126  CB        19.4720   16.7220   27.6780 C.3   706  MET706      0.0387
    127  CG        19.9400   17.1280   26.2830 C.3   706  MET706      0.0595
    128  SD        19.3620   16.0540   24.9680 S.3   706  MET706     -0.1393
    129  CE        18.1710   17.0140   24.2670 C.3   706  MET706      0.0692
    130  N         21.0870   14.9490   32.2760 N.3   714  PHE714     -0.1241
    131  CA        22.0180   14.0370   31.5990 C.3   714  PHE714      0.1605
    132  C         22.8990   14.6740   30.5330 C.2   714  PHE714      0.2264
    133  O         22.4000   15.3760   29.6620 O.2   714  PHE714     -0.2867
    134  CB        21.2950   12.8130   31.0120 C.3   714  PHE714      0.0534
    135  CG        20.3400   13.0250   29.8640 C.ar  714  PHE714     -0.0203
    136  CD1       19.0170   13.3840   30.0970 C.ar  714  PHE714     -0.0042
    137  CD2       20.7230   12.7410   28.5600 C.ar  714  PHE714     -0.0042
    138  CE1       18.1170   13.5330   29.0330 C.ar  714  PHE714     -0.0003
    139  CE2       19.8210   12.8800   27.4980 C.ar  714  PHE714     -0.0003
    140  CZ        18.5290   13.2860   27.7400 C.ar  714  PHE714     -0.0000
    141  N         25.4300   14.5950   27.2000 N.3   716  ILE716     -0.1231
    142  CA        25.3600   13.9320   25.9010 C.3   716  ILE716      0.1692
    143  C         26.6110   14.1740   25.0540 C.2   716  ILE716      0.2592
    144  O         27.5500   14.8090   25.5160 O.2   716  ILE716     -0.2718
    145  CB        24.0530   14.2690   25.1320 C.3   716  ILE716      0.0266
    146  CG1       23.9540   15.7540   24.7230 C.3   716  ILE716      0.0019
    147  CG2       22.8270   13.8230   25.8990 C.3   716  ILE716      0.0020
    148  CD1       23.0670   16.0050   23.4830 C.3   716  ILE716      0.0001
    149  N         26.6310   13.6310   23.8350 N.am  717  ASP717     -0.1974
    150  CA        27.7010   13.7580   22.8440 C.3   717  ASP717      0.1709
    151  C         29.1300   13.7700   23.4330 C.2   717  ASP717      0.2293
    152  O         29.8600   14.7390   23.2370 O.2   717  ASP717     -0.2864
    153  CB        27.4460   14.9950   21.9640 C.3   717  ASP717      0.1436
    154  CG        27.9440   14.8510   20.5440 C.2   717  ASP717      0.3671
    155  OD1       28.2230   13.6930   20.1190 O.co2 717  ASP717     -0.2456
    156  OD2       28.0270   15.8830   19.8390 O.co2 717  ASP717     -0.2456
@<TRIPOS>BOND
     1     4     3    2
     2     1     2    1
     3    12    11    2
     4    33    32    1
     5    33    34    2
     6     9    10    1
     7     3     2    1
     8    32    31    1
     9    32    35    1
    10    11    10    1
    11     2     5    1
    12    10    13    1
    13    13    14    1
    14    36    35    1
    15    36    37    1
    16     5     6    1
    17     6     7    1
    18    15    14   ar
    19    15    17   ar
    20    14    16   ar
    21    25    26    2
    22    25    24    1
    23    37    38    1
    24    24    23    1
    25    24    27    1
    26    39    38    1
    27    17    18   ar
    28     7     8    1
    29    29    27    1
    30    16    18   ar
    31    16    19   ar
    32    46    45    1
    33    27    28    1
    34    18    20   ar
    35    19    21   ar
    36    45    44    1
    37    45    47    1
    38    28    30    1
    39    40    41    1
    40    75    73    1
    41    68    69    1
    42    44    41    1
    43    92    90    1
    44    20    22   ar
    45    21    22   ar
    46    41    42    1
    47    71    70    2
    48    73    72    1
    49    69    72    1
    50    69    70    1
    51    42    43    2
    52   156   154   ar
    53    72    74    1
    54    90    89    1
    55   155   154   ar
    56    70    76   am
    57   154   153    1
    58   108   107    1
    59    89    91    1
    60    89    86    1
    61    76    77    1
    62    54    53   ar
    63    85    78   am
    64    85    86    1
    65   153   150    1
    66    77    78    1
    67    77    80    1
    68    78    79    2
    69    86    87    1
    70   107   106    1
    71    53    55   ar
    72    53    52    1
    73    52    49    1
    74   150   151    1
    75   150   149    1
    76    48    49    1
    77   152   151    2
    78    80    81    2
    79   106   105    1
    80   148   146    1
    81    87    88    2
    82    87    93   am
    83    49    50    1
    84   149   143   am
    85    81    82    1
    86   129   128    1
    87    50    51    2
    88    93    94    1
    89    65    63   ar
    90    65    66   ar
    91   146   145    1
    92   105   104    1
    93    63    61   ar
    94   128   127    1
    95   143   144    2
    96   143   142    1
    97   120   119    2
    98   145   147    1
    99   145   142    1
   100    67    66    1
   101    82    84   ar
   102    82    83   ar
   103    96    95    2
   104    66    64   ar
   105   101   100    1
   106   101   104    1
   107   101   102    1
   108    95   100   am
   109    95    94    1
   110    94    97    1
   111   142   141    1
   112    61    60    1
   113    61    62   ar
   114   109   102   am
   115   109   110    1
   116   119   118    1
   117   127   126    1
   118    58    59    2
   119    58    57    1
   120    60    57    1
   121   102   103    2
   122    64    62   ar
   123   117   118    1
   124   117   111   am
   125   115   114   ar
   126   110   111    1
   127   110   113    1
   128    97    99    1
   129    97    98    1
   130   118   121    1
   131    57    56    1
   132   111   112    2
   133   139   140   ar
   134   139   137   ar
   135   114   116   ar
   136   114   113    1
   137   126   123    1
   138   140   138   ar
   139   137   135   ar
   140   123   122    1
   141   123   124    1
   142   138   136   ar
   143   133   132    2
   144   135   136   ar
   145   135   134    1
   146   124   125    2
   147   132   131    1
   148   134   131    1
   149   131   130    1
