@<TRIPOS>MOLECULE
tmp/4kz3A00.pdb
 111 106 0 0 0
SMALL
GASTEIGER

@<TRIPOS>ATOM
      1  N         26.6190    2.0700   16.1900 N.3    61  SER61      -0.1217
      2  CA        27.9470    2.5920   16.4630 C.3    61  SER61       0.1889
      3  C         28.8490    1.6590   17.2560 C.2    61  SER61       0.2288
      4  O         30.0270    1.9460   17.3840 O.2    61  SER61      -0.2866
      5  CB        27.8950    3.9350   17.2000 C.3    61  SER61       0.2089
      6  OG        27.5330    4.9450   16.2890 O.3    61  SER61      -0.2183
      7  N         27.2570   13.1950   10.6850 N.3   117  GLN117     -0.1231
      8  CA        26.7460   12.3980    9.5700 C.3   117  GLN117      0.1698
      9  C         27.4120   12.8090    8.2610 C.2   117  GLN117      0.2592
     10  O         27.6840   14.0080    8.0250 O.2   117  GLN117     -0.2718
     11  CB        25.2180   12.6190    9.4380 C.3   117  GLN117      0.0381
     12  CG        24.3910   12.4380   10.7620 C.3   117  GLN117      0.0905
     13  CD        23.4200   13.6190   11.1010 C.2   117  GLN117      0.2608
     14  OE1       23.7980   14.8010   11.0870 O.2   117  GLN117     -0.2717
     15  NE2       22.1720   13.2800   11.4210 N.am  117  GLN117     -0.0878
     16  N         27.7140   11.8150    7.4200 N.am  118  VAL118     -0.1980
     17  CA        28.0660   12.0950    6.0320 C.3   118  VAL118      0.1595
     18  C         26.7650   12.4770    5.3490 C.2   118  VAL118      0.2287
     19  O         25.7260   11.8000    5.5050 O.2   118  VAL118     -0.2864
     20  CB        28.6850   10.8350    5.3120 C.3   118  VAL118      0.0276
     21  CG1       29.0050   11.1530    3.8340 C.3   118  VAL118      0.0022
     22  CG2       29.9650   10.3850    6.0430 C.3   118  VAL118      0.0022
     23  N         23.5170   12.7810    3.1130 N.3   120  ASP120     -0.1239
     24  CA        22.7820   11.7980    2.3230 C.3   120  ASP120      0.1674
     25  C         23.1780   11.8760    0.8630 C.2   120  ASP120      0.2266
     26  O         23.3010   10.8580    0.1690 O.2   120  ASP120     -0.2867
     27  CB        21.2780   12.0650    2.4110 C.3   120  ASP120      0.1410
     28  CG        20.7490   11.9920    3.8240 C.2   120  ASP120      0.3668
     29  OD1       21.3290   11.2430    4.6430 O.co2 120  ASP120     -0.2456
     30  OD2       19.7410   12.6820    4.1060 O.co2 120  ASP120     -0.2456
     31  N         30.5350   10.0800   12.5600 N.3   149  ASN149     -0.1240
     32  CA        30.7020    8.9650   11.6340 C.3   149  ASN149      0.1653
     33  C         31.6220    9.3160   10.5040 C.2   149  ASN149      0.2266
     34  O         32.3230    8.4490    9.9960 O.2   149  ASN149     -0.2867
     35  CB        29.3470    8.5590   11.0330 C.3   149  ASN149      0.1155
     36  CG        28.4190    8.0120   12.0870 C.2   149  ASN149      0.2627
     37  OD1       28.8680    7.3100   12.9540 O.2   149  ASN149     -0.2716
     38  ND2       27.1460    8.3800   12.0380 N.am  149  ASN149     -0.0877
     39  N         10.8810    1.4430   14.8120 N.3   201  ARG201     -0.1245
     40  CA        10.9910    2.8700   15.0260 C.3   201  ARG201      0.1563
     41  C          9.6020    3.4220   14.8350 C.2   201  ARG201      0.2260
     42  O          9.0100    3.2650   13.7730 O.2   201  ARG201     -0.2867
     43  CB        12.0030    3.4810   14.0450 C.3   201  ARG201      0.0307
     44  CG        12.1750    4.9970   14.1770 C.3   201  ARG201      0.0489
     45  CD        12.8370    5.6190   12.9390 C.3   201  ARG201      0.2205
     46  NE        13.4940    6.8850   13.2910 N.pl3 201  ARG201     -0.0865
     47  CZ        14.5960    7.3700   12.7050 C.cat 201  ARG201      0.5346
     48  NH1       15.1830    6.7120   11.7030 N.pl3 201  ARG201      0.1354
     49  NH2       15.1210    8.5220   13.1260 N.pl3 201  ARG201      0.1354
     50  N         15.1030   -1.5880    8.7550 N.3   207  HIS207     -0.1226
     51  CA        16.5220   -1.9420    8.7930 C.3   207  HIS207      0.1752
     52  C         17.3540   -0.7540    8.4000 C.2   207  HIS207      0.2596
     53  O         16.8460    0.1810    7.7510 O.2   207  HIS207     -0.2718
     54  CB        16.8100   -3.0960    7.8270 C.3   207  HIS207      0.0759
     55  CG        16.4290   -4.4420    8.3530 C.ar  207  HIS207      0.0818
     56  ND1       15.9320   -5.4380    7.5360 N.ar  207  HIS207     -0.2268
     57  CD2       16.4770   -4.9650    9.6010 C.ar  207  HIS207      0.1154
     58  CE1       15.6890   -6.5190    8.2650 C.ar  207  HIS207      0.1986
     59  NE2       16.0220   -6.2590    9.5190 N.ar  207  HIS207     -0.2212
     60  N         18.6300   -0.8040    8.7660 N.am  208  VAL208     -0.1966
     61  CA        19.6220    0.2430    8.4380 C.3   208  VAL208      0.1727
     62  C         19.5840    0.5660    6.9490 C.2   208  VAL208      0.2617
     63  O         19.4460   -0.3520    6.1300 O.2   208  VAL208     -0.2715
     64  CB        21.0440   -0.1800    8.8980 C.3   208  VAL208      0.0290
     65  CG1       21.5530   -1.4000    8.1100 C.3   208  VAL208      0.0023
     66  CG2       22.0300    1.0010    8.7810 C.3   208  VAL208      0.0023
     67  N         19.6410    1.8650    6.6120 N.am  209  SER209     -0.1936
     68  CA        19.6630    2.3100    5.2230 C.3   209  SER209      0.2040
     69  C         21.1150    2.3420    4.7590 C.2   209  SER209      0.2485
     70  O         21.9720    2.7530    5.5030 O.2   209  SER209     -0.2729
     71  CB        19.1340    3.7570    5.1330 C.3   209  SER209      0.2129
     72  OG        17.7140    3.7770    5.2760 O.3   209  SER209     -0.2179
     73  N         21.3640    2.0120    3.4860 N.am  210  PRO210     -0.2715
     74  CA        22.6970    2.2090    2.9040 C.3   210  PRO210      0.1536
     75  C         23.1410    3.6670    3.0390 C.2   210  PRO210      0.2599
     76  O         22.3360    4.5890    2.8590 O.2   210  PRO210     -0.2715
     77  CB        22.4520    1.9100    1.4160 C.3   210  PRO210      0.0310
     78  CG        21.3210    0.9900    1.4190 C.3   210  PRO210      0.0237
     79  CD        20.4200    1.4360    2.5110 C.3   210  PRO210      0.0939
     80  N         24.4140    3.8760    3.3280 N.am  211  GLY211     -0.1955
     81  CA        24.9590    5.2330    3.3860 C.3   211  GLY211      0.1869
     82  C         26.4550    5.2130    3.1570 C.2   211  GLY211      0.2309
     83  O         27.1010    4.1930    3.3380 O.2   211  GLY211     -0.2863
     84  N         28.8770    2.2490   11.1800 N.3   218  TYR218     -0.1241
     85  CA        27.6870    1.7950   11.8920 C.3   218  TYR218      0.1605
     86  C         27.0580    0.5540   11.2740 C.2   218  TYR218      0.2264
     87  O         25.8880    0.2570   11.5490 O.2   218  TYR218     -0.2867
     88  CB        26.6160    2.9080   11.9580 C.3   218  TYR218      0.0534
     89  CG        26.2420    3.5050   10.5960 C.ar  218  TYR218     -0.0201
     90  CD1       25.2500    2.9320    9.8010 C.ar  218  TYR218     -0.0009
     91  CD2       26.8680    4.6680   10.1260 C.ar  218  TYR218     -0.0009
     92  CE1       24.8820    3.4770    8.6020 C.ar  218  TYR218      0.0417
     93  CE2       26.4950    5.2230    8.9370 C.ar  218  TYR218      0.0417
     94  CZ        25.5370    4.6070    8.1510 C.ar  218  TYR218      0.1957
     95  OH        25.2000    5.1880    6.9630 O.3   218  TYR218     -0.2866
     96  N         23.5120    2.8310   17.9950 N.3   315  ALA315     -0.1231
     97  CA        22.1040    2.8850   17.5840 C.3   315  ALA315      0.1694
     98  C         22.0090    2.8490   16.0850 C.2   315  ALA315      0.2593
     99  O         22.8490    3.4060   15.4050 O.2   315  ALA315     -0.2718
    100  CB        21.4510    4.1760   18.0890 C.3   315  ALA315      0.0304
    101  N         20.9630    2.2100   15.5690 N.am  316  THR316     -0.1939
    102  CA        20.5030    2.5410   14.2220 C.3   316  THR316      0.2028
    103  C         19.0610    3.0010   14.3610 C.2   316  THR316      0.2642
    104  O         18.5390    3.1200   15.4870 O.2   316  THR316     -0.2714
    105  CB        20.5660    1.3160   13.2890 C.3   316  THR316      0.1808
    106  OG1       19.7250    0.2920   13.8400 O.3   316  THR316     -0.2208
    107  CG2       22.0050    0.8110   13.1890 C.3   316  THR316      0.0379
    108  N         18.3690    3.2580   13.2460 N.am  317  GLY317     -0.1954
    109  CA        17.0410    3.8210   13.3490 C.3   317  GLY317      0.1869
    110  C         16.1480    2.9010   14.1790 C.2   317  GLY317      0.2309
    111  O         15.2990    3.3680   14.9350 O.2   317  GLY317     -0.2863
@<TRIPOS>BOND
     1    26    25    2
     2    25    24    1
     3    77    78    1
     4    77    74    1
     5    78    79    1
     6    24    27    1
     7    24    23    1
     8    27    28    1
     9    79    73    1
    10    76    75    2
    11    74    75    1
    12    74    73    1
    13    75    80   am
    14    82    83    2
    15    82    81    1
    16    80    81    1
    17    73    69   am
    18    28    30   ar
    19    28    29   ar
    20    21    20    1
    21    69    68    1
    22    69    70    2
    23    71    68    1
    24    71    72    1
    25    68    67    1
    26    20    17    1
    27    20    22    1
    28    18    19    2
    29    18    17    1
    30    17    16    1
    31    63    62    2
    32    67    62   am
    33    62    61    1
    34    95    94    1
    35    16     9   am
    36    56    58   ar
    37    56    55   ar
    38    53    52    2
    39    54    55    1
    40    54    51    1
    41    10     9    2
    42    65    64    1
    43    94    92   ar
    44    94    93   ar
    45     9     8    1
    46    58    59   ar
    47    55    57   ar
    48    52    60   am
    49    52    51    1
    50    61    60    1
    51    61    64    1
    52    92    90   ar
    53    50    51    1
    54    66    64    1
    55    93    91   ar
    56    11     8    1
    57    11    12    1
    58    59    57   ar
    59     8     7    1
    60    90    89   ar
    61    34    33    2
    62    91    89   ar
    63    33    32    1
    64    89    88    1
    65    12    13    1
    66    35    32    1
    67    35    36    1
    68    14    13    2
    69    13    15   am
    70    84    85    1
    71    86    87    2
    72    86    85    1
    73    32    31    1
    74    48    47    1
    75    85    88    1
    76    38    36   am
    77    36    37    2
    78    47    49    1
    79    47    46    2
    80    45    46    1
    81    45    44    1
    82   107   105    1
    83   108   109    1
    84   108   103   am
    85   105   106    1
    86   105   102    1
    87   109   110    1
    88    42    41    2
    89    43    44    1
    90    43    40    1
    91   110   111    2
    92   102   103    1
    93   102   101    1
    94   103   104    2
    95    39    40    1
    96    41    40    1
    97    99    98    2
    98   101    98   am
    99    98    97    1
   100     1     2    1
   101     6     5    1
   102     2     5    1
   103     2     3    1
   104     3     4    2
   105    97    96    1
   106    97   100    1
