@<TRIPOS>MOLECULE
tmp/4kz4B00.pdb
 126 118 0 0 0
SMALL
GASTEIGER

@<TRIPOS>ATOM
      1  N         78.2810   -1.4210   31.1730 N.3    60  GLY60      -0.1210
      2  CA        78.1760    0.0210   31.0220 C.3    60  GLY60       0.1956
      3  C         76.7800    0.4140   30.5590 C.2    60  GLY60       0.2612
      4  O         75.7710   -0.0750   31.0900 O.2    60  GLY60      -0.2717
      5  N         76.7010    1.2500   29.5260 N.am   61  SER61      -0.1952
      6  CA        75.4070    1.7660   29.0690 C.3    61  SER61       0.1924
      7  C         74.4780    0.7320   28.4660 C.2    61  SER61       0.2314
      8  O         73.2990    1.0080   28.2610 O.2    61  SER61      -0.2863
      9  CB        75.6010    2.8670   28.0480 C.3    61  SER61       0.2116
     10  OG        76.1220    4.0130   28.6610 O.3    61  SER61      -0.2180
     11  N         75.0550   14.5540   30.8000 N.3   116  LEU116     -0.1231
     12  CA        75.5660   13.2280   30.5350 C.3   116  LEU116      0.1693
     13  C         75.8290   12.4390   31.8190 C.2   116  LEU116      0.2591
     14  O         75.4360   11.2720   31.9260 O.2   116  LEU116     -0.2718
     15  CB        76.8440   13.3200   29.6680 C.3   116  LEU116      0.0284
     16  CG        77.5440   12.0030   29.3290 C.3   116  LEU116      0.0019
     17  CD1       76.5870   11.0520   28.6120 C.3   116  LEU116      0.0001
     18  CD2       78.8130   12.2720   28.4940 C.3   116  LEU116      0.0001
     19  N         76.5210   13.0620   32.7770 N.am  117  GLN117     -0.1979
     20  CA        76.7890   12.4010   34.0420 C.3   117  GLN117      0.1601
     21  C         76.1960   13.1850   35.1970 C.2   117  GLN117      0.2287
     22  O         76.1120   14.4110   35.1480 O.2   117  GLN117     -0.2864
     23  CB        78.2950   12.2360   34.2620 C.3   117  GLN117      0.0394
     24  CG        78.9820   11.2940   33.2840 C.3   117  GLN117      0.0908
     25  CD        78.7700    9.8230   33.6180 C.2   117  GLN117      0.2608
     26  OE1       77.7040    9.4210   34.0870 O.2   117  GLN117     -0.2717
     27  NE2       79.7950    9.0140   33.3830 N.am  117  GLN117     -0.0878
     28  N         71.8210   12.4400   25.1100 N.3   147  TYR147     -0.1241
     29  CA        72.1130   11.2240   25.8420 C.3   147  TYR147      0.1605
     30  C         72.6280   11.5260   27.2340 C.2   147  TYR147      0.2264
     31  O         73.5340   12.3310   27.3940 O.2   147  TYR147     -0.2867
     32  CB        73.1510   10.4330   25.0510 C.3   147  TYR147      0.0534
     33  CG        73.4310    9.0580   25.5800 C.ar  147  TYR147     -0.0201
     34  CD1       74.4580    8.8240   26.4800 C.ar  147  TYR147     -0.0009
     35  CD2       72.6640    7.9850   25.1780 C.ar  147  TYR147     -0.0009
     36  CE1       74.7270    7.5350   26.9350 C.ar  147  TYR147      0.0417
     37  CE2       72.9180    6.7330   25.6220 C.ar  147  TYR147      0.0417
     38  CZ        73.9520    6.5140   26.4860 C.ar  147  TYR147      0.1957
     39  OH        74.1960    5.2380   26.8970 O.3   147  TYR147     -0.2866
     40  N         73.0150    9.9340   31.4240 N.3   149  ASN149     -0.1240
     41  CA        72.8230    9.0670   32.5840 C.3   149  ASN149      0.1653
     42  C         71.9110    9.7000   33.6270 C.2   149  ASN149      0.2266
     43  O         71.1460    8.9980   34.2970 O.2   149  ASN149     -0.2867
     44  CB        74.1650    8.7370   33.2450 C.3   149  ASN149      0.1155
     45  CG        74.9830    7.7480   32.4540 C.2   149  ASN149      0.2627
     46  OD1       74.4610    7.0090   31.6200 O.2   149  ASN149     -0.2716
     47  ND2       76.2880    7.7120   32.7280 N.am  149  ASN149     -0.0877
     48  N         84.4980   -0.5830   37.6490 N.3   208  VAL208     -0.1245
     49  CA        83.6850    0.6200   37.7520 C.3   208  VAL208      0.1561
     50  C         83.5510    1.0700   39.2040 C.2   208  VAL208      0.2260
     51  O         83.4210    0.2410   40.1090 O.2   208  VAL208     -0.2867
     52  CB        82.2910    0.4160   37.0750 C.3   208  VAL208      0.0252
     53  CG1       81.4370   -0.6210   37.8180 C.3   208  VAL208      0.0019
     54  CG2       81.5360    1.7430   36.9350 C.3   208  VAL208      0.0019
     55  N         74.1300    2.4300   34.4840 N.3   218  TYR218     -0.1241
     56  CA        75.2780    1.6810   33.9610 C.3   218  TYR218      0.1605
     57  C         75.7560    0.5700   34.8750 C.2   218  TYR218      0.2264
     58  O         76.9290    0.1770   34.8240 O.2   218  TYR218     -0.2867
     59  CB        76.4350    2.6230   33.6420 C.3   218  TYR218      0.0534
     60  CG        76.8970    3.5050   34.7840 C.ar  218  TYR218     -0.0201
     61  CD1       77.8600    3.0720   35.6770 C.ar  218  TYR218     -0.0009
     62  CD2       76.3810    4.7910   34.9500 C.ar  218  TYR218     -0.0009
     63  CE1       78.2950    3.8910   36.7170 C.ar  218  TYR218      0.0417
     64  CE2       76.8090    5.6130   35.9820 C.ar  218  TYR218      0.0417
     65  CZ        77.7600    5.1530   36.8680 C.ar  218  TYR218      0.1957
     66  OH        78.1890    5.9610   37.8920 O.3   218  TYR218     -0.2866
     67  N         81.0270    8.7550   19.5350 N.3   286  ASN286     -0.1240
     68  CA        80.5560    9.6150   20.6060 C.3   286  ASN286      0.1653
     69  C         80.3840   11.0730   20.2190 C.2   286  ASN286      0.2266
     70  O         79.5710   11.7820   20.8160 O.2   286  ASN286     -0.2867
     71  CB        81.4570    9.4860   21.8440 C.3   286  ASN286      0.1155
     72  CG        81.2070    8.1950   22.5980 C.2   286  ASN286      0.2627
     73  OD1       80.1190    7.6260   22.5220 O.2   286  ASN286     -0.2716
     74  ND2       82.2060    7.7290   23.3290 N.am  286  ASN286     -0.0877
     75  N         76.6910   11.4040   21.5300 N.3   290  LEU290     -0.1245
     76  CA        76.5320   12.1710   22.7620 C.3   290  LEU290      0.1561
     77  C         76.1600   13.6310   22.5090 C.2   290  LEU290      0.2260
     78  O         76.0980   14.4320   23.4510 O.2   290  LEU290     -0.2867
     79  CB        77.8280   12.1140   23.5970 C.3   290  LEU290      0.0270
     80  CG        78.3400   10.7080   23.9400 C.3   290  LEU290      0.0019
     81  CD1       79.5870   10.7970   24.8250 C.3   290  LEU290      0.0001
     82  CD2       77.2670    9.9000   24.6580 C.3   290  LEU290      0.0001
     83  N         72.4850   -1.2870   21.0890 N.3   312  LYS312     -0.1231
     84  CA        72.9690   -0.3990   22.1420 C.3   312  LYS312      0.1693
     85  C         74.4610   -0.6180   22.3590 C.2   312  LYS312      0.2593
     86  O         74.9140   -1.7440   22.5160 O.2   312  LYS312     -0.2718
     87  CB        72.2200   -0.6350   23.4650 C.3   312  LYS312      0.0285
     88  CG        72.5710    0.3570   24.5560 C.3   312  LYS312      0.0035
     89  CD        71.9880    1.7320   24.2340 C.3   312  LYS312      0.0206
     90  CE        72.3990    2.7960   25.2500 C.3   312  LYS312      0.1093
     91  NZ        73.7880    3.2900   24.9090 N.3   312  LYS312     -0.1314
     92  N         75.2180    0.4670   22.3340 N.am  313  THR313     -0.1939
     93  CA        76.6200    0.4370   22.7480 C.3   313  THR313      0.2028
     94  C         76.7170    0.7090   24.2550 C.2   313  THR313      0.2643
     95  O         75.8370    1.3550   24.8550 O.2   313  THR313     -0.2714
     96  CB        77.4410    1.5390   22.0430 C.3   313  THR313      0.1808
     97  OG1       76.8240    2.8160   22.2620 O.3   313  THR313     -0.2208
     98  CG2       77.5360    1.2940   20.5520 C.3   313  THR313      0.0379
     99  N         77.8010    0.2500   24.8740 N.am  314  GLY314     -0.1939
    100  CA        78.0370    0.6000   26.2630 C.3   314  GLY314      0.2014
    101  C         79.4970    0.4640   26.6370 C.2   314  GLY314      0.2639
    102  O         80.1910   -0.4190   26.1170 O.2   314  GLY314     -0.2714
    103  N         79.9520    1.2880   27.5710 N.am  315  ALA315     -0.1963
    104  CA        81.3450    1.2280   28.0120 C.3   315  ALA315      0.1728
    105  C         81.4570    1.6330   29.4600 C.2   315  ALA315      0.2617
    106  O         80.5930    2.3400   29.9870 O.2   315  ALA315     -0.2715
    107  CB        82.2240    2.1280   27.1670 C.3   315  ALA315      0.0334
    108  N         82.5060    1.1500   30.1070 N.am  316  THR316     -0.1937
    109  CA        82.9490    1.7320   31.3660 C.3   316  THR316      0.2028
    110  C         84.4100    2.0640   31.1650 C.2   316  THR316      0.2642
    111  O         84.9260    1.9660   30.0470 O.2   316  THR316     -0.2714
    112  CB        82.7860    0.7730   32.5640 C.3   316  THR316      0.1808
    113  OG1       83.5490   -0.4130   32.3310 O.3   316  THR316     -0.2208
    114  CG2       81.3070    0.4020   32.7790 C.3   316  THR316      0.0379
    115  N         85.0950    2.4780   32.2220 N.am  317  GLY317     -0.1954
    116  CA        86.4970    2.8180   32.0780 C.3   317  GLY317      0.1869
    117  C         87.3170    1.6900   31.4840 C.2   317  GLY317      0.2309
    118  O         88.2130    1.9310   30.6720 O.2   317  GLY317     -0.2863
    119  N         83.5480    2.8280   19.6640 N.3   343  ASN343     -0.1240
    120  CA        82.2360    2.3410   19.2210 C.3   343  ASN343      0.1653
    121  C         82.1650    1.9520   17.7450 C.2   343  ASN343      0.2266
    122  O         81.5990    0.9240   17.4290 O.2   343  ASN343     -0.2867
    123  CB        81.1230    3.3680   19.5050 C.3   343  ASN343      0.1155
    124  CG        80.8300    3.5310   20.9750 C.2   343  ASN343      0.2627
    125  OD1       80.9030    2.5800   21.7550 O.2   343  ASN343     -0.2716
    126  ND2       80.4680    4.7440   21.3560 N.am  343  ASN343     -0.0877
@<TRIPOS>BOND
     1   122   121    2
     2   121   120    1
     3   120   123    1
     4   120   119    1
     5   123   124    1
     6    67    68    1
     7    69    68    1
     8    69    70    2
     9    98    96    1
    10    68    71    1
    11   124   126   am
    12   124   125    2
    13    83    84    1
    14    75    76    1
    15    71    72    1
    16    96    97    1
    17    96    93    1
    18    84    85    1
    19    84    87    1
    20    92    85   am
    21    92    93    1
    22    85    86    2
    23    77    76    1
    24    77    78    2
    25    73    72    2
    26    72    74   am
    27    93    94    1
    28    76    79    1
    29    87    88    1
    30    79    80    1
    31    80    82    1
    32    80    81    1
    33    89    88    1
    34    89    90    1
    35    94    95    2
    36    94    99   am
    37    99   100    1
    38    91    90    1
    39    32    33    1
    40    32    29    1
    41    28    29    1
    42    35    33   ar
    43    35    37   ar
    44    33    34   ar
    45    37    38   ar
    46    29    30    1
    47   102   101    2
    48   100   101    1
    49    34    36   ar
    50    38    39    1
    51    38    36   ar
    52   101   103   am
    53   107   104    1
    54    30    31    2
    55   103   104    1
    56   104   105    1
    57     9    10    1
    58     9     6    1
    59     8     7    2
    60     7     6    1
    61    18    16    1
    62    17    16    1
    63     6     5    1
    64    16    15    1
    65   105   106    2
    66   105   108   am
    67     5     3   am
    68    15    12    1
    69   111   110    2
    70   108   109    1
    71    12    11    1
    72    12    13    1
    73     3     2    1
    74     3     4    2
    75   118   117    2
    76     2     1    1
    77   110   109    1
    78   110   115   am
    79   109   112    1
    80    40    41    1
    81   117   116    1
    82    46    45    2
    83    13    14    2
    84    13    19   am
    85   116   115    1
    86   113   112    1
    87    45    47   am
    88    45    44    1
    89   112   114    1
    90    41    44    1
    91    41    42    1
    92    19    20    1
    93    24    25    1
    94    24    23    1
    95    27    25   am
    96    25    26    2
    97    42    43    2
    98    59    56    1
    99    59    60    1
   100    56    55    1
   101    56    57    1
   102    20    23    1
   103    20    21    1
   104    60    62   ar
   105    60    61   ar
   106    58    57    2
   107    62    64   ar
   108    22    21    2
   109    61    63   ar
   110    64    65   ar
   111    63    65   ar
   112    65    66    1
   113    54    52    1
   114    52    49    1
   115    52    53    1
   116    48    49    1
   117    49    50    1
   118    50    51    2
