@<TRIPOS>MOLECULE
tmp/4kz5B00.pdb
 121 111 0 0 0
SMALL
GASTEIGER

@<TRIPOS>ATOM
      1  N         76.3580    1.0880   29.4050 N.3    61  SER61      -0.1217
      2  CA        75.0550    1.5970   28.9830 C.3    61  SER61       0.1889
      3  C         74.0980    0.6090   28.3300 C.2    61  SER61       0.2288
      4  O         72.9240    0.9370   28.1380 O.2    61  SER61      -0.2866
      5  CB        75.2030    2.7810   28.0600 C.3    61  SER61       0.2089
      6  OG        75.7180    3.8820   28.7570 O.3    61  SER61      -0.2183
      7  N         74.9840   14.3730   30.6920 N.3   116  LEU116     -0.1231
      8  CA        75.4550   13.0210   30.4780 C.3   116  LEU116      0.1693
      9  C         75.6070   12.2610   31.7900 C.2   116  LEU116      0.2591
     10  O         75.1180   11.1530   31.9130 O.2   116  LEU116     -0.2718
     11  CB        76.7510   13.0130   29.6330 C.3   116  LEU116      0.0284
     12  CG        77.3220   11.6110   29.3910 C.3   116  LEU116      0.0019
     13  CD1       76.3390   10.7330   28.5980 C.3   116  LEU116      0.0001
     14  CD2       78.6680   11.7100   28.7100 C.3   116  LEU116      0.0001
     15  N         76.3020   12.8520   32.7550 N.am  117  GLN117     -0.1979
     16  CA        76.4700   12.2490   34.0600 C.3   117  GLN117      0.1601
     17  C         75.8860   13.1120   35.1540 C.2   117  GLN117      0.2287
     18  O         75.9180   14.3440   35.0910 O.2   117  GLN117     -0.2864
     19  CB        77.9560   12.0920   34.3710 C.3   117  GLN117      0.0394
     20  CG        78.5520   10.8120   33.8360 C.3   117  GLN117      0.0908
     21  CD        78.0880    9.5870   34.6240 C.2   117  GLN117      0.2608
     22  OE1       76.9430    9.1440   34.4890 O.2   117  GLN117     -0.2717
     23  NE2       78.9750    9.0480   35.4660 N.am  117  GLN117     -0.0878
     24  N         71.5460   12.3750   24.9230 N.3   147  TYR147     -0.1241
     25  CA        71.8090   11.1480   25.6680 C.3   147  TYR147      0.1605
     26  C         72.3470   11.4580   27.0530 C.2   147  TYR147      0.2264
     27  O         73.2850   12.2300   27.2190 O.2   147  TYR147     -0.2867
     28  CB        72.8030   10.3040   24.8970 C.3   147  TYR147      0.0534
     29  CG        73.0610    8.9430   25.4510 C.ar  147  TYR147     -0.0201
     30  CD1       74.1300    8.7070   26.3140 C.ar  147  TYR147     -0.0009
     31  CD2       72.2590    7.8620   25.0990 C.ar  147  TYR147     -0.0009
     32  CE1       74.3960    7.4420   26.7830 C.ar  147  TYR147      0.0417
     33  CE2       72.5320    6.6090   25.5630 C.ar  147  TYR147      0.0417
     34  CZ        73.6190    6.3990   26.3680 C.ar  147  TYR147      0.1957
     35  OH        73.8830    5.1580   26.8160 O.3   147  TYR147     -0.2866
     36  N         72.7640    9.8290   31.2380 N.3   149  ASN149     -0.1240
     37  CA        72.5590    8.9250   32.3650 C.3   149  ASN149      0.1653
     38  C         71.6720    9.5640   33.4350 C.2   149  ASN149      0.2266
     39  O         70.9110    8.8670   34.1180 O.2   149  ASN149     -0.2867
     40  CB        73.9140    8.5690   32.9930 C.3   149  ASN149      0.1155
     41  CG        74.7610    7.7040   32.0900 C.2   149  ASN149      0.2627
     42  OD1       74.2450    6.9450   31.2920 O.2   149  ASN149     -0.2716
     43  ND2       76.0670    7.7930   32.2510 N.am  149  ASN149     -0.0877
     44  N         91.9670   -0.5070   31.3510 N.3   201  ARG201     -0.1245
     45  CA        91.9970    0.8560   30.8740 C.3   201  ARG201      0.1563
     46  C         93.4280    1.3310   31.0240 C.2   201  ARG201      0.2260
     47  O         93.9550    1.3810   32.1390 O.2   201  ARG201     -0.2867
     48  CB        91.0320    1.7220   31.6750 C.3   201  ARG201      0.0307
     49  CG        90.9770    3.1490   31.1840 C.3   201  ARG201      0.0489
     50  CD        90.1940    4.0150   32.1280 C.3   201  ARG201      0.2205
     51  NE        90.1470    5.3940   31.6660 N.pl3 201  ARG201     -0.0865
     52  CZ        91.0880    6.2960   31.9180 C.cat 201  ARG201      0.5346
     53  NH1       92.1660    5.9610   32.6190 N.pl3 201  ARG201      0.1354
     54  NH2       90.9570    7.5310   31.4560 N.pl3 201  ARG201      0.1354
     55  N         84.0130   -0.7680   37.4690 N.3   208  VAL208     -0.1245
     56  CA        83.2720    0.4770   37.5310 C.3   208  VAL208      0.1561
     57  C         83.1040    0.9630   38.9840 C.2   208  VAL208      0.2260
     58  O         82.9060    0.1570   39.8980 O.2   208  VAL208     -0.2867
     59  CB        81.9000    0.2890   36.8540 C.3   208  VAL208      0.0252
     60  CG1       81.0080   -0.7040   37.6250 C.3   208  VAL208      0.0019
     61  CG2       81.2110    1.6190   36.6550 C.3   208  VAL208      0.0019
     62  N         73.9630    2.3250   34.1420 N.3   218  TYR218     -0.1241
     63  CA        75.1290    1.6390   33.6040 C.3   218  TYR218      0.1605
     64  C         75.6490    0.5080   34.4460 C.2   218  TYR218      0.2264
     65  O         76.8080    0.0830   34.2670 O.2   218  TYR218     -0.2867
     66  CB        76.2640    2.6280   33.3020 C.3   218  TYR218      0.0534
     67  CG        76.6780    3.5040   34.4680 C.ar  218  TYR218     -0.0201
     68  CD1       77.5790    3.0560   35.4250 C.ar  218  TYR218     -0.0009
     69  CD2       76.2100    4.8050   34.5780 C.ar  218  TYR218     -0.0009
     70  CE1       77.9770    3.8820   36.4830 C.ar  218  TYR218      0.0417
     71  CE2       76.5960    5.6340   35.6270 C.ar  218  TYR218      0.0417
     72  CZ        77.4850    5.1600   36.5740 C.ar  218  TYR218      0.1957
     73  OH        77.8780    5.9720   37.6250 O.3   218  TYR218     -0.2866
     74  N         80.8040    8.6310   19.4740 N.3   286  ASN286     -0.1240
     75  CA        80.3020    9.5060   20.5310 C.3   286  ASN286      0.1653
     76  C         80.1530   10.9680   20.1320 C.2   286  ASN286      0.2266
     77  O         79.3340   11.6800   20.7140 O.2   286  ASN286     -0.2867
     78  CB        81.1310    9.3600   21.8030 C.3   286  ASN286      0.1155
     79  CG        80.8420    8.0670   22.5200 C.2   286  ASN286      0.2627
     80  OD1       79.7790    7.4830   22.3380 O.2   286  ASN286     -0.2716
     81  ND2       81.7750    7.6140   23.3350 N.am  286  ASN286     -0.0877
     82  N         76.4370   11.3660   21.4200 N.3   290  LEU290     -0.1245
     83  CA        76.2780   12.1200   22.6600 C.3   290  LEU290      0.1561
     84  C         75.9140   13.5850   22.3980 C.2   290  LEU290      0.2260
     85  O         75.8170   14.3670   23.3290 O.2   290  LEU290     -0.2867
     86  CB        77.5820   12.0410   23.4750 C.3   290  LEU290      0.0270
     87  CG        78.0260   10.6250   23.8520 C.3   290  LEU290      0.0019
     88  CD1       79.2830   10.6780   24.7310 C.3   290  LEU290      0.0001
     89  CD2       76.8870    9.8390   24.5300 C.3   290  LEU290      0.0001
     90  N         79.4240    1.1940   27.5050 N.3   315  ALA315     -0.1231
     91  CA        80.8120    1.2930   27.9410 C.3   315  ALA315      0.1694
     92  C         80.9030    1.5950   29.4080 C.2   315  ALA315      0.2593
     93  O         80.0320    2.2560   29.9650 O.2   315  ALA315     -0.2718
     94  CB        81.5500    2.3710   27.1630 C.3   315  ALA315      0.0304
     95  N         81.9730    1.0950   30.0170 N.am  316  THR316     -0.1939
     96  CA        82.4560    1.6320   31.2850 C.3   316  THR316      0.2028
     97  C         83.9220    1.9410   31.0480 C.2   316  THR316      0.2642
     98  O         84.4170    1.8230   29.9190 O.2   316  THR316     -0.2714
     99  CB        82.3240    0.6450   32.4410 C.3   316  THR316      0.1808
    100  OG1       83.0980   -0.5290   32.1710 O.3   316  THR316     -0.2208
    101  CG2       80.8580    0.2680   32.6740 C.3   316  THR316      0.0379
    102  N         84.6430    2.3360   32.0870 N.am  317  GLY317     -0.1954
    103  CA        86.0390    2.6820   31.9090 C.3   317  GLY317      0.1869
    104  C         86.8450    1.5430   31.3300 C.2   317  GLY317      0.2309
    105  O         87.7560    1.7730   30.5260 O.2   317  GLY317     -0.2863
    106  N         87.2950   -0.8580   26.6900 N.3   340  ASN340     -0.1240
    107  CA        86.4430    0.1360   26.0050 C.3   340  ASN340      0.1653
    108  C         87.0640    0.6410   24.6950 C.2   340  ASN340      0.2266
    109  O         87.8260    1.6140   24.6640 O.2   340  ASN340     -0.2867
    110  CB        86.1460    1.3180   26.9340 C.3   340  ASN340      0.1155
    111  CG        85.2930    2.3920   26.2760 C.2   340  ASN340      0.2627
    112  OD1       84.6210    2.1490   25.2800 O.2   340  ASN340     -0.2716
    113  ND2       85.2960    3.5770   26.8440 N.am  340  ASN340     -0.0877
    114  N         83.2350    2.7140   19.5010 N.3   343  ASN343     -0.1240
    115  CA        81.9340    2.2540   19.0400 C.3   343  ASN343      0.1653
    116  C         81.8520    1.8780   17.5680 C.2   343  ASN343      0.2266
    117  O         81.2730    0.8500   17.2520 O.2   343  ASN343     -0.2867
    118  CB        80.8140    3.2640   19.3510 C.3   343  ASN343      0.1155
    119  CG        80.4940    3.3600   20.8080 C.2   343  ASN343      0.2627
    120  OD1       80.5710    2.3720   21.5300 O.2   343  ASN343     -0.2716
    121  ND2       80.0940    4.5520   21.2450 N.am  343  ASN343     -0.0877
@<TRIPOS>BOND
     1   117   116    2
     2   116   115    1
     3   115   118    1
     4   115   114    1
     5   118   119    1
     6    74    75    1
     7    76    75    1
     8    76    77    2
     9    75    78    1
    10   119   121   am
    11   119   120    2
    12    82    83    1
    13    78    79    1
    14    80    79    2
    15    84    83    1
    16    84    85    2
    17    79    81   am
    18    83    86    1
    19    86    87    1
    20    87    89    1
    21    87    88    1
    22   109   108    2
    23   108   107    1
    24    28    29    1
    25    28    25    1
    26    24    25    1
    27    31    29   ar
    28    31    33   ar
    29   112   111    2
    30    29    30   ar
    31    33    34   ar
    32    25    26    1
    33   107   106    1
    34   107   110    1
    35   111   113   am
    36   111   110    1
    37    30    32   ar
    38    34    32   ar
    39    34    35    1
    40    26    27    2
    41    94    91    1
    42    90    91    1
    43    91    92    1
    44     5     6    1
    45     5     2    1
    46     4     3    2
    47     3     2    1
    48    13    12    1
    49    14    12    1
    50     2     1    1
    51    12    11    1
    52    92    93    2
    53    92    95   am
    54    11     8    1
    55    98    97    2
    56    95    96    1
    57     8     7    1
    58     8     9    1
    59   105   104    2
    60    45    46    1
    61    45    44    1
    62    45    48    1
    63    46    47    2
    64    97    96    1
    65    97   102   am
    66    49    48    1
    67    49    50    1
    68    36    37    1
    69    96    99    1
    70    42    41    2
    71   104   103    1
    72    54    52    1
    73    51    52    2
    74    51    50    1
    75     9    10    2
    76     9    15   am
    77   103   102    1
    78    52    53    1
    79    41    43   am
    80    41    40    1
    81   100    99    1
    82    37    40    1
    83    37    38    1
    84    99   101    1
    85    15    16    1
    86    66    63    1
    87    66    67    1
    88    38    39    2
    89    63    62    1
    90    63    64    1
    91    20    19    1
    92    20    21    1
    93    16    19    1
    94    16    17    1
    95    65    64    2
    96    67    69   ar
    97    67    68   ar
    98    22    21    2
    99    69    71   ar
   100    21    23   am
   101    18    17    2
   102    68    70   ar
   103    71    72   ar
   104    70    72   ar
   105    72    73    1
   106    61    59    1
   107    59    56    1
   108    59    60    1
   109    55    56    1
   110    56    57    1
   111    57    58    2
