@<TRIPOS>MOLECULE
tmp/4kz6B00.pdb
 121 112 0 0 0
SMALL
GASTEIGER

@<TRIPOS>ATOM
      1  N         76.3470    1.5360   29.4510 N.3    61  SER61      -0.1217
      2  CA        75.0390    2.0480   29.0130 C.3    61  SER61       0.1889
      3  C         74.1050    1.0480   28.3300 C.2    61  SER61       0.2288
      4  O         72.9270    1.3550   28.0920 O.2    61  SER61      -0.2866
      5  CB        75.1900    3.2580   28.1020 C.3    61  SER61       0.2089
      6  OG        75.7300    4.3480   28.8190 O.3    61  SER61      -0.2183
      7  N         74.5990   14.9040   30.5820 N.3   116  LEU116     -0.1231
      8  CA        75.0870   13.5570   30.3320 C.3   116  LEU116      0.1693
      9  C         75.3520   12.7870   31.6160 C.2   116  LEU116      0.2591
     10  O         74.9490   11.6270   31.7680 O.2   116  LEU116     -0.2718
     11  CB        76.4060   13.6480   29.5500 C.3   116  LEU116      0.0284
     12  CG        77.1010   12.3330   29.1730 C.3   116  LEU116      0.0019
     13  CD1       76.1510   11.3540   28.4420 C.3   116  LEU116      0.0001
     14  CD2       78.3390   12.5950   28.3240 C.3   116  LEU116      0.0001
     15  N         76.0750   13.4260   32.5420 N.am  117  GLN117     -0.1979
     16  CA        76.3130   12.7970   33.8310 C.3   117  GLN117      0.1601
     17  C         75.6540   13.5520   34.9660 C.2   117  GLN117      0.2287
     18  O         75.5360   14.7790   34.9250 O.2   117  GLN117     -0.2864
     19  CB        77.8130   12.7540   34.1620 C.3   117  GLN117      0.0394
     20  CG        78.6790   12.1340   33.1070 C.3   117  GLN117      0.0908
     21  CD        78.3950   10.6740   32.8620 C.2   117  GLN117      0.2608
     22  OE1       77.7450    9.9810   33.6600 O.2   117  GLN117     -0.2717
     23  NE2       78.8800   10.1860   31.7280 N.am  117  GLN117     -0.0878
     24  N         71.3410   12.7520   24.8460 N.3   147  TYR147     -0.1241
     25  CA        71.5980   11.5120   25.5880 C.3   147  TYR147      0.1605
     26  C         72.1280   11.8430   26.9750 C.2   147  TYR147      0.2264
     27  O         73.0260   12.6860   27.1160 O.2   147  TYR147     -0.2867
     28  CB        72.6200   10.6910   24.8060 C.3   147  TYR147      0.0534
     29  CG        72.8910    9.3340   25.3900 C.ar  147  TYR147     -0.0201
     30  CD1       73.9230    9.1260   26.2770 C.ar  147  TYR147     -0.0009
     31  CD2       72.1240    8.2270   25.0200 C.ar  147  TYR147     -0.0009
     32  CE1       74.1620    7.8490   26.8170 C.ar  147  TYR147      0.0417
     33  CE2       72.3700    6.9640   25.5520 C.ar  147  TYR147      0.0417
     34  CZ        73.4120    6.7880   26.4200 C.ar  147  TYR147      0.1957
     35  OH        73.6420    5.5420   26.9050 O.3   147  TYR147     -0.2866
     36  N         72.5660   10.2580   31.2040 N.3   149  ASN149     -0.1240
     37  CA        72.3820    9.3820   32.3630 C.3   149  ASN149      0.1653
     38  C         71.4490    9.9980   33.3980 C.2   149  ASN149      0.2266
     39  O         70.6560    9.2850   34.0290 O.2   149  ASN149     -0.2867
     40  CB        73.7310    9.0840   33.0170 C.3   149  ASN149      0.1155
     41  CG        74.5900    8.1580   32.1950 C.2   149  ASN149      0.2627
     42  OD1       74.1030    7.4370   31.3250 O.2   149  ASN149     -0.2716
     43  ND2       75.9030    8.1590   32.4770 N.am  149  ASN149     -0.0877
     44  N         83.9600   -0.2680   37.5450 N.3   208  VAL208     -0.1245
     45  CA        83.1880    0.9580   37.5680 C.3   208  VAL208      0.1561
     46  C         83.0490    1.4460   39.0240 C.2   208  VAL208      0.2260
     47  O         83.0080    0.6250   39.9410 O.2   208  VAL208     -0.2867
     48  CB        81.7940    0.7130   36.8970 C.3   208  VAL208      0.0252
     49  CG1       80.9870   -0.3290   37.6730 C.3   208  VAL208      0.0019
     50  CG2       81.0210    2.0100   36.6940 C.3   208  VAL208      0.0019
     51  N         73.7930    2.7470   34.1230 N.3   218  TYR218     -0.1241
     52  CA        74.9740    2.0570   33.5710 C.3   218  TYR218      0.1605
     53  C         75.5300    0.9310   34.4420 C.2   218  TYR218      0.2264
     54  O         76.6980    0.5320   34.2780 O.2   218  TYR218     -0.2867
     55  CB        76.1060    3.0540   33.2590 C.3   218  TYR218      0.0534
     56  CG        76.5190    3.9200   34.4420 C.ar  218  TYR218     -0.0201
     57  CD1       77.3940    3.4410   35.4040 C.ar  218  TYR218     -0.0009
     58  CD2       76.0520    5.2200   34.5720 C.ar  218  TYR218     -0.0009
     59  CE1       77.7820    4.2360   36.4640 C.ar  218  TYR218      0.0417
     60  CE2       76.4220    6.0240   35.6520 C.ar  218  TYR218      0.0417
     61  CZ        77.2880    5.5220   36.5900 C.ar  218  TYR218      0.1957
     62  OH        77.6830    6.3120   37.6540 O.3   218  TYR218     -0.2866
     63  N         80.5640    9.1070   19.4610 N.3   286  ASN286     -0.1240
     64  CA        80.0970   10.0270   20.5150 C.3   286  ASN286      0.1653
     65  C         79.9260   11.4910   20.0710 C.2   286  ASN286      0.2266
     66  O         79.1040   12.2200   20.6200 O.2   286  ASN286     -0.2867
     67  CB        80.9790    9.9520   21.7650 C.3   286  ASN286      0.1155
     68  CG        80.8430    8.6340   22.4970 C.2   286  ASN286      0.2627
     69  OD1       79.8340    7.9570   22.3980 O.2   286  ASN286     -0.2716
     70  ND2       81.8880    8.2500   23.2070 N.am  286  ASN286     -0.0877
     71  N         76.2440   11.7090   21.3490 N.3   290  LEU290     -0.1245
     72  CA        76.0320   12.5130   22.5720 C.3   290  LEU290      0.1561
     73  C         75.6540   13.9760   22.3200 C.2   290  LEU290      0.2260
     74  O         75.6030   14.7900   23.2650 O.2   290  LEU290     -0.2867
     75  CB        77.2880   12.4580   23.4440 C.3   290  LEU290      0.0270
     76  CG        77.7360   11.0580   23.8630 C.3   290  LEU290      0.0019
     77  CD1       78.9920   11.1680   24.7340 C.3   290  LEU290      0.0001
     78  CD2       76.6330   10.2920   24.5460 C.3   290  LEU290      0.0001
     79  N         74.8070    0.8490   22.2250 N.3   313  THR313     -0.1203
     80  CA        76.2170    0.8320   22.6250 C.3   313  THR313      0.1994
     81  C         76.2990    1.1020   24.1330 C.2   313  THR313      0.2618
     82  O         75.4380    1.7540   24.7010 O.2   313  THR313     -0.2717
     83  CB        77.0200    1.9290   21.9280 C.3   313  THR313      0.1784
     84  OG1       76.4450    3.2070   22.1990 O.3   313  THR313     -0.2211
     85  CG2       77.0490    1.7240   20.4370 C.3   313  THR313      0.0376
     86  N         77.3390    0.6270   24.7910 N.am  314  GLY314     -0.1942
     87  CA        77.4910    1.0180   26.1820 C.3   314  GLY314      0.2014
     88  C         78.9270    0.8640   26.5830 C.2   314  GLY314      0.2639
     89  O         79.6110    0.0060   26.0450 O.2   314  GLY314     -0.2714
     90  N         79.3880    1.6680   27.5270 N.am  315  ALA315     -0.1963
     91  CA        80.7600    1.5220   27.9790 C.3   315  ALA315      0.1728
     92  C         80.8550    1.9300   29.4190 C.2   315  ALA315      0.2617
     93  O         80.0150    2.6670   29.9160 O.2   315  ALA315     -0.2715
     94  CB        81.6940    2.3750   27.1450 C.3   315  ALA315      0.0334
     95  N         81.8880    1.4490   30.0760 N.am  316  THR316     -0.1937
     96  CA        82.3480    2.0780   31.3110 C.3   316  THR316      0.2028
     97  C         83.8040    2.4840   31.0920 C.2   316  THR316      0.2642
     98  O         84.3280    2.4140   29.9580 O.2   316  THR316     -0.2714
     99  CB        82.2680    1.1220   32.4920 C.3   316  THR316      0.1808
    100  OG1       83.0690   -0.0340   32.2060 O.3   316  THR316     -0.2208
    101  CG2       80.8420    0.6990   32.7270 C.3   316  THR316      0.0379
    102  N         84.4830    2.8880   32.1610 N.am  317  GLY317     -0.1954
    103  CA        85.8690    3.2770   32.0270 C.3   317  GLY317      0.1869
    104  C         86.7320    2.1670   31.4480 C.2   317  GLY317      0.2309
    105  O         87.6620    2.4380   30.6770 O.2   317  GLY317     -0.2863
    106  N         87.3090   -0.2410   26.7970 N.3   340  ASN340     -0.1240
    107  CA        86.4460    0.7220   26.1350 C.3   340  ASN340      0.1653
    108  C         87.0730    1.2000   24.8130 C.2   340  ASN340      0.2266
    109  O         87.9070    2.1270   24.8000 O.2   340  ASN340     -0.2867
    110  CB        86.2170    1.9230   27.0480 C.3   340  ASN340      0.1155
    111  CG        85.3280    2.9740   26.4240 C.2   340  ASN340      0.2627
    112  OD1       84.8220    2.8030   25.3200 O.2   340  ASN340     -0.2716
    113  ND2       85.1060    4.0570   27.1420 N.am  340  ASN340     -0.0877
    114  N         83.0520    3.2470   19.6230 N.3   343  ASN343     -0.1240
    115  CA        81.7670    2.7230   19.1620 C.3   343  ASN343      0.1653
    116  C         81.7630    2.3460   17.6680 C.2   343  ASN343      0.2266
    117  O         81.2040    1.3160   17.3040 O.2   343  ASN343     -0.2867
    118  CB        80.6200    3.7080   19.4220 C.3   343  ASN343      0.1155
    119  CG        80.2980    3.8690   20.9040 C.2   343  ASN343      0.2627
    120  OD1       80.4080    2.9200   21.6850 O.2   343  ASN343     -0.2716
    121  ND2       79.8780    5.0640   21.2840 N.am  343  ASN343     -0.0877
@<TRIPOS>BOND
     1   117   116    2
     2   116   115    1
     3   115   118    1
     4   115   114    1
     5   118   119    1
     6    63    64    1
     7    65    64    1
     8    65    66    2
     9    85    83    1
    10    64    67    1
    11   119   121   am
    12   119   120    2
    13    71    72    1
    14    67    68    1
    15    83    84    1
    16    83    80    1
    17    79    80    1
    18    73    72    1
    19    73    74    2
    20    69    68    2
    21    68    70   am
    22    72    75    1
    23    80    81    1
    24    75    76    1
    25    76    78    1
    26    76    77    1
    27    81    82    2
    28    81    86   am
    29    86    87    1
    30   109   108    2
    31    28    29    1
    32    28    25    1
    33   108   107    1
    34    24    25    1
    35    31    29   ar
    36    31    33   ar
    37   112   111    2
    38    29    30   ar
    39    33    34   ar
    40    25    26    1
    41    89    88    2
    42   107   106    1
    43   107   110    1
    44    87    88    1
    45    30    32   ar
    46    34    32   ar
    47    34    35    1
    48   111   110    1
    49   111   113   am
    50    88    90   am
    51    26    27    2
    52    94    91    1
    53    90    91    1
    54    91    92    1
    55     4     3    2
    56     5     6    1
    57     5     2    1
    58    14    12    1
    59     3     2    1
    60    13    12    1
    61     2     1    1
    62    12    11    1
    63    92    93    2
    64    92    95   am
    65    11     8    1
    66    98    97    2
    67    95    96    1
    68     8     7    1
    69     8     9    1
    70   105   104    2
    71    97    96    1
    72    97   102   am
    73    36    37    1
    74    96    99    1
    75    42    41    2
    76   104   103    1
    77     9    10    2
    78     9    15   am
    79    23    21   am
    80   103   102    1
    81    41    43   am
    82    41    40    1
    83   100    99    1
    84    37    40    1
    85    37    38    1
    86    99   101    1
    87    15    16    1
    88    21    20    1
    89    21    22    2
    90    20    19    1
    91    55    52    1
    92    55    56    1
    93    38    39    2
    94    52    51    1
    95    52    53    1
    96    16    19    1
    97    16    17    1
    98    54    53    2
    99    56    58   ar
   100    56    57   ar
   101    58    60   ar
   102    18    17    2
   103    57    59   ar
   104    60    61   ar
   105    59    61   ar
   106    61    62    1
   107    50    48    1
   108    48    45    1
   109    48    49    1
   110    44    45    1
   111    45    46    1
   112    46    47    2
