@<TRIPOS>MOLECULE
tmp/4kz7A00.pdb
 110 102 0 0 0
SMALL
GASTEIGER

@<TRIPOS>ATOM
      1  N         26.6980    1.4630   16.0800 N.3    61  SER61      -0.1217
      2  CA        28.0660    1.9110   16.3690 C.3    61  SER61       0.1889
      3  C         28.9210    0.9830   17.2260 C.2    61  SER61       0.2288
      4  O         30.1110    1.2280   17.3520 O.2    61  SER61      -0.2866
      5  CB        28.0460    3.3060   16.9570 C.3    61  SER61       0.2089
      6  OG        27.5320    4.2310   16.0240 O.3    61  SER61      -0.2183
      7  N         29.4010   14.2190   12.6060 N.3   116  LEU116     -0.1231
      8  CA        28.8350   12.9560   13.0790 C.3   116  LEU116      0.1693
      9  C         28.4560   12.0210   11.9340 C.2   116  LEU116      0.2591
     10  O         28.7760   10.8350   11.9700 O.2   116  LEU116     -0.2718
     11  CB        27.6210   13.2490   13.9690 C.3   116  LEU116      0.0284
     12  CG        26.8650   12.0250   14.5090 C.3   116  LEU116      0.0019
     13  CD1       27.7880   11.1380   15.3540 C.3   116  LEU116      0.0001
     14  CD2       25.6040   12.4760   15.2950 C.3   116  LEU116      0.0001
     15  N         27.7510   12.5600   10.9450 N.am  117  GLN117     -0.1979
     16  CA        27.2980   11.7710    9.8090 C.3   117  GLN117      0.1601
     17  C         27.9310   12.2190    8.5020 C.2   117  GLN117      0.2287
     18  O         28.1490   13.4200    8.2540 O.2   117  GLN117     -0.2864
     19  CB        25.7700   11.8310    9.6730 C.3   117  GLN117      0.0394
     20  CG        25.0240   11.0830   10.7580 C.3   117  GLN117      0.0908
     21  CD        23.5350   11.0240   10.5010 C.2   117  GLN117      0.2608
     22  OE1       22.8200   12.0070   10.6970 O.2   117  GLN117     -0.2717
     23  NE2       23.0560    9.8640   10.0650 N.am  117  GLN117     -0.0878
     24  N         32.6180   12.9870   18.4670 N.3   147  TYR147     -0.1241
     25  CA        32.3200   11.6440   18.0000 C.3   147  TYR147      0.1605
     26  C         31.7550   11.7220   16.5920 C.2   147  TYR147      0.2264
     27  O         30.8580   12.5280   16.3320 O.2   147  TYR147     -0.2867
     28  CB        31.2830   11.0360   18.9480 C.3   147  TYR147      0.0534
     29  CG        30.9080    9.5860   18.6550 C.ar  147  TYR147     -0.0201
     30  CD1       29.8470    9.2920   17.8130 C.ar  147  TYR147     -0.0009
     31  CD2       31.6280    8.5300   19.2090 C.ar  147  TYR147     -0.0009
     32  CE1       29.4850    7.9600   17.5420 C.ar  147  TYR147      0.0417
     33  CE2       31.2760    7.1920   18.9320 C.ar  147  TYR147      0.0417
     34  CZ        30.1940    6.9350   18.1050 C.ar  147  TYR147      0.1957
     35  OH        29.8020    5.6540   17.8540 O.3   147  TYR147     -0.2866
     36  N         31.0480    9.4310   12.6990 N.3   149  ASN149     -0.1240
     37  CA        31.1850    8.3300   11.7530 C.3   149  ASN149      0.1653
     38  C         32.1430    8.6970   10.6240 C.2   149  ASN149      0.2266
     39  O         32.8250    7.8220   10.0790 O.2   149  ASN149     -0.2867
     40  CB        29.8450    8.0110   11.0720 C.3   149  ASN149      0.1155
     41  CG        28.8340    7.4430   11.9990 C.2   149  ASN149      0.2627
     42  OD1       29.1560    6.9400   13.0680 O.2   149  ASN149     -0.2716
     43  ND2       27.5830    7.4550   11.5460 N.am  149  ASN149     -0.0877
     44  N         29.0860    1.6480   11.3520 N.3   218  TYR218     -0.1241
     45  CA        27.8760    1.1760   12.0220 C.3   218  TYR218      0.1605
     46  C         27.2270   -0.0280   11.3850 C.2   218  TYR218      0.2264
     47  O         26.0610   -0.3230   11.6940 O.2   218  TYR218     -0.2867
     48  CB        26.8440    2.3150   12.1140 C.3   218  TYR218      0.0534
     49  CG        26.4750    2.9650   10.7690 C.ar  218  TYR218     -0.0201
     50  CD1       25.4890    2.4010    9.9430 C.ar  218  TYR218     -0.0009
     51  CD2       27.0870    4.1430   10.3550 C.ar  218  TYR218     -0.0009
     52  CE1       25.1350    2.9770    8.7360 C.ar  218  TYR218      0.0417
     53  CE2       26.7510    4.7520    9.1290 C.ar  218  TYR218      0.0417
     54  CZ        25.7770    4.1550    8.3240 C.ar  218  TYR218      0.1957
     55  OH        25.4070    4.7240    7.1220 O.3   218  TYR218     -0.2866
     56  N         23.5850   10.9600   24.9370 N.3   286  ASN286     -0.1240
     57  CA        24.0980   11.6630   23.7700 C.3   286  ASN286      0.1653
     58  C         24.3640   13.1380   24.0040 C.2   286  ASN286      0.2266
     59  O         25.1750   13.7280   23.2780 O.2   286  ASN286     -0.2867
     60  CB        23.1530   11.4900   22.5910 C.3   286  ASN286      0.1155
     61  CG        23.2530   10.1140   21.9760 C.2   286  ASN286      0.2627
     62  OD1       24.2800    9.4620   22.0920 O.2   286  ASN286     -0.2716
     63  ND2       22.2090    9.6840   21.2970 N.am  286  ASN286     -0.0877
     64  N         27.8770   12.8340   22.3420 N.3   290  LEU290     -0.1245
     65  CA        28.0110   13.3870   21.0030 C.3   290  LEU290      0.1561
     66  C         28.4880   14.8490   21.0320 C.2   290  LEU290      0.2260
     67  O         28.5790   15.4840   19.9760 O.2   290  LEU290     -0.2867
     68  CB        26.6700   13.2610   20.2540 C.3   290  LEU290      0.0270
     69  CG        26.1210   11.8340   20.0780 C.3   290  LEU290      0.0019
     70  CD1       24.7890   11.8430   19.3080 C.3   290  LEU290      0.0001
     71  CD2       27.1850   10.9330   19.4290 C.3   290  LEU290      0.0001
     72  N         28.4080    1.9350   23.3470 N.3   313  THR313     -0.1203
     73  CA        27.0080    1.9560   22.9310 C.3   313  THR313      0.1994
     74  C         26.9000    1.9750   21.4030 C.2   313  THR313      0.2618
     75  O         27.7900    2.4870   20.7120 O.2   313  THR313     -0.2717
     76  CB        26.2960    3.2100   23.4770 C.3   313  THR313      0.1784
     77  OG1       27.0110    4.3670   23.0600 O.3   313  THR313     -0.2211
     78  CG2       26.2120    3.1930   25.0170 C.3   313  THR313      0.0376
     79  N         25.8010    1.4810   20.8520 N.am  314  GLY314     -0.1942
     80  CA        25.5790    1.6500   19.4240 C.3   314  GLY314      0.2014
     81  C         24.1410    1.4300   19.0690 C.2   314  GLY314      0.2639
     82  O         23.4640    0.6230   19.7040 O.2   314  GLY314     -0.2714
     83  N         23.6790    2.0850   18.0120 N.am  315  ALA315     -0.1963
     84  CA        22.2820    1.9570   17.5980 C.3   315  ALA315      0.1728
     85  C         22.1650    2.1810   16.1070 C.2   315  ALA315      0.2616
     86  O         23.0530    2.7810   15.4860 O.2   315  ALA315     -0.2715
     87  CB        21.4170    2.9700   18.3450 C.3   315  ALA315      0.0334
     88  N         21.0420    1.7200   15.5620 N.am  316  THR316     -0.1951
     89  CA        20.5810    2.0940   14.2260 C.3   316  THR316      0.1897
     90  C         19.1500    2.6130   14.4160 C.2   316  THR316      0.2313
     91  O         18.6700    2.7390   15.5570 O.2   316  THR316     -0.2863
     92  CB        20.5820    0.9190   13.2410 C.3   316  THR316      0.1794
     93  OG1       19.6690   -0.0700   13.7190 O.3   316  THR316     -0.2208
     94  CG2       21.9650    0.2950   13.1020 C.3   316  THR316      0.0378
     95  N         15.7260    1.0500   19.2440 N.3   340  ASN340     -0.1240
     96  CA        16.6750    2.0420   19.7260 C.3   340  ASN340      0.1653
     97  C         16.0500    2.7520   20.9420 C.2   340  ASN340      0.2266
     98  O         15.1230    3.5480   20.7960 O.2   340  ASN340     -0.2867
     99  CB        16.9690    3.0290   18.5910 C.3   340  ASN340      0.1155
    100  CG        17.9400    4.1250   18.9830 C.2   340  ASN340      0.2627
    101  OD1       18.3980    4.2050   20.1210 O.2   340  ASN340     -0.2716
    102  ND2       18.2580    4.9690   18.0400 N.am  340  ASN340     -0.0877
    103  N         20.4730    5.4240   25.5670 N.3   343  ASN343     -0.1240
    104  CA        21.7480    4.9580   26.1230 C.3   343  ASN343      0.1653
    105  C         21.7830    4.8050   27.6620 C.2   343  ASN343      0.2266
    106  O         22.2500    3.7910   28.1580 O.2   343  ASN343     -0.2867
    107  CB        22.9150    5.8490   25.6710 C.3   343  ASN343      0.1155
    108  CG        23.2450    5.7230   24.1970 C.2   343  ASN343      0.2627
    109  OD1       23.0190    4.6880   23.5720 O.2   343  ASN343     -0.2716
    110  ND2       23.8970    6.7540   23.6680 N.am  343  ASN343     -0.0877
@<TRIPOS>BOND
     1    55    54    1
     2    18    17    2
     3    54    52   ar
     4    54    53   ar
     5    17    16    1
     6    52    50   ar
     7    53    51   ar
     8    19    16    1
     9    19    20    1
    10    16    15    1
    11    50    49   ar
    12    23    21   am
    13    39    38    2
    14    51    49   ar
    15    21    22    2
    16    21    20    1
    17    38    37    1
    18    49    48    1
    19    15     9   am
    20    40    37    1
    21    40    41    1
    22    44    45    1
    23    46    47    2
    24    46    45    1
    25    43    41   am
    26    37    36    1
    27     9    10    2
    28     9     8    1
    29    41    42    2
    30    45    48    1
    31     7     8    1
    32     8    11    1
    33    94    92    1
    34    92    93    1
    35    92    89    1
    36    11    12    1
    37    89    90    1
    38    89    88    1
    39    90    91    2
    40    12    14    1
    41    12    13    1
    42    86    85    2
    43    88    85   am
    44     6     5    1
    45     1     2    1
    46    85    84    1
    47    27    26    2
    48     2     5    1
    49     2     3    1
    50    26    25    1
    51     3     4    2
    52    32    30   ar
    53    32    34   ar
    54    84    83    1
    55    84    87    1
    56    30    29   ar
    57    35    34    1
    58    25    24    1
    59    25    28    1
    60    83    81   am
    61   102   100   am
    62    34    33   ar
    63    99   100    1
    64    99    96    1
    65    29    28    1
    66    29    31   ar
    67    33    31   ar
    68   100   101    2
    69    81    80    1
    70    81    82    2
    71    95    96    1
    72    70    69    1
    73    80    79    1
    74    71    69    1
    75    96    97    1
    76    67    66    2
    77    69    68    1
    78    68    65    1
    79    75    74    2
    80    98    97    2
    81    79    74   am
    82    65    66    1
    83    65    64    1
    84    63    61   am
    85    74    73    1
    86    61    62    2
    87    61    60    1
    88    60    57    1
    89    73    72    1
    90    73    76    1
    91    77    76    1
    92    59    58    2
    93    76    78    1
    94   109   108    2
    95   110   108   am
    96    57    58    1
    97    57    56    1
    98   108   107    1
    99   103   104    1
   100   107   104    1
   101   104   105    1
   102   105   106    2
