@<TRIPOS>MOLECULE
tmp/4kz8B02.pdb
 102 94 0 0 0
SMALL
GASTEIGER

@<TRIPOS>ATOM
      1  N         75.8250    2.4090   30.3660 N.3    58  SER58      -0.1217
      2  CA        74.5480    2.8950   29.8410 C.3    58  SER58       0.1889
      3  C         73.6480    1.8380   29.2190 C.2    58  SER58       0.2288
      4  O         72.4930    2.1270   28.9130 O.2    58  SER58      -0.2866
      5  CB        74.7840    3.9880   28.8090 C.3    58  SER58       0.2089
      6  OG        74.9760    5.2450   29.4370 O.3    58  SER58      -0.2183
      7  N         73.8710   15.6410   31.3670 N.3   113  LEU113     -0.1231
      8  CA        74.3640   14.2910   31.1170 C.3   113  LEU113      0.1693
      9  C         74.6150   13.5230   32.4050 C.2   113  LEU113      0.2591
     10  O         74.2090   12.3710   32.5320 O.2   113  LEU113     -0.2718
     11  CB        75.6580   14.3410   30.3020 C.3   113  LEU113      0.0284
     12  CG        76.3810   12.9970   30.1600 C.3   113  LEU113      0.0019
     13  CD1       75.5240   12.0100   29.3900 C.3   113  LEU113      0.0001
     14  CD2       77.7490   13.1610   29.5100 C.3   113  LEU113      0.0001
     15  N         75.3100   14.1680   33.3370 N.am  114  GLN114     -0.1979
     16  CA        75.6160   13.5860   34.6340 C.3   114  GLN114      0.1601
     17  C         74.9510   14.3670   35.7520 C.2   114  GLN114      0.2287
     18  O         74.8810   15.5950   35.7000 O.2   114  GLN114     -0.2864
     19  CB        77.1310   13.5530   34.8780 C.3   114  GLN114      0.0394
     20  CG        77.9390   12.7860   33.8490 C.3   114  GLN114      0.0908
     21  CD        77.6940   11.2870   33.8980 C.2   114  GLN114      0.2608
     22  OE1       77.1950   10.7550   34.8950 O.2   114  GLN114     -0.2717
     23  NE2       78.0460   10.5950   32.8170 N.am  114  GLN114     -0.0878
     24  N         70.8120   13.3400   25.5920 N.3   144  TYR144     -0.1241
     25  CA        71.1640   12.1270   26.3350 C.3   144  TYR144      0.1605
     26  C         71.6240   12.4670   27.7510 C.2   144  TYR144      0.2264
     27  O         72.5030   13.3050   27.9210 O.2   144  TYR144     -0.2867
     28  CB        72.2520   11.3610   25.5850 C.3   144  TYR144      0.0534
     29  CG        72.5060    9.9680   26.1040 C.ar  144  TYR144     -0.0201
     30  CD1       73.5120    9.7230   27.0280 C.ar  144  TYR144     -0.0009
     31  CD2       71.7370    8.8950   25.6680 C.ar  144  TYR144     -0.0009
     32  CE1       73.7510    8.4500   27.5020 C.ar  144  TYR144      0.0417
     33  CE2       71.9660    7.6200   26.1360 C.ar  144  TYR144      0.0417
     34  CZ        72.9740    7.4030   27.0500 C.ar  144  TYR144      0.1957
     35  OH        73.1970    6.1370   27.5160 O.3   144  TYR144     -0.2866
     36  N         71.9260   10.9190   32.0420 N.3   146  ASN146     -0.1240
     37  CA        71.7260   10.0430   33.1920 C.3   146  ASN146      0.1653
     38  C         70.7520   10.6470   34.1890 C.2   146  ASN146      0.2266
     39  O         70.0020    9.9320   34.8460 O.2   146  ASN146     -0.2867
     40  CB        73.0550    9.7530   33.9020 C.3   146  ASN146      0.1155
     41  CG        73.9990    8.9070   33.0680 C.2   146  ASN146      0.2627
     42  OD1       73.5710    8.1510   32.2020 O.2   146  ASN146     -0.2716
     43  ND2       75.2910    9.0290   33.3310 N.am  146  ASN146     -0.0877
     44  N         83.3430    0.9000   38.7950 N.3   205  VAL205     -0.1245
     45  CA        82.5100    2.0970   38.8030 C.3   205  VAL205      0.1561
     46  C         82.3160    2.6380   40.2250 C.2   205  VAL205      0.2260
     47  O         82.0950    1.8810   41.1650 O.2   205  VAL205     -0.2867
     48  CB        81.1340    1.8300   38.1470 C.3   205  VAL205      0.0252
     49  CG1       80.3480    0.7660   38.9260 C.3   205  VAL205      0.0019
     50  CG2       80.3410    3.1350   38.0100 C.3   205  VAL205      0.0019
     51  N         73.2990    3.5140   35.0170 N.3   215  TYR215     -0.1241
     52  CA        74.5190    2.8650   34.5250 C.3   215  TYR215      0.1605
     53  C         75.0870    1.8190   35.4770 C.2   215  TYR215      0.2264
     54  O         76.2880    1.5670   35.4640 O.2   215  TYR215     -0.2867
     55  CB        75.6070    3.9190   34.2400 C.3   215  TYR215      0.0534
     56  CG        75.9390    4.8070   35.4300 C.ar  215  TYR215     -0.0201
     57  CD1       76.8200    4.3830   36.4220 C.ar  215  TYR215     -0.0009
     58  CD2       75.3690    6.0700   35.5580 C.ar  215  TYR215     -0.0009
     59  CE1       77.1190    5.1910   37.5090 C.ar  215  TYR215      0.0417
     60  CE2       75.6610    6.8880   36.6380 C.ar  215  TYR215      0.0417
     61  CZ        76.5360    6.4420   37.6090 C.ar  215  TYR215      0.1957
     62  OH        76.8250    7.2480   38.6820 O.3   215  TYR215     -0.2866
     63  N         80.1620   10.0990   20.3000 N.3   283  ASN283     -0.1240
     64  CA        79.6110   10.9640   21.3420 C.3   283  ASN283      0.1653
     65  C         79.3780   12.4100   20.8960 C.2   283  ASN283      0.2266
     66  O         78.5330   13.0990   21.4680 O.2   283  ASN283     -0.2867
     67  CB        80.5050   10.9390   22.5860 C.3   283  ASN283      0.1155
     68  CG        80.3250    9.6720   23.4020 C.2   283  ASN283      0.2627
     69  OD1       79.3060    8.9850   23.2880 O.2   283  ASN283     -0.2716
     70  ND2       81.3110    9.3580   24.2340 N.am  283  ASN283     -0.0877
     71  N         75.7830   12.4890   22.2140 N.3   287  LEU287     -0.1245
     72  CA        75.6130   13.2940   23.4230 C.3   287  LEU287      0.1561
     73  C         75.1680   14.7160   23.1210 C.2   287  LEU287      0.2260
     74  O         75.1030   15.5560   24.0160 O.2   287  LEU287     -0.2867
     75  CB        76.9090   13.3410   24.2270 C.3   287  LEU287      0.0270
     76  CG        77.4750   11.9940   24.6760 C.3   287  LEU287      0.0019
     77  CD1       78.6470   12.2190   25.6030 C.3   287  LEU287      0.0001
     78  CD2       76.4070   11.1720   25.3670 C.3   287  LEU287      0.0001
     79  N         78.9760    2.6350   28.6180 N.3   312  ALA312     -0.1231
     80  CA        80.3270    2.9060   29.0660 C.3   312  ALA312      0.1694
     81  C         80.3760    3.2050   30.5510 C.2   312  ALA312      0.2593
     82  O         79.4800    3.8480   31.0890 O.2   312  ALA312     -0.2718
     83  CB        80.9230    4.0660   28.2810 C.3   312  ALA312      0.0304
     84  N         81.4160    2.7100   31.2120 N.am  313  THR313     -0.1939
     85  CA        81.8540    3.2900   32.4760 C.3   313  THR313      0.2028
     86  C         83.2850    3.7550   32.2720 C.2   313  THR313      0.2642
     87  O         83.7940    3.7180   31.1530 O.2   313  THR313     -0.2714
     88  CB        81.7780    2.3040   33.6490 C.3   313  THR313      0.1808
     89  OG1       82.5700    1.1470   33.3500 O.3   313  THR313     -0.2208
     90  CG2       80.3480    1.8880   33.8890 C.3   313  THR313      0.0379
     91  N         83.9300    4.1940   33.3450 N.am  314  GLY314     -0.1954
     92  CA        85.3140    4.6220   33.2740 C.3   314  GLY314      0.1869
     93  C         86.2250    3.5540   32.6950 C.2   314  GLY314      0.2309
     94  O         87.1090    3.8450   31.8870 O.2   314  GLY314     -0.2863
     95  N         86.9310    1.1140   28.0900 N.3   337  ASN337     -0.1240
     96  CA        86.0510    2.0350   27.3820 C.3   337  ASN337      0.1653
     97  C         86.7290    2.5740   26.1240 C.2   337  ASN337      0.2266
     98  O         87.4590    3.5620   26.1640 O.2   337  ASN337     -0.2867
     99  CB        85.6240    3.1790   28.3080 C.3   337  ASN337      0.1155
    100  CG        84.7530    4.2150   27.6110 C.2   337  ASN337      0.2627
    101  OD1       84.2430    3.9890   26.5150 O.2   337  ASN337     -0.2716
    102  ND2       84.5530    5.3540   28.2710 N.am  337  ASN337     -0.0877
@<TRIPOS>BOND
     1    63    64    1
     2    65    64    1
     3    65    66    2
     4    64    67    1
     5    71    72    1
     6    67    68    1
     7    73    72    1
     8    73    74    2
     9    69    68    2
    10    68    70   am
    11    72    75    1
    12    75    76    1
    13    76    78    1
    14    76    77    1
    15    28    29    1
    16    28    25    1
    17    24    25    1
    18    31    29   ar
    19    31    33   ar
    20    29    30   ar
    21    97    98    2
    22    97    96    1
    23    33    34   ar
    24    25    26    1
    25   101   100    2
    26    30    32   ar
    27    34    32   ar
    28    34    35    1
    29    96    95    1
    30    96    99    1
    31   100   102   am
    32   100    99    1
    33    26    27    2
    34    83    80    1
    35    79    80    1
    36     5     6    1
    37     5     2    1
    38     4     3    2
    39    80    81    1
    40     3     2    1
    41    13    12    1
    42    14    12    1
    43     2     1    1
    44    12    11    1
    45    11     8    1
    46    81    82    2
    47    81    84   am
    48     8     7    1
    49     8     9    1
    50    87    86    2
    51    84    85    1
    52    94    93    2
    53    36    37    1
    54    42    41    2
    55    86    85    1
    56    86    91   am
    57     9    10    2
    58     9    15   am
    59    85    88    1
    60    93    92    1
    61    23    21   am
    62    41    43   am
    63    41    40    1
    64    37    40    1
    65    37    38    1
    66    92    91    1
    67    15    16    1
    68    89    88    1
    69    88    90    1
    70    20    21    1
    71    20    19    1
    72    21    22    2
    73    38    39    2
    74    55    52    1
    75    55    56    1
    76    52    51    1
    77    52    53    1
    78    16    19    1
    79    16    17    1
    80    56    58   ar
    81    56    57   ar
    82    54    53    2
    83    58    60   ar
    84    18    17    2
    85    57    59   ar
    86    60    61   ar
    87    59    61   ar
    88    61    62    1
    89    50    48    1
    90    48    45    1
    91    48    49    1
    92    44    45    1
    93    45    46    1
    94    46    47    2
