@<TRIPOS>MOLECULE
tmp/4kz8B00.pdb
 77 76 0 0 0
SMALL
GASTEIGER

@<TRIPOS>ATOM
      1  N         54.6390   -7.0730   27.8720 N.3   244  GLN244     -0.1245
      2  CA        54.1920   -5.7890   27.3520 C.3   244  GLN244      0.1566
      3  C         55.2430   -4.7220   27.6180 C.2   244  GLN244      0.2260
      4  O         55.4660   -3.8440   26.7900 O.2   244  GLN244     -0.2867
      5  CB        52.8540   -5.3820   27.9720 C.3   244  GLN244      0.0367
      6  CG        51.7010   -6.2910   27.6020 C.3   244  GLN244      0.0905
      7  CD        50.5110   -6.1230   28.5290 C.2   244  GLN244      0.2608
      8  OE1       50.4170   -5.1440   29.2720 O.2   244  GLN244     -0.2717
      9  NE2       49.5980   -7.0850   28.4960 N.am  244  GLN244     -0.0878
     10  N         57.6940   -4.7560   24.9100 N.3   247  GLN247     -0.1231
     11  CA        57.0560   -4.1470   23.7520 C.3   247  GLN247      0.1698
     12  C         57.0580   -2.6230   23.8520 C.2   247  GLN247      0.2592
     13  O         57.3190   -1.9310   22.8700 O.2   247  GLN247     -0.2718
     14  CB        55.6210   -4.6520   23.5850 C.3   247  GLN247      0.0381
     15  CG        55.5110   -6.0750   23.0800 C.3   247  GLN247      0.0905
     16  CD        54.0630   -6.5370   22.9680 C.2   247  GLN247      0.2608
     17  OE1       53.3770   -6.7250   23.9750 O.2   247  GLN247     -0.2717
     18  NE2       53.5930   -6.7200   21.7380 N.am  247  GLN247     -0.0878
     19  N         56.7480   -2.1050   25.0340 N.am  248  LEU248     -0.1980
     20  CA        56.6740   -0.6600   25.2340 C.3   248  LEU248      0.1596
     21  C         58.0390    0.0320   25.1450 C.2   248  LEU248      0.2287
     22  O         58.1330    1.1830   24.7070 O.2   248  LEU248     -0.2864
     23  CB        56.0340   -0.3560   26.5850 C.3   248  LEU248      0.0297
     24  CG        54.5590   -0.7340   26.7080 C.3   248  LEU248      0.0022
     25  CD1       54.0510   -0.4210   28.1090 C.3   248  LEU248      0.0001
     26  CD2       53.7400   -0.0050   25.6490 C.3   248  LEU248      0.0001
     27  N         58.9130    0.6220   21.5840 N.3   251  SER251     -0.1217
     28  CA        58.0160    1.5160   20.8660 C.3   251  SER251      0.1889
     29  C         58.7230    2.8230   20.4960 C.2   251  SER251      0.2288
     30  O         59.6830    3.2350   21.1430 O.2   251  SER251     -0.2866
     31  CB        56.7540    1.7740   21.6900 C.3   251  SER251      0.2089
     32  OG        55.9950    0.5750   21.7940 O.3   251  SER251     -0.2183
     33  N         58.6890    6.6570   20.3300 N.3   253  TYR253     -0.1241
     34  CA        58.0270    7.8200   20.9220 C.3   253  TYR253      0.1605
     35  C         58.4490    9.1240   20.2640 C.2   253  TYR253      0.2264
     36  O         57.6650   10.0670   20.1810 O.2   253  TYR253     -0.2867
     37  CB        58.3120    7.8840   22.4190 C.3   253  TYR253      0.0534
     38  CG        57.8130    6.6780   23.1710 C.ar  253  TYR253     -0.0201
     39  CD1       56.5540    6.6750   23.7650 C.ar  253  TYR253     -0.0009
     40  CD2       58.5910    5.5330   23.2740 C.ar  253  TYR253     -0.0009
     41  CE1       56.0890    5.5640   24.4520 C.ar  253  TYR253      0.0417
     42  CE2       58.1360    4.4220   23.9500 C.ar  253  TYR253      0.0417
     43  CZ        56.8880    4.4420   24.5420 C.ar  253  TYR253      0.1957
     44  OH        56.4490    3.3310   25.2210 O.3   253  TYR253     -0.2866
     45  N         50.1120    8.7650   18.0240 N.3   297  PRO297     -0.2103
     46  CA        50.6670    8.0100   19.1500 C.3   297  PRO297      0.1489
     47  C         51.9310    7.2400   18.7580 C.2   297  PRO297      0.2418
     48  O         52.2510    7.1720   17.5710 O.2   297  PRO297     -0.2734
     49  CB        49.5230    7.0520   19.5110 C.3   297  PRO297      0.0282
     50  CG        48.8620    6.7830   18.2130 C.3   297  PRO297      0.0208
     51  CD        48.9400    8.0880   17.4410 C.3   297  PRO297      0.0893
     52  N         52.6480    6.6800   19.7460 N.am  298  PRO298     -0.2718
     53  CA        53.8420    5.8800   19.4750 C.3   298  PRO298      0.1535
     54  C         53.5860    4.7450   18.5030 C.2   298  PRO298      0.2599
     55  O         52.5250    4.1250   18.5420 O.2   298  PRO298     -0.2715
     56  CB        54.2010    5.3090   20.8500 C.3   298  PRO298      0.0310
     57  CG        53.6610    6.2830   21.8060 C.3   298  PRO298      0.0237
     58  CD        52.4120    6.8260   21.1920 C.3   298  PRO298      0.0939
     59  N         54.5630    4.4780   17.6480 N.am  299  THR299     -0.1938
     60  CA        54.5370    3.3100   16.7940 C.3   299  THR299      0.2013
     61  C         54.9170    2.1090   17.6350 C.2   299  THR299      0.2484
     62  O         55.9040    2.1580   18.3590 O.2   299  THR299     -0.2729
     63  CB        55.5160    3.4420   15.6100 C.3   299  THR299      0.1807
     64  OG1       55.2390    4.6500   14.8950 O.3   299  THR299     -0.2208
     65  CG2       55.3990    2.2510   14.6700 C.3   299  THR299      0.0379
     66  N         54.1130    1.0370   17.5730 N.am  300  PRO300     -0.2715
     67  CA        54.4480   -0.1980   18.2850 C.3   300  PRO300      0.1536
     68  C         55.7630   -0.7750   17.7770 C.2   300  PRO300      0.2598
     69  O         56.1580   -0.4630   16.6480 O.2   300  PRO300     -0.2715
     70  CB        53.2810   -1.1300   17.9490 C.3   300  PRO300      0.0310
     71  CG        52.1630   -0.2270   17.5920 C.3   300  PRO300      0.0237
     72  CD        52.8040    0.9480   16.9050 C.3   300  PRO300      0.0939
     73  N         56.4310   -1.5700   18.6090 N.am  301  ALA301     -0.1978
     74  CA        57.7360   -2.1420   18.2850 C.3   301  ALA301      0.1597
     75  C         57.7660   -2.7000   16.8640 C.2   301  ALA301      0.2287
     76  O         56.9930   -3.5900   16.5190 O.2   301  ALA301     -0.2864
     77  CB        58.0960   -3.2250   19.2890 C.3   301  ALA301      0.0319
@<TRIPOS>BOND
     1    65    63    1
     2    64    63    1
     3    63    60    1
     4    76    75    2
     5    69    68    2
     6    60    61    1
     7    60    59    1
     8    75    74    1
     9    72    66    1
    10    72    71    1
    11    51    45    1
    12    51    50    1
    13    48    47    2
    14    66    61   am
    15    66    67    1
    16    71    70    1
    17    61    62    2
    18    59    54   am
    19    68    67    1
    20    68    73   am
    21    70    67    1
    22    45    46    1
    23    50    49    1
    24    74    73    1
    25    74    77    1
    26    54    55    2
    27    54    53    1
    28    47    46    1
    29    47    52   am
    30    46    49    1
    31    53    52    1
    32    53    56    1
    33    52    58    1
    34    36    35    2
    35    35    34    1
    36    33    34    1
    37    29    28    1
    38    29    30    2
    39    56    57    1
    40    28    27    1
    41    28    31    1
    42    34    37    1
    43    58    57    1
    44    31    32    1
    45    18    16   am
    46    37    38    1
    47    13    12    2
    48    16    15    1
    49    16    17    2
    50    15    14    1
    51    38    40   ar
    52    38    39   ar
    53    40    42   ar
    54    14    11    1
    55    11    12    1
    56    11    10    1
    57    39    41   ar
    58    12    19   am
    59    42    43   ar
    60    41    43   ar
    61    43    44    1
    62    22    21    2
    63    19    20    1
    64    21    20    1
    65    20    23    1
    66    26    24    1
    67    23    24    1
    68    24    25    1
    69     4     3    2
    70     2     3    1
    71     2     1    1
    72     2     5    1
    73     6     5    1
    74     6     7    1
    75     9     7   am
    76     7     8    2
