@<TRIPOS>MOLECULE
tmp/4kz9A00.pdb
 95 88 0 0 0
SMALL
GASTEIGER

@<TRIPOS>ATOM
      1  N         29.6140  -12.5180   30.8170 N.3    30  ILE30      -0.1245
      2  CA        30.7630  -13.4000   30.7120 C.3    30  ILE30       0.1561
      3  C         31.5220  -13.2840   31.9850 C.2    30  ILE30       0.2260
      4  O         31.9680  -12.1990   32.3830 O.2    30  ILE30      -0.2867
      5  CB        31.6990  -13.0710   29.5210 C.3    30  ILE30       0.0252
      6  CG1       30.8960  -12.8300   28.2320 C.3    30  ILE30       0.0019
      7  CG2       32.6610  -14.2500   29.3120 C.3    30  ILE30       0.0019
      8  CD1       30.3460  -11.3790   28.0430 C.3    30  ILE30       0.0001
      9  N         35.5310  -16.2100   31.7710 N.3    33  GLY33      -0.1225
     10  CA        35.6340  -16.9540   30.5380 C.3    33  GLY33       0.1811
     11  C         34.3950  -17.7580   30.2130 C.2    33  GLY33       0.2280
     12  O         34.3050  -18.3180   29.1280 O.2    33  GLY33      -0.2866
     13  N         30.3930  -17.7510   29.2920 N.3    35  PRO35      -0.2116
     14  CA        29.2390  -16.9210   28.9340 C.3    35  PRO35       0.1372
     15  C         27.9240  -17.5130   29.4270 C.2    35  PRO35       0.2244
     16  O         27.7190  -18.7580   29.4650 O.2    35  PRO35      -0.2868
     17  CB        29.2920  -16.9140   27.3960 C.3    35  PRO35       0.0268
     18  CG        29.8070  -18.2700   27.0810 C.3    35  PRO35       0.0207
     19  CD        30.8070  -18.6160   28.1760 C.3    35  PRO35       0.0892
     20  N         23.7490  -16.7790   28.8310 N.3    37  TYR37      -0.1241
     21  CA        22.8830  -16.0910   27.9040 C.3    37  TYR37       0.1605
     22  C         21.4570  -15.9530   28.3620 C.2    37  TYR37       0.2264
     23  O         20.9280  -16.8310   29.0380 O.2    37  TYR37      -0.2867
     24  CB        22.8710  -16.8270   26.5470 C.3    37  TYR37       0.0534
     25  CG        24.2380  -16.9300   25.9190 C.ar   37  TYR37      -0.0201
     26  CD1       24.8770  -15.7970   25.4120 C.ar   37  TYR37      -0.0009
     27  CD2       24.9150  -18.1310   25.8630 C.ar   37  TYR37      -0.0009
     28  CE1       26.1400  -15.8900   24.8310 C.ar   37  TYR37       0.0417
     29  CE2       26.1790  -18.2290   25.3010 C.ar   37  TYR37       0.0417
     30  CZ        26.7760  -17.0830   24.7740 C.ar   37  TYR37       0.1957
     31  OH        28.0230  -17.1840   24.1770 O.3    37  TYR37      -0.2866
     32  N         38.8760  -15.3300   15.4280 N.3   179  LEU179     -0.1245
     33  CA        38.1360  -15.3110   16.6850 C.3   179  LEU179      0.1561
     34  C         36.8890  -16.1930   16.6530 C.2   179  LEU179      0.2260
     35  O         36.1100  -16.2160   17.6000 O.2   179  LEU179     -0.2867
     36  CB        37.7790  -13.8810   17.0430 C.3   179  LEU179      0.0270
     37  CG        38.9780  -12.9470   17.2570 C.3   179  LEU179      0.0019
     38  CD1       38.4720  -11.6040   17.6310 C.3   179  LEU179      0.0001
     39  CD2       39.9100  -13.4910   18.3670 C.3   179  LEU179      0.0001
     40  N         25.9590  -14.7170   20.9560 N.3   225  GLU225     -0.1245
     41  CA        27.0680  -15.6310   21.1640 C.3   225  GLU225      0.1567
     42  C         28.3780  -15.0600   20.6390 C.2   225  GLU225      0.2260
     43  O         29.3890  -15.0570   21.3330 O.2   225  GLU225     -0.2867
     44  CB        26.7600  -16.9840   20.5090 C.3   225  GLU225      0.0388
     45  CG        25.6100  -17.6900   21.2150 C.3   225  GLU225      0.1160
     46  CD        25.4230  -19.1010   20.6960 C.2   225  GLU225      0.3649
     47  OE1       25.9370  -19.3860   19.5930 O.co2 225  GLU225     -0.2457
     48  OE2       24.7610  -19.9160   21.3650 O.co2 225  GLU225     -0.2457
     49  N         29.4940  -12.0970   22.7440 N.3   228  ALA228     -0.1231
     50  CA        30.0990  -12.5530   23.9960 C.3   228  ALA228      0.1694
     51  C         31.5270  -13.0150   23.7250 C.2   228  ALA228      0.2591
     52  O         32.4320  -12.7160   24.4730 O.2   228  ALA228     -0.2718
     53  CB        29.2740  -13.6580   24.6150 C.3   228  ALA228      0.0304
     54  N         31.7350  -13.7290   22.6300 N.am  229  ARG229     -0.1980
     55  CA        33.0770  -14.1620   22.2820 C.3   229  ARG229      0.1597
     56  C         33.9930  -12.9690   21.9840 C.2   229  ARG229      0.2287
     57  O         35.1700  -12.9570   22.3630 O.2   229  ARG229     -0.2864
     58  CB        33.0150  -15.0930   21.0740 C.3   229  ARG229      0.0334
     59  CG        34.2700  -15.8880   20.8690 C.3   229  ARG229      0.0492
     60  CD        34.0470  -17.1200   19.9490 C.3   229  ARG229      0.2205
     61  NE        35.3470  -17.7610   19.7620 N.pl3 229  ARG229     -0.0865
     62  CZ        35.7320  -18.8760   20.3690 C.cat 229  ARG229      0.5346
     63  NH1       34.8860  -19.5210   21.1760 N.pl3 229  ARG229      0.1354
     64  NH2       36.9590  -19.3480   20.1570 N.pl3 229  ARG229      0.1354
     65  N         34.9820  -11.3930   25.2550 N.3   232  GLN232     -0.1231
     66  CA        35.9880  -12.1880   25.9380 C.3   232  GLN232      0.1698
     67  C         37.3710  -12.0450   25.2860 C.2   232  GLN232      0.2592
     68  O         38.3940  -11.9910   25.9690 O.2   232  GLN232     -0.2718
     69  CB        35.5990  -13.6600   26.0020 C.3   232  GLN232      0.0381
     70  CG        36.6230  -14.4840   26.7420 C.3   232  GLN232      0.0905
     71  CD        36.7270  -14.0860   28.2440 C.2   232  GLN232      0.2608
     72  OE1       35.8090  -13.4750   28.8070 O.2   232  GLN232     -0.2717
     73  NE2       37.8510  -14.4220   28.8730 N.am  232  GLN232     -0.0878
     74  N         37.3830  -11.9410   23.9640 N.am  233  SER233     -0.1952
     75  CA        38.6320  -11.7880   23.2400 C.3   233  SER233      0.1924
     76  C         39.2860  -10.4750   23.6130 C.2   233  SER233      0.2314
     77  O         40.5070  -10.3680   23.6710 O.2   233  SER233     -0.2863
     78  CB        38.3290  -11.8060   21.7310 C.3   233  SER233      0.2116
     79  OG        37.8230  -13.1030   21.3740 O.3   233  SER233     -0.2180
     80  N         45.0930  -14.7510   25.4040 N.3   239  ASP239     -0.1225
     81  CA        44.6780  -16.0660   24.9400 C.3   239  ASP239      0.1805
     82  C         44.6560  -16.1910   23.4030 C.2   239  ASP239      0.2597
     83  O         44.6060  -17.2970   22.8720 O.2   239  ASP239     -0.2718
     84  CB        43.2820  -16.3800   25.4830 C.3   239  ASP239      0.1424
     85  CG        43.3000  -16.7540   26.9600 C.2   239  ASP239      0.3668
     86  OD1       44.3870  -17.0840   27.4760 O.co2 239  ASP239     -0.2456
     87  OD2       42.2330  -16.7220   27.6070 O.co2 239  ASP239     -0.2456
     88  N         44.6840  -15.0660   22.6930 N.am  240  ILE240     -0.1980
     89  CA        44.6170  -15.0810   21.2290 C.3   240  ILE240      0.1595
     90  C         45.9280  -15.5110   20.6060 C.2   240  ILE240      0.2287
     91  O         46.9710  -14.9640   20.9260 O.2   240  ILE240     -0.2864
     92  CB        44.1910  -13.7010   20.6790 C.3   240  ILE240      0.0276
     93  CG1       42.8300  -13.3580   21.2590 C.3   240  ILE240      0.0022
     94  CG2       44.1340  -13.7100   19.1310 C.3   240  ILE240      0.0022
     95  CD1       42.5890  -11.9120   21.2320 C.3   240  ILE240      0.0001
@<TRIPOS>BOND
     1    32    33    1
     2    34    33    1
     3    34    35    2
     4    33    36    1
     5    36    37    1
     6    37    38    1
     7    37    39    1
     8    94    92    1
     9    47    46   ar
    10    61    60    1
    11    61    62    2
    12    60    59    1
    13    64    62    1
    14    62    63    1
    15    44    41    1
    16    44    45    1
    17    90    91    2
    18    90    89    1
    19    42    41    1
    20    42    43    2
    21    92    89    1
    22    92    93    1
    23    46    45    1
    24    46    48   ar
    25    59    58    1
    26    40    41    1
    27    58    55    1
    28    89    88    1
    29    95    93    1
    30    79    78    1
    31    78    75    1
    32    56    55    1
    33    56    57    2
    34    55    54    1
    35    54    51   am
    36    88    82   am
    37    49    50    1
    38    83    82    2
    39    75    76    1
    40    75    74    1
    41    82    81    1
    42    76    77    2
    43    51    50    1
    44    51    52    2
    45    74    67   am
    46    50    53    1
    47    31    30    1
    48    30    28   ar
    49    30    29   ar
    50    28    26   ar
    51    81    80    1
    52    81    84    1
    53    65    66    1
    54    67    66    1
    55    67    68    2
    56    29    27   ar
    57    26    25   ar
    58    84    85    1
    59    27    25   ar
    60    25    24    1
    61    66    69    1
    62    69    70    1
    63    24    21    1
    64    70    71    1
    65    85    86   ar
    66    85    87   ar
    67    18    17    1
    68    18    19    1
    69    17    14    1
    70    21    22    1
    71    21    20    1
    72     8     6    1
    73    19    13    1
    74     6     5    1
    75    71    72    2
    76    71    73   am
    77    22    23    2
    78    14    13    1
    79    14    15    1
    80    12    11    2
    81     7     5    1
    82    15    16    2
    83     5     2    1
    84    11    10    1
    85    10     9    1
    86     2     1    1
    87     2     3    1
    88     3     4    2
