@<TRIPOS>MOLECULE
tmp/4kzaB00.pdb
 78 75 0 0 0
SMALL
GASTEIGER

@<TRIPOS>ATOM
      1  N         54.8190   -0.1500   33.3370 N.3    75  ILE75      -0.1245
      2  CA        53.6390    0.3770   32.6300 C.3    75  ILE75       0.1561
      3  C         52.5970   -0.7380   32.4560 C.2    75  ILE75       0.2260
      4  O         51.4000   -0.5580   32.7310 O.2    75  ILE75      -0.2867
      5  CB        54.0480    0.9030   31.2170 C.3    75  ILE75       0.0252
      6  CG1       54.9650    2.0880   31.3840 C.3    75  ILE75       0.0019
      7  CG2       52.8130    1.3360   30.4500 C.3    75  ILE75       0.0019
      8  CD1       55.8630    2.3080   30.1360 C.3    75  ILE75       0.0001
      9  N         55.0120   -7.6320   27.5500 N.3   247  GLN247     -0.1245
     10  CA        54.5180   -6.3130   27.1380 C.3   247  GLN247      0.1566
     11  C         55.5910   -5.2410   27.3320 C.2   247  GLN247      0.2260
     12  O         55.7250   -4.3050   26.5240 O.2   247  GLN247     -0.2867
     13  CB        53.2280   -5.9780   27.9290 C.3   247  GLN247      0.0367
     14  CG        52.5790   -4.6760   27.4650 C.3   247  GLN247      0.0905
     15  CD        51.2340   -4.4090   28.1300 C.2   247  GLN247      0.2608
     16  OE1       50.6760   -5.2810   28.8070 O.2   247  GLN247     -0.2717
     17  NE2       50.7190   -3.1950   27.9530 N.am  247  GLN247     -0.0878
     18  N         57.9120   -5.2590   24.4870 N.3   250  GLN250     -0.1231
     19  CA        57.2160   -4.6270   23.3580 C.3   250  GLN250      0.1698
     20  C         57.2450   -3.1120   23.4620 C.2   250  GLN250      0.2592
     21  O         57.5800   -2.4280   22.4950 O.2   250  GLN250     -0.2718
     22  CB        55.7750   -5.1240   23.2600 C.3   250  GLN250      0.0381
     23  CG        55.6990   -6.5940   22.9460 C.3   250  GLN250      0.0905
     24  CD        54.2640   -7.0870   22.9560 C.2   250  GLN250      0.2608
     25  OE1       53.6100   -7.0890   23.9880 O.2   250  GLN250     -0.2717
     26  NE2       53.7530   -7.4410   21.7820 N.am  250  GLN250     -0.0878
     27  N         56.9440   -2.5720   24.6420 N.am  251  LEU251     -0.1980
     28  CA        56.9520   -1.1330   24.8770 C.3   251  LEU251      0.1596
     29  C         58.3240   -0.4990   24.7250 C.2   251  LEU251      0.2287
     30  O         58.4360    0.5980   24.2160 O.2   251  LEU251     -0.2864
     31  CB        56.4250   -0.8450   26.2940 C.3   251  LEU251      0.0297
     32  CG        54.8880   -0.9640   26.3810 C.3   251  LEU251      0.0022
     33  CD1       54.4870   -1.0930   27.8480 C.3   251  LEU251      0.0001
     34  CD2       54.2470    0.2980   25.7250 C.3   251  LEU251      0.0001
     35  N         58.9860    0.0670   21.0730 N.3   254  SER254     -0.1217
     36  CA        58.1070    0.9630   20.3710 C.3   254  SER254      0.1889
     37  C         58.8450    2.2750   20.0110 C.2   254  SER254      0.2288
     38  O         59.8420    2.6540   20.6660 O.2   254  SER254     -0.2866
     39  CB        56.8770    1.2420   21.2590 C.3   254  SER254      0.2089
     40  OG        56.1130    0.0530   21.3870 O.3   254  SER254     -0.2183
     41  N         58.9780    6.1450   19.8280 N.3   256  TYR256     -0.1241
     42  CA        58.4090    7.3290   20.5080 C.3   256  TYR256      0.1605
     43  C         58.7770    8.6450   19.8160 C.2   256  TYR256      0.2264
     44  O         58.0120    9.6170   19.8680 O.2   256  TYR256     -0.2867
     45  CB        58.8580    7.3940   22.0070 C.3   256  TYR256      0.0534
     46  CG        58.3410    6.1820   22.7680 C.ar  256  TYR256     -0.0201
     47  CD1       57.0850    6.1860   23.3660 C.ar  256  TYR256     -0.0009
     48  CD2       59.1300    5.0220   22.8730 C.ar  256  TYR256     -0.0009
     49  CE1       56.6330    5.0810   24.0300 C.ar  256  TYR256      0.0417
     50  CE2       58.6720    3.8820   23.5350 C.ar  256  TYR256      0.0417
     51  CZ        57.4060    3.9200   24.0910 C.ar  256  TYR256      0.1957
     52  OH        56.8930    2.7920   24.7260 O.3   256  TYR256     -0.2866
     53  N         50.4870    8.4310   17.9240 N.3   300  PRO300     -0.2103
     54  CA        51.0330    7.7550   19.0940 C.3   300  PRO300      0.1489
     55  C         52.2180    6.8870   18.7150 C.2   300  PRO300      0.2417
     56  O         52.4850    6.7380   17.5390 O.2   300  PRO300     -0.2734
     57  CB        49.8600    6.8940   19.5640 C.3   300  PRO300      0.0282
     58  CG        49.1570    6.4940   18.2810 C.3   300  PRO300      0.0208
     59  CD        49.3750    7.6680   17.3080 C.3   300  PRO300      0.0893
     60  N         52.9450    6.3660   19.7050 N.am  301  PRO301     -0.2729
     61  CA        54.1400    5.6050   19.3280 C.3   301  PRO301      0.1401
     62  C         53.7830    4.3730   18.5120 C.2   301  PRO301      0.2269
     63  O         52.7200    3.7440   18.6910 O.2   301  PRO301     -0.2865
     64  CB        54.7440    5.1860   20.6850 C.3   301  PRO301      0.0296
     65  CG        54.1990    6.1880   21.6760 C.3   301  PRO301      0.0237
     66  CD        52.8100    6.5590   21.1540 C.3   301  PRO301      0.0939
     67  N         54.0330    0.6390   17.6180 N.3   303  PRO303     -0.2102
     68  CA        54.4280   -0.5650   18.3420 C.3   303  PRO303      0.1504
     69  C         55.6340   -1.2200   17.6770 C.2   303  PRO303      0.2575
     70  O         55.8150   -1.0660   16.4740 O.2   303  PRO303     -0.2718
     71  CB        53.2120   -1.4790   18.1660 C.3   303  PRO303      0.0282
     72  CG        52.0770   -0.5600   18.0300 C.3   303  PRO303      0.0208
     73  CD        52.6170    0.6010   17.1910 C.3   303  PRO303      0.0893
     74  N         56.4060   -1.9640   18.4600 N.am  304  ALA304     -0.1980
     75  CA        57.6510   -2.5910   17.9620 C.3   304  ALA304      0.1597
     76  C         57.5640   -3.1580   16.5610 C.2   304  ALA304      0.2287
     77  O         56.6910   -4.0070   16.2320 O.2   304  ALA304     -0.2864
     78  CB        58.1230   -3.6580   18.9500 C.3   304  ALA304      0.0319
@<TRIPOS>BOND
     1    77    76    2
     2    70    69    2
     3    76    75    1
     4    73    67    1
     5    73    72    1
     6    59    53    1
     7    59    58    1
     8    56    55    2
     9    67    68    1
    10    69    68    1
    11    69    74   am
    12    53    54    1
    13    75    74    1
    14    75    78    1
    15    72    71    1
    16    71    68    1
    17    58    57    1
    18    62    63    2
    19    62    61    1
    20    55    54    1
    21    55    60   am
    22    54    57    1
    23    61    60    1
    24    61    64    1
    25    60    66    1
    26    43    44    2
    27    43    42    1
    28    41    42    1
    29    37    36    1
    30    37    38    2
    31    36    35    1
    32    36    39    1
    33    42    45    1
    34    64    65    1
    35    66    65    1
    36    39    40    1
    37    26    24   am
    38    45    46    1
    39    21    20    2
    40    46    48   ar
    41    46    47   ar
    42    48    50   ar
    43    23    24    1
    44    23    22    1
    45    24    25    2
    46    22    19    1
    47    19    20    1
    48    19    18    1
    49    47    49   ar
    50    20    27   am
    51    50    51   ar
    52    49    51   ar
    53    51    52    1
    54    30    29    2
    55    27    28    1
    56    29    28    1
    57    28    31    1
    58    34    32    1
    59    31    32    1
    60    32    33    1
    61    12    11    2
    62    10    11    1
    63    10     9    1
    64    10    13    1
    65    14    13    1
    66    14    15    1
    67    17    15   am
    68    15    16    2
    69     8     6    1
    70     7     5    1
    71     5     6    1
    72     5     2    1
    73     3     2    1
    74     3     4    2
    75     2     1    1
