@<TRIPOS>MOLECULE
tmp/4kzaB02.pdb
 92 89 0 0 0
SMALL
GASTEIGER

@<TRIPOS>ATOM
      1  N         64.4760  -10.3870   23.5810 N.3   234  ASN234     -0.1225
      2  CA        64.0440   -9.1770   22.8770 C.3   234  ASN234      0.1785
      3  C         63.7390   -9.4120   21.4100 C.2   234  ASN234      0.2597
      4  O         62.9070   -8.7040   20.8070 O.2   234  ASN234     -0.2718
      5  CB        65.1010   -8.0750   23.0260 C.3   234  ASN234      0.1169
      6  CG        65.0330   -7.3960   24.3960 C.2   234  ASN234      0.2627
      7  OD1       64.3370   -6.3950   24.5330 O.2   234  ASN234     -0.2716
      8  ND2       65.6990   -7.9710   25.4290 N.am  234  ASN234     -0.0877
      9  N         64.3500  -10.4330   20.8210 N.am  235  LEU235     -0.1980
     10  CA        63.9450  -10.8780   19.4770 C.3   235  LEU235      0.1596
     11  C         62.5670  -11.4710   19.3710 C.2   235  LEU235      0.2287
     12  O         61.9110  -11.3560   18.3190 O.2   235  LEU235     -0.2864
     13  CB        64.8750  -11.9840   18.9970 C.3   235  LEU235      0.0297
     14  CG        66.1720  -11.5570   18.3440 C.3   235  LEU235      0.0022
     15  CD1       67.1410  -12.7440   18.2590 C.3   235  LEU235      0.0001
     16  CD2       65.8990  -10.9880   16.9250 C.3   235  LEU235      0.0001
     17  N         59.6070  -11.6360   21.9690 N.3   237  PRO237     -0.2102
     18  CA        58.9760  -11.4870   23.2920 C.3   237  PRO237      0.1504
     19  C         57.7140  -12.3500   23.5000 C.2   237  PRO237      0.2575
     20  O         57.3740  -12.6480   24.6440 O.2   237  PRO237     -0.2718
     21  CB        58.6660   -9.9890   23.3790 C.3   237  PRO237      0.0282
     22  CG        58.6590   -9.5040   21.9430 C.3   237  PRO237      0.0208
     23  CD        59.7020  -10.3610   21.2460 C.3   237  PRO237      0.0893
     24  N         57.0290  -12.7690   22.4350 N.am  238  LEU238     -0.1980
     25  CA        55.8040  -13.5550   22.6390 C.3   238  LEU238      0.1596
     26  C         56.0970  -14.9440   23.2290 C.2   238  LEU238      0.2287
     27  O         55.1830  -15.6490   23.6590 O.2   238  LEU238     -0.2864
     28  CB        55.0140  -13.6700   21.3370 C.3   238  LEU238      0.0297
     29  CG        54.6320  -12.3330   20.6740 C.3   238  LEU238      0.0022
     30  CD1       53.8000  -12.5490   19.3810 C.3   238  LEU238      0.0001
     31  CD2       53.9010  -11.3960   21.6490 C.3   238  LEU238      0.0001
     32  N         57.9120   -5.2590   24.4870 N.3   250  GLN250     -0.1245
     33  CA        57.2160   -4.6270   23.3580 C.3   250  GLN250      0.1566
     34  C         57.2450   -3.1120   23.4620 C.2   250  GLN250      0.2260
     35  O         57.5800   -2.4280   22.4950 O.2   250  GLN250     -0.2867
     36  CB        55.7750   -5.1240   23.2600 C.3   250  GLN250      0.0367
     37  CG        55.6990   -6.5940   22.9460 C.3   250  GLN250      0.0905
     38  CD        54.2640   -7.0870   22.9560 C.2   250  GLN250      0.2608
     39  OE1       53.6100   -7.0890   23.9880 O.2   250  GLN250     -0.2717
     40  NE2       53.7530   -7.4410   21.7820 N.am  250  GLN250     -0.0878
     41  N         60.6440   -1.4120   22.6670 N.3   253  GLN253     -0.1231
     42  CA        60.9890   -1.3140   21.2390 C.3   253  GLN253      0.1698
     43  C         60.0130   -0.4910   20.4290 C.2   253  GLN253      0.2592
     44  O         60.1390   -0.4030   19.2120 O.2   253  GLN253     -0.2718
     45  CB        61.1140   -2.7010   20.6020 C.3   253  GLN253      0.0381
     46  CG        62.4120   -3.3970   20.9660 C.3   253  GLN253      0.0905
     47  CD        62.4710   -4.8130   20.4020 C.2   253  GLN253      0.2608
     48  OE1       62.2440   -5.0400   19.2020 O.2   253  GLN253     -0.2717
     49  NE2       62.7580   -5.7790   21.2740 N.am  253  GLN253     -0.0878
     50  N         58.9860    0.0670   21.0730 N.am  254  SER254     -0.1952
     51  CA        58.1070    0.9630   20.3710 C.3   254  SER254      0.1924
     52  C         58.8450    2.2750   20.0110 C.2   254  SER254      0.2314
     53  O         59.8420    2.6540   20.6660 O.2   254  SER254     -0.2863
     54  CB        56.8770    1.2420   21.2590 C.3   254  SER254      0.2116
     55  OG        56.1130    0.0530   21.3870 O.3   254  SER254     -0.2180
     56  N         54.0330    0.6390   17.6180 N.3   303  PRO303     -0.2102
     57  CA        54.4280   -0.5650   18.3420 C.3   303  PRO303      0.1504
     58  C         55.6340   -1.2200   17.6770 C.2   303  PRO303      0.2576
     59  O         55.8150   -1.0660   16.4740 O.2   303  PRO303     -0.2718
     60  CB        53.2120   -1.4790   18.1660 C.3   303  PRO303      0.0282
     61  CG        52.0770   -0.5600   18.0300 C.3   303  PRO303      0.0208
     62  CD        52.6170    0.6010   17.1910 C.3   303  PRO303      0.0893
     63  N         56.4060   -1.9640   18.4600 N.am  304  ALA304     -0.1966
     64  CA        57.6510   -2.5910   17.9620 C.3   304  ALA304      0.1728
     65  C         57.5640   -3.1580   16.5610 C.2   304  ALA304      0.2616
     66  O         56.6910   -4.0070   16.2320 O.2   304  ALA304     -0.2715
     67  CB        58.1230   -3.6580   18.9500 C.3   304  ALA304      0.0334
     68  N         58.4550   -2.6410   15.7160 N.am  305  VAL305     -0.1963
     69  CA        58.4380   -3.0160   14.3160 C.3   305  VAL305      0.1727
     70  C         59.3890   -4.1770   14.1020 C.2   305  VAL305      0.2616
     71  O         60.5400   -4.1070   14.4460 O.2   305  VAL305     -0.2715
     72  CB        58.8370   -1.8070   13.4440 C.3   305  VAL305      0.0290
     73  CG1       58.9930   -2.2190   11.9650 C.3   305  VAL305      0.0023
     74  CG2       57.7710   -0.6910   13.5770 C.3   305  VAL305      0.0023
     75  N         58.8780   -5.2390   13.5180 N.am  306  ARG306     -0.1977
     76  CA        59.6680   -6.4520   13.3050 C.3   306  ARG306      0.1597
     77  C         60.8540   -6.2150   12.3730 C.2   306  ARG306      0.2287
     78  O         61.9650   -6.6470   12.6760 O.2   306  ARG306     -0.2864
     79  CB        58.7250   -7.5320   12.7550 C.3   306  ARG306      0.0334
     80  CG        59.4020   -8.8430   12.4140 C.3   306  ARG306      0.0492
     81  CD        58.3460   -9.9300   12.0960 C.3   306  ARG306      0.2205
     82  NE        58.9920  -11.1980   11.7580 N.pl3 306  ARG306     -0.0865
     83  CZ        59.4420  -12.0770   12.6560 C.cat 306  ARG306      0.5346
     84  NH1       59.2960  -11.8420   13.9540 N.pl3 306  ARG306      0.1354
     85  NH2       60.0290  -13.2030   12.2580 N.pl3 306  ARG306      0.1354
     86  N         64.6370   -8.4870   14.4730 N.3   327  PRO327     -0.2116
     87  CA        63.5760   -9.4710   14.7390 C.3   327  PRO327      0.1372
     88  C         63.0930  -10.2040   13.4710 C.2   327  PRO327      0.2244
     89  O         62.9510  -11.4310   13.4990 O.2   327  PRO327     -0.2868
     90  CB        62.4800   -8.6020   15.4070 C.3   327  PRO327      0.0268
     91  CG        63.2790   -7.5480   16.1380 C.3   327  PRO327      0.0207
     92  CD        64.3500   -7.1850   15.0910 C.3   327  PRO327      0.0892
@<TRIPOS>BOND
     1    82    81    1
     2    82    83    2
     3    73    72    1
     4    81    80    1
     5    85    83    1
     6    77    78    2
     7    77    76    1
     8    80    79    1
     9    83    84    1
    10    79    76    1
    11    76    75    1
    12    72    74    1
    13    72    69    1
    14    88    89    2
    15    88    87    1
    16    75    70   am
    17    70    69    1
    18    70    71    2
    19    69    68    1
    20    86    87    1
    21    86    92    1
    22    87    90    1
    23    92    91    1
    24    90    91    1
    25    68    65   am
    26    66    65    2
    27    59    58    2
    28    65    64    1
    29    16    14    1
    30    62    56    1
    31    62    61    1
    32    56    57    1
    33    58    57    1
    34    58    63   am
    35    64    63    1
    36    64    67    1
    37    61    60    1
    38    60    57    1
    39    15    14    1
    40    12    11    2
    41    14    13    1
    42    13    10    1
    43    48    47    2
    44    44    43    2
    45    11    10    1
    46    30    29    1
    47    10     9    1
    48    52    51    1
    49    52    53    2
    50    51    50    1
    51    51    54    1
    52    47    46    1
    53    47    49   am
    54    43    50   am
    55    43    42    1
    56    45    46    1
    57    45    42    1
    58    29    28    1
    59    29    31    1
    60     4     3    2
    61     9     3   am
    62    42    41    1
    63    23    22    1
    64    23    17    1
    65    54    55    1
    66    28    25    1
    67     3     2    1
    68    40    38   am
    69    22    21    1
    70    17    18    1
    71    24    25    1
    72    24    19   am
    73    35    34    2
    74    25    26    1
    75     2     5    1
    76     2     1    1
    77    37    38    1
    78    37    36    1
    79    38    39    2
    80     5     6    1
    81    26    27    2
    82    36    33    1
    83    18    21    1
    84    18    19    1
    85    33    34    1
    86    33    32    1
    87    19    20    2
    88     6     7    2
    89     6     8   am
