@<TRIPOS>MOLECULE
tmp/4kzaB01.pdb
 123 115 0 0 0
SMALL
GASTEIGER

@<TRIPOS>ATOM
      1  N         76.3850    1.4950   29.2690 N.3    61  SER61      -0.1217
      2  CA        75.0600    1.9630   28.8050 C.3    61  SER61       0.1889
      3  C         74.1600    0.9310   28.1760 C.2    61  SER61       0.2288
      4  O         72.9710    1.1820   27.9880 O.2    61  SER61      -0.2866
      5  CB        75.1880    3.1630   27.8690 C.3    61  SER61       0.2089
      6  OG        75.6000    4.2700   28.6380 O.3    61  SER61      -0.2183
      7  N         74.5390   14.9300   30.4120 N.3   116  LEU116     -0.1231
      8  CA        75.0480   13.5820   30.1910 C.3   116  LEU116      0.1693
      9  C         75.3390   12.8440   31.4750 C.2   116  LEU116      0.2591
     10  O         74.9230   11.7040   31.6270 O.2   116  LEU116     -0.2718
     11  CB        76.3370   13.6130   29.3600 C.3   116  LEU116      0.0284
     12  CG        76.9210   12.2400   28.9900 C.3   116  LEU116      0.0019
     13  CD1       75.9550   11.2820   28.2450 C.3   116  LEU116      0.0001
     14  CD2       78.1780   12.4420   28.1140 C.3   116  LEU116      0.0001
     15  N         76.0730   13.4700   32.3870 N.am  117  GLN117     -0.1979
     16  CA        76.3130   12.8590   33.6950 C.3   117  GLN117      0.1601
     17  C         75.6360   13.5980   34.8380 C.2   117  GLN117      0.2287
     18  O         75.5430   14.8310   34.8140 O.2   117  GLN117     -0.2864
     19  CB        77.8270   12.8680   33.9790 C.3   117  GLN117      0.0394
     20  CG        78.6810   12.2010   32.9180 C.3   117  GLN117      0.0908
     21  CD        78.4500   10.7030   32.7790 C.2   117  GLN117      0.2608
     22  OE1       77.7310   10.0770   33.5610 O.2   117  GLN117     -0.2717
     23  NE2       79.0870   10.1180   31.7720 N.am  117  GLN117     -0.0878
     24  N         71.2400   12.6400   24.7110 N.3   147  TYR147     -0.1241
     25  CA        71.5410   11.4370   25.4790 C.3   147  TYR147      0.1605
     26  C         72.0660   11.8080   26.8410 C.2   147  TYR147      0.2264
     27  O         72.9940   12.6040   26.9660 O.2   147  TYR147     -0.2867
     28  CB        72.6270   10.6530   24.7350 C.3   147  TYR147      0.0534
     29  CG        72.8750    9.2790   25.2730 C.ar  147  TYR147     -0.0201
     30  CD1       73.9120    9.0250   26.1390 C.ar  147  TYR147     -0.0009
     31  CD2       72.0790    8.2070   24.8730 C.ar  147  TYR147     -0.0009
     32  CE1       74.1470    7.7490   26.6100 C.ar  147  TYR147      0.0417
     33  CE2       72.3130    6.9370   25.3350 C.ar  147  TYR147      0.0417
     34  CZ        73.3510    6.7280   26.1950 C.ar  147  TYR147      0.1957
     35  OH        73.5970    5.4750   26.6400 O.3   147  TYR147     -0.2866
     36  N         72.5260   10.3030   31.0760 N.3   149  ASN149     -0.1240
     37  CA        72.3880    9.4090   32.2290 C.3   149  ASN149      0.1653
     38  C         71.4590    9.9930   33.2850 C.2   149  ASN149      0.2266
     39  O         70.7410    9.2610   33.9610 O.2   149  ASN149     -0.2867
     40  CB        73.7810    9.1500   32.8710 C.3   149  ASN149      0.1155
     41  CG        74.6330    8.2190   32.0340 C.2   149  ASN149      0.2627
     42  OD1       74.1050    7.5200   31.1590 O.2   149  ASN149     -0.2716
     43  ND2       75.9680    8.2160   32.2580 N.am  149  ASN149     -0.0877
     44  N         73.9300    2.7170   34.0010 N.3   218  TYR218     -0.1241
     45  CA        75.1150    2.0620   33.4590 C.3   218  TYR218      0.1605
     46  C         75.6850    0.9610   34.2910 C.2   218  TYR218      0.2264
     47  O         76.8350    0.5610   34.0630 O.2   218  TYR218     -0.2867
     48  CB        76.2040    3.0780   33.0900 C.3   218  TYR218      0.0534
     49  CG        76.6360    3.9600   34.2440 C.ar  218  TYR218     -0.0201
     50  CD1       77.5660    3.5150   35.1810 C.ar  218  TYR218     -0.0009
     51  CD2       76.1140    5.2370   34.3990 C.ar  218  TYR218     -0.0009
     52  CE1       77.9520    4.3320   36.2290 C.ar  218  TYR218      0.0417
     53  CE2       76.4670    6.0560   35.4630 C.ar  218  TYR218      0.0417
     54  CZ        77.3940    5.6040   36.3620 C.ar  218  TYR218      0.1957
     55  OH        77.7690    6.4100   37.4220 O.3   218  TYR218     -0.2866
     56  N         80.5370    9.0630   19.1280 N.3   286  ASN286     -0.1240
     57  CA        80.0030    9.9580   20.1600 C.3   286  ASN286      0.1653
     58  C         79.8670   11.4220   19.7240 C.2   286  ASN286      0.2266
     59  O         79.1010   12.1610   20.3100 O.2   286  ASN286     -0.2867
     60  CB        80.7870    9.8260   21.4750 C.3   286  ASN286      0.1155
     61  CG        80.4700    8.5280   22.1970 C.2   286  ASN286      0.2627
     62  OD1       79.3750    7.9790   22.0560 O.2   286  ASN286     -0.2716
     63  ND2       81.4160    8.0350   22.9740 N.am  286  ASN286     -0.0877
     64  N         76.1170   11.6900   21.0720 N.3   290  LEU290     -0.1245
     65  CA        75.9480   12.4630   22.3030 C.3   290  LEU290      0.1561
     66  C         75.5480   13.9110   22.0320 C.2   290  LEU290      0.2260
     67  O         75.4550   14.7190   22.9620 O.2   290  LEU290     -0.2867
     68  CB        77.2660   12.4510   23.1180 C.3   290  LEU290      0.0270
     69  CG        77.7880   11.0820   23.5220 C.3   290  LEU290      0.0019
     70  CD1       79.0290   11.2940   24.3940 C.3   290  LEU290      0.0001
     71  CD2       76.7310   10.1760   24.1870 C.3   290  LEU290      0.0001
     72  N         72.1310   -1.1200   20.8170 N.3   312  LYS312     -0.1231
     73  CA        72.6150   -0.2180   21.8610 C.3   312  LYS312      0.1693
     74  C         74.0980   -0.4160   22.0870 C.2   312  LYS312      0.2593
     75  O         74.5320   -1.5360   22.3050 O.2   312  LYS312     -0.2718
     76  CB        71.8420   -0.4650   23.1730 C.3   312  LYS312      0.0285
     77  CG        72.1910    0.5520   24.2440 C.3   312  LYS312      0.0035
     78  CD        71.5660    1.9440   23.9290 C.3   312  LYS312      0.0206
     79  CE        71.9390    2.9940   24.9910 C.3   312  LYS312      0.1093
     80  NZ        73.3300    3.6050   24.7330 N.3   312  LYS312     -0.1314
     81  N         74.8530    0.6750   22.0900 N.am  313  THR313     -0.1939
     82  CA        76.2710    0.6490   22.4750 C.3   313  THR313      0.2028
     83  C         76.3580    0.9160   23.9800 C.2   313  THR313      0.2643
     84  O         75.4780    1.5600   24.5560 O.2   313  THR313     -0.2714
     85  CB        77.0440    1.7590   21.7770 C.3   313  THR313      0.1808
     86  OG1       76.3800    3.0080   22.0020 O.3   313  THR313     -0.2208
     87  CG2       77.1310    1.4920   20.2620 C.3   313  THR313      0.0379
     88  N         77.4290    0.4790   24.6270 N.am  314  GLY314     -0.1939
     89  CA        77.6080    0.8720   26.0190 C.3   314  GLY314      0.2014
     90  C         79.0600    0.7230   26.4400 C.2   314  GLY314      0.2639
     91  O         79.7540   -0.1710   25.9580 O.2   314  GLY314     -0.2714
     92  N         79.5010    1.5760   27.3560 N.am  315  ALA315     -0.1963
     93  CA        80.8670    1.4440   27.8370 C.3   315  ALA315      0.1728
     94  C         80.9660    1.8410   29.2990 C.2   315  ALA315      0.2617
     95  O         80.0870    2.5050   29.8090 O.2   315  ALA315     -0.2715
     96  CB        81.8010    2.3310   27.0060 C.3   315  ALA315      0.0334
     97  N         82.0580    1.4340   29.9320 N.am  316  THR316     -0.1937
     98  CA        82.5040    2.0310   31.1860 C.3   316  THR316      0.2028
     99  C         83.9640    2.3980   30.9760 C.2   316  THR316      0.2642
    100  O         84.4900    2.2270   29.8690 O.2   316  THR316     -0.2714
    101  CB        82.4150    1.0690   32.3800 C.3   316  THR316      0.1808
    102  OG1       83.2340   -0.0780   32.1320 O.3   316  THR316     -0.2208
    103  CG2       80.9820    0.6080   32.6560 C.3   316  THR316      0.0379
    104  N         84.6320    2.8720   32.0270 N.am  317  GLY317     -0.1954
    105  CA        86.0450    3.2110   31.8890 C.3   317  GLY317      0.1869
    106  C         86.8740    2.0670   31.3100 C.2   317  GLY317      0.2309
    107  O         87.7860    2.3080   30.5140 O.2   317  GLY317     -0.2863
    108  N         87.3670   -0.2440   26.6200 N.3   340  ASN340     -0.1240
    109  CA        86.4990    0.6900   25.9160 C.3   340  ASN340      0.1653
    110  C         87.1520    1.1500   24.6090 C.2   340  ASN340      0.2266
    111  O         88.0060    2.0330   24.6120 O.2   340  ASN340     -0.2867
    112  CB        86.1920    1.8970   26.8160 C.3   340  ASN340      0.1155
    113  CG        85.3500    2.9720   26.1310 C.2   340  ASN340      0.2627
    114  OD1       84.8140    2.7720   25.0490 O.2   340  ASN340     -0.2716
    115  ND2       85.2270    4.1270   26.7780 N.am  340  ASN340     -0.0877
    116  N         83.0840    3.1580   19.5240 N.3   343  ASN343     -0.1240
    117  CA        81.7950    2.6780   19.0310 C.3   343  ASN343      0.1653
    118  C         81.7680    2.2910   17.5550 C.2   343  ASN343      0.2266
    119  O         81.2080    1.2630   17.2390 O.2   343  ASN343     -0.2867
    120  CB        80.6710    3.6900   19.2560 C.3   343  ASN343      0.1155
    121  CG        80.3050    3.8500   20.7210 C.2   343  ASN343      0.2627
    122  OD1       80.5030    2.9420   21.5300 O.2   343  ASN343     -0.2716
    123  ND2       79.7620    5.0060   21.0610 N.am  343  ASN343     -0.0877
@<TRIPOS>BOND
     1   119   118    2
     2   118   117    1
     3   117   120    1
     4   117   116    1
     5    56    57    1
     6   120   121    1
     7    58    57    1
     8    58    59    2
     9    57    60    1
    10    87    85    1
    11   121   123   am
    12   121   122    2
    13    72    73    1
    14    64    65    1
    15    60    61    1
    16    85    86    1
    17    85    82    1
    18    73    74    1
    19    73    76    1
    20    66    65    1
    21    66    67    2
    22    62    61    2
    23    74    81   am
    24    74    75    2
    25    81    82    1
    26    61    63   am
    27    65    68    1
    28    82    83    1
    29    68    69    1
    30    76    77    1
    31    69    71    1
    32    69    70    1
    33    78    77    1
    34    78    79    1
    35    83    84    2
    36    83    88   am
    37   110   111    2
    38   110   109    1
    39    88    89    1
    40    24    25    1
    41    80    79    1
    42    28    29    1
    43    28    25    1
    44    31    29   ar
    45    31    33   ar
    46   114   113    2
    47    29    30   ar
    48    33    34   ar
    49    25    26    1
    50   109   108    1
    51   109   112    1
    52    91    90    2
    53    89    90    1
    54   113   115   am
    55   113   112    1
    56    30    32   ar
    57    34    32   ar
    58    34    35    1
    59    90    92   am
    60    26    27    2
    61    96    93    1
    62    92    93    1
    63    93    94    1
    64     5     6    1
    65     5     2    1
    66     4     3    2
    67    14    12    1
    68     3     2    1
    69    13    12    1
    70     2     1    1
    71    12    11    1
    72    94    95    2
    73    94    97   am
    74    11     8    1
    75   100    99    2
    76    97    98    1
    77     8     7    1
    78     8     9    1
    79   107   106    2
    80    99    98    1
    81    99   104   am
    82    36    37    1
    83    42    41    2
    84    98   101    1
    85   106   105    1
    86     9    10    2
    87     9    15   am
    88    23    21   am
    89   105   104    1
    90    41    43   am
    91    41    40    1
    92   102   101    1
    93    37    40    1
    94    37    38    1
    95   101   103    1
    96    15    16    1
    97    21    20    1
    98    21    22    2
    99    20    19    1
   100    48    45    1
   101    48    49    1
   102    38    39    2
   103    45    44    1
   104    45    46    1
   105    16    19    1
   106    16    17    1
   107    47    46    2
   108    49    51   ar
   109    49    50   ar
   110    51    53   ar
   111    18    17    2
   112    50    52   ar
   113    53    54   ar
   114    52    54   ar
   115    54    55    1
