@<TRIPOS>MOLECULE
tmp/4kzaB03.pdb
 87 84 0 0 0
SMALL
GASTEIGER

@<TRIPOS>ATOM
      1  N         76.0730   13.4700   32.3870 N.3   117  GLN117     -0.1245
      2  CA        76.3130   12.8590   33.6950 C.3   117  GLN117      0.1566
      3  C         75.6360   13.5980   34.8380 C.2   117  GLN117      0.2260
      4  O         75.5430   14.8310   34.8140 O.2   117  GLN117     -0.2867
      5  CB        77.8270   12.8680   33.9790 C.3   117  GLN117      0.0367
      6  CG        78.6810   12.2010   32.9180 C.3   117  GLN117      0.0905
      7  CD        78.4500   10.7030   32.7790 C.2   117  GLN117      0.2608
      8  OE1       77.7310   10.0770   33.5610 O.2   117  GLN117     -0.2717
      9  NE2       79.0870   10.1180   31.7720 N.am  117  GLN117     -0.0878
     10  N         79.5950   14.7380   39.6280 N.3   120  ASP120     -0.1239
     11  CA        80.3720   13.7960   40.4390 C.3   120  ASP120      0.1674
     12  C         80.0190   13.8400   41.9250 C.2   120  ASP120      0.2266
     13  O         79.9510   12.8120   42.6110 O.2   120  ASP120     -0.2867
     14  CB        81.8790   14.1260   40.3360 C.3   120  ASP120      0.1410
     15  CG        82.3570   14.3660   38.9030 C.2   120  ASP120      0.3668
     16  OD1       83.3430   15.1330   38.7250 O.co2 120  ASP120     -0.2456
     17  OD2       81.7740   13.7890   37.9680 O.co2 120  ASP120     -0.2456
     18  N         72.5260   10.3030   31.0760 N.3   149  ASN149     -0.1240
     19  CA        72.3880    9.4090   32.2290 C.3   149  ASN149      0.1653
     20  C         71.4590    9.9930   33.2850 C.2   149  ASN149      0.2266
     21  O         70.7410    9.2610   33.9610 O.2   149  ASN149     -0.2867
     22  CB        73.7810    9.1500   32.8710 C.3   149  ASN149      0.1155
     23  CG        74.6330    8.2190   32.0340 C.2   149  ASN149      0.2627
     24  OD1       74.1050    7.5200   31.1590 O.2   149  ASN149     -0.2716
     25  ND2       75.9680    8.2160   32.2580 N.am  149  ASN149     -0.0877
     26  N         87.5390   -1.2770   37.6270 N.3   207  HIS207     -0.1226
     27  CA        86.1090   -1.5660   37.6560 C.3   207  HIS207      0.1752
     28  C         85.3660   -0.2490   37.7920 C.2   207  HIS207      0.2596
     29  O         85.9320    0.7490   38.2670 O.2   207  HIS207     -0.2718
     30  CB        85.7660   -2.4680   38.8380 C.3   207  HIS207      0.0759
     31  CG        86.0450   -3.9120   38.5950 C.ar  207  HIS207      0.0818
     32  ND1       86.3300   -4.7900   39.6170 N.ar  207  HIS207     -0.2268
     33  CD2       86.0650   -4.6390   37.4530 C.ar  207  HIS207      0.1154
     34  CE1       86.5110   -5.9970   39.1150 C.ar  207  HIS207      0.1986
     35  NE2       86.3650   -5.9320   37.8050 N.ar  207  HIS207     -0.2212
     36  N         84.0980   -0.2530   37.4120 N.am  208  VAL208     -0.1966
     37  CA        83.2910    0.9480   37.3800 C.3   208  VAL208      0.1727
     38  C         83.1720    1.4930   38.8070 C.2   208  VAL208      0.2617
     39  O         83.0810    0.7170   39.7630 O.2   208  VAL208     -0.2715
     40  CB        81.8960    0.6310   36.8080 C.3   208  VAL208      0.0290
     41  CG1       81.1980   -0.4370   37.6600 C.3   208  VAL208      0.0023
     42  CG2       81.0680    1.8970   36.6670 C.3   208  VAL208      0.0023
     43  N         83.2360    2.8120   38.9490 N.am  209  SER209     -0.1936
     44  CA        83.1240    3.4550   40.2530 C.3   209  SER209      0.2040
     45  C         81.6630    3.7310   40.6110 C.2   209  SER209      0.2485
     46  O         80.8260    3.9220   39.7210 O.2   209  SER209     -0.2729
     47  CB        83.8860    4.7740   40.2400 C.3   209  SER209      0.2129
     48  OG        85.2660    4.5390   40.0250 O.3   209  SER209     -0.2179
     49  N         81.3620    3.7790   41.9160 N.am  210  PRO210     -0.2715
     50  CA        80.0010    4.1300   42.3370 C.3   210  PRO210      0.1536
     51  C         79.6420    5.5510   41.9280 C.2   210  PRO210      0.2599
     52  O         80.5040    6.4320   41.9380 O.2   210  PRO210     -0.2715
     53  CB        80.0720    4.0710   43.8580 C.3   210  PRO210      0.0310
     54  CG        81.2640    3.2160   44.1660 C.3   210  PRO210      0.0237
     55  CD        82.2390    3.4480   43.0560 C.3   210  PRO210      0.0939
     56  N         78.3700    5.7710   41.5990 N.am  211  GLY211     -0.1955
     57  CA        77.9100    7.0900   41.2470 C.3   211  GLY211      0.1869
     58  C         76.4060    7.1550   41.3980 C.2   211  GLY211      0.2309
     59  O         75.7170    6.1200   41.3900 O.2   211  GLY211     -0.2863
     60  N         73.9300    2.7170   34.0010 N.3   218  TYR218     -0.1241
     61  CA        75.1150    2.0620   33.4590 C.3   218  TYR218      0.1605
     62  C         75.6850    0.9610   34.2910 C.2   218  TYR218      0.2264
     63  O         76.8350    0.5610   34.0630 O.2   218  TYR218     -0.2867
     64  CB        76.2040    3.0780   33.0900 C.3   218  TYR218      0.0534
     65  CG        76.6360    3.9600   34.2440 C.ar  218  TYR218     -0.0201
     66  CD1       77.5660    3.5150   35.1810 C.ar  218  TYR218     -0.0009
     67  CD2       76.1140    5.2370   34.3990 C.ar  218  TYR218     -0.0009
     68  CE1       77.9520    4.3320   36.2290 C.ar  218  TYR218      0.0417
     69  CE2       76.4670    6.0560   35.4630 C.ar  218  TYR218      0.0417
     70  CZ        77.3940    5.6040   36.3620 C.ar  218  TYR218      0.1957
     71  OH        77.7690    6.4100   37.4220 O.3   218  TYR218     -0.2866
     72  N         79.5010    1.5760   27.3560 N.3   315  ALA315     -0.1231
     73  CA        80.8670    1.4440   27.8370 C.3   315  ALA315      0.1694
     74  C         80.9660    1.8410   29.2990 C.2   315  ALA315      0.2593
     75  O         80.0870    2.5050   29.8090 O.2   315  ALA315     -0.2718
     76  CB        81.8010    2.3310   27.0060 C.3   315  ALA315      0.0304
     77  N         82.0580    1.4340   29.9320 N.am  316  THR316     -0.1939
     78  CA        82.5040    2.0310   31.1860 C.3   316  THR316      0.2028
     79  C         83.9640    2.3980   30.9760 C.2   316  THR316      0.2642
     80  O         84.4900    2.2270   29.8690 O.2   316  THR316     -0.2714
     81  CB        82.4150    1.0690   32.3800 C.3   316  THR316      0.1808
     82  OG1       83.2340   -0.0780   32.1320 O.3   316  THR316     -0.2208
     83  CG2       80.9820    0.6080   32.6560 C.3   316  THR316      0.0379
     84  N         84.6320    2.8720   32.0270 N.am  317  GLY317     -0.1954
     85  CA        86.0450    3.2110   31.8890 C.3   317  GLY317      0.1869
     86  C         86.8740    2.0670   31.3100 C.2   317  GLY317      0.2309
     87  O         87.7860    2.3080   30.5140 O.2   317  GLY317     -0.2863
@<TRIPOS>BOND
     1    76    73    1
     2    72    73    1
     3    73    74    1
     4    74    75    2
     5    74    77   am
     6    80    79    2
     7    77    78    1
     8    87    86    2
     9    79    78    1
    10    79    84   am
    11    18    19    1
    12    24    23    2
    13    78    81    1
    14    86    85    1
    15     9     7   am
    16    85    84    1
    17    23    25   am
    18    23    22    1
    19    82    81    1
    20    19    22    1
    21    19    20    1
    22    81    83    1
    23     1     2    1
    24     7     6    1
    25     7     8    2
    26     6     5    1
    27    64    61    1
    28    64    65    1
    29    20    21    2
    30    61    60    1
    31    61    62    1
    32     2     5    1
    33     2     3    1
    34    63    62    2
    35    65    67   ar
    36    65    66   ar
    37    67    69   ar
    38     4     3    2
    39    66    68   ar
    40    69    70   ar
    41    68    70   ar
    42    70    71    1
    43    42    40    1
    44    40    37    1
    45    40    41    1
    46    37    36    1
    47    37    38    1
    48    36    28   am
    49    33    35   ar
    50    33    31   ar
    51    26    27    1
    52    27    28    1
    53    27    30    1
    54    28    29    2
    55    35    34   ar
    56    17    15   ar
    57    31    30    1
    58    31    32   ar
    59    16    15   ar
    60    38    43   am
    61    38    39    2
    62    15    14    1
    63    43    44    1
    64    34    32   ar
    65    10    11    1
    66    46    45    2
    67    48    47    1
    68    47    44    1
    69    44    45    1
    70    14    11    1
    71    11    12    1
    72    45    49   am
    73    57    58    1
    74    57    56    1
    75    59    58    2
    76    56    51   am
    77    49    50    1
    78    49    55    1
    79    12    13    2
    80    51    52    2
    81    51    50    1
    82    50    53    1
    83    55    54    1
    84    53    54    1
