@<TRIPOS>MOLECULE
tmp/4kzbA03.pdb
 109 105 0 0 0
SMALL
GASTEIGER

@<TRIPOS>ATOM
      1  N         26.9690   12.5920   10.5350 N.3   117  GLN117     -0.1231
      2  CA        26.6020   11.8270    9.3490 C.3   117  GLN117      0.1698
      3  C         27.2810   12.3350    8.0980 C.2   117  GLN117      0.2592
      4  O         27.4750   13.5420    7.9190 O.2   117  GLN117     -0.2718
      5  CB        25.0870   11.8720    9.0950 C.3   117  GLN117      0.0381
      6  CG        24.2320   11.5340   10.3080 C.3   117  GLN117      0.0905
      7  CD        24.3020   10.0660   10.7220 C.2   117  GLN117      0.2608
      8  OE1       25.0460    9.2740   10.1490 O.2   117  GLN117     -0.2717
      9  NE2       23.5110    9.7010   11.7260 N.am  117  GLN117     -0.0878
     10  N         27.6320   11.3960    7.2240 N.am  118  VAL118     -0.1980
     11  CA        27.8830   11.7180    5.8300 C.3   118  VAL118      0.1595
     12  C         26.5500   12.1510    5.2440 C.2   118  VAL118      0.2287
     13  O         25.5420   11.4960    5.4730 O.2   118  VAL118     -0.2864
     14  CB        28.4040   10.4890    5.0560 C.3   118  VAL118      0.0276
     15  CG1       28.6360   10.8500    3.5840 C.3   118  VAL118      0.0022
     16  CG2       29.6820    9.9480    5.6850 C.3   118  VAL118      0.0022
     17  N         23.2470   12.5950    3.1100 N.3   120  ASP120     -0.1239
     18  CA        22.4880   11.6040    2.3410 C.3   120  ASP120      0.1674
     19  C         22.7240   11.7460    0.8400 C.2   120  ASP120      0.2266
     20  O         22.6790   10.7580    0.0990 O.2   120  ASP120     -0.2867
     21  CB        20.9830   11.7210    2.6270 C.3   120  ASP120      0.1410
     22  CG        20.1750   10.5180    2.2000 C.2   120  ASP120      0.3668
     23  OD1       20.7000    9.5160    1.7410 O.co2 120  ASP120     -0.2456
     24  OD2       18.9660   10.5060    2.4460 O.co2 120  ASP120     -0.2456
     25  N         30.2850    9.4880   12.3850 N.3   149  ASN149     -0.1240
     26  CA        30.3910    8.4040   11.4120 C.3   149  ASN149      0.1653
     27  C         31.3060    8.8070   10.2740 C.2   149  ASN149      0.2266
     28  O         31.9990    7.9650    9.7110 O.2   149  ASN149     -0.2867
     29  CB        29.0150    8.0250   10.8730 C.3   149  ASN149      0.1155
     30  CG        28.1320    7.4640   11.9470 C.2   149  ASN149      0.2627
     31  OD1       28.6340    6.8120   12.8550 O.2   149  ASN149     -0.2716
     32  ND2       26.8110    7.7240   11.8690 N.am  149  ASN149     -0.0877
     33  N         10.2170    0.8440   14.6300 N.3   201  ARG201     -0.1245
     34  CA        10.2590    2.2760   14.8770 C.3   201  ARG201      0.1563
     35  C          8.8690    2.8180   14.5950 C.2   201  ARG201      0.2260
     36  O          8.3630    2.6410   13.4940 O.2   201  ARG201     -0.2867
     37  CB        11.2850    2.9430   13.9560 C.3   201  ARG201      0.0307
     38  CG        11.4360    4.4460   14.1810 C.3   201  ARG201      0.0489
     39  CD        12.3490    5.0690   13.1340 C.3   201  ARG201      0.2205
     40  NE        12.3410    6.5200   13.2360 N.pl3 201  ARG201     -0.0865
     41  CZ        11.4740    7.3020   12.6030 C.cat 201  ARG201      0.5346
     42  NH1       10.5450    6.7640   11.8220 N.pl3 201  ARG201      0.1354
     43  NH2       11.5360    8.6200   12.7520 N.pl3 201  ARG201      0.1354
     44  N         14.4840   -2.1050    8.5170 N.3   207  HIS207     -0.1226
     45  CA        15.8940   -2.4750    8.5190 C.3   207  HIS207      0.1752
     46  C         16.7240   -1.2540    8.1490 C.2   207  HIS207      0.2596
     47  O         16.2260   -0.3250    7.4910 O.2   207  HIS207     -0.2718
     48  CB        16.1800   -3.6220    7.5370 C.3   207  HIS207      0.0759
     49  CG        15.7900   -4.9700    8.0610 C.ar  207  HIS207      0.0818
     50  ND1       15.3230   -5.9910    7.2580 N.ar  207  HIS207     -0.2268
     51  CD2       15.8230   -5.4680    9.3190 C.ar  207  HIS207      0.1154
     52  CE1       15.0770   -7.0540    8.0050 C.ar  207  HIS207      0.1986
     53  NE2       15.3740   -6.7660    9.2620 N.ar  207  HIS207     -0.2212
     54  N         17.9920   -1.2760    8.5400 N.am  208  VAL208     -0.1966
     55  CA        18.8850   -0.1560    8.2780 C.3   208  VAL208      0.1727
     56  C         18.9640    0.1530    6.7880 C.2   208  VAL208      0.2617
     57  O         19.0280   -0.7520    5.9450 O.2   208  VAL208     -0.2715
     58  CB        20.2780   -0.4380    8.9180 C.3   208  VAL208      0.0290
     59  CG1       20.9320   -1.6590    8.2770 C.3   208  VAL208      0.0023
     60  CG2       21.1680    0.8120    8.8790 C.3   208  VAL208      0.0023
     61  N         18.9540    1.4380    6.4710 N.am  209  SER209     -0.1936
     62  CA        19.0450    1.8620    5.0840 C.3   209  SER209      0.2040
     63  C         20.5060    1.9220    4.6230 C.2   209  SER209      0.2485
     64  O         21.4010    2.2100    5.4150 O.2   209  SER209     -0.2729
     65  CB        18.4250    3.2460    4.9310 C.3   209  SER209      0.2129
     66  OG        17.0340    3.1970    5.2130 O.3   209  SER209     -0.2179
     67  N         20.7490    1.6750    3.3290 N.am  210  PRO210     -0.2715
     68  CA        22.1110    1.8230    2.8030 C.3   210  PRO210      0.1536
     69  C         22.5890    3.2570    2.9240 C.2   210  PRO210      0.2599
     70  O         21.7810    4.1800    2.7660 O.2   210  PRO210     -0.2715
     71  CB        21.9370    1.4860    1.3230 C.3   210  PRO210      0.0310
     72  CG        20.7380    0.6210    1.2730 C.3   210  PRO210      0.0237
     73  CD        19.8220    1.1590    2.3090 C.3   210  PRO210      0.0939
     74  N         23.8670    3.4540    3.2190 N.am  211  GLY211     -0.1955
     75  CA        24.4220    4.7950    3.2290 C.3   211  GLY211      0.1869
     76  C         25.9300    4.7440    3.0790 C.2   211  GLY211      0.2309
     77  O         26.5590    3.6980    3.2580 O.2   211  GLY211     -0.2863
     78  N         28.2920    1.6740   11.1880 N.3   218  TYR218     -0.1241
     79  CA        27.1120    1.1710   11.8980 C.3   218  TYR218      0.1605
     80  C         26.4810   -0.0580   11.2600 C.2   218  TYR218      0.2264
     81  O         25.3040   -0.3200   11.5110 O.2   218  TYR218     -0.2867
     82  CB        26.0420    2.2740   12.0340 C.3   218  TYR218      0.0534
     83  CG        25.6570    2.9660   10.7360 C.ar  218  TYR218     -0.0201
     84  CD1       24.7080    2.4220    9.8910 C.ar  218  TYR218     -0.0009
     85  CD2       26.2210    4.1800   10.3860 C.ar  218  TYR218     -0.0009
     86  CE1       24.3370    3.0590    8.6990 C.ar  218  TYR218      0.0417
     87  CE2       25.8680    4.8270    9.2160 C.ar  218  TYR218      0.0417
     88  CZ        24.9250    4.2620    8.3680 C.ar  218  TYR218      0.1957
     89  OH        24.5650    4.9010    7.1910 O.3   218  TYR218     -0.2866
     90  N         22.9200    2.1270   17.9120 N.3   315  ALA315     -0.1231
     91  CA        21.5440    1.9400   17.4750 C.3   315  ALA315      0.1694
     92  C         21.4490    2.0670   15.9590 C.2   315  ALA315      0.2593
     93  O         22.3760    2.5850   15.3030 O.2   315  ALA315     -0.2718
     94  CB        20.6630    2.9930   18.1280 C.3   315  ALA315      0.0304
     95  N         20.3390    1.5840   15.4150 N.am  316  THR316     -0.1939
     96  CA        19.9050    1.9820   14.0850 C.3   316  THR316      0.2028
     97  C         18.4800    2.4920   14.2650 C.2   316  THR316      0.2643
     98  O         17.9870    2.5840   15.4010 O.2   316  THR316     -0.2714
     99  CB        19.8970    0.8090   13.0840 C.3   316  THR316      0.1808
    100  OG1       19.0340   -0.2150   13.5830 O.3   316  THR316     -0.2208
    101  CG2       21.3020    0.2500   12.8920 C.3   316  THR316      0.0379
    102  N         17.7990    2.8190   13.1760 N.am  317  GLY317     -0.1939
    103  CA        16.4440    3.3390   13.3300 C.3   317  GLY317      0.2014
    104  C         15.5350    2.4070   14.1350 C.2   317  GLY317      0.2639
    105  O         14.6570    2.8650   14.8600 O.2   317  GLY317     -0.2714
    106  N         15.7360    1.0970   14.0010 N.am  318  GLY318     -0.1954
    107  CA        14.8890    0.1120   14.6390 C.3   318  GLY318      0.1869
    108  C         15.5050   -0.7630   15.7020 C.2   318  GLY318      0.2309
    109  O         14.8330   -1.6740   16.1780 O.2   318  GLY318     -0.2863
@<TRIPOS>BOND
     1    20    19    2
     2    19    18    1
     3    72    71    1
     4    72    73    1
     5    71    68    1
     6    23    22   ar
     7    22    24   ar
     8    22    21    1
     9    73    67    1
    10    18    21    1
    11    18    17    1
    12    70    69    2
    13    68    69    1
    14    68    67    1
    15    69    74   am
    16    76    75    1
    17    76    77    2
    18    74    75    1
    19    67    63   am
    20    15    14    1
    21    63    62    1
    22    63    64    2
    23    65    62    1
    24    65    66    1
    25    14    16    1
    26    14    11    1
    27    62    61    1
    28    12    13    2
    29    12    11    1
    30    11    10    1
    31    57    56    2
    32    61    56   am
    33    56    55    1
    34    89    88    1
    35    10     3   am
    36    50    52   ar
    37    50    49   ar
    38    47    46    2
    39    48    49    1
    40    48    45    1
    41     4     3    2
    42    52    53   ar
    43    49    51   ar
    44     3     2    1
    45    46    45    1
    46    46    54   am
    47    59    58    1
    48    55    54    1
    49    55    58    1
    50    88    86   ar
    51    88    87   ar
    52    44    45    1
    53    86    84   ar
    54    60    58    1
    55     5     2    1
    56     5     6    1
    57    87    85   ar
    58    53    51   ar
    59     2     1    1
    60    28    27    2
    61    84    83   ar
    62     8     7    2
    63    27    26    1
    64     6     7    1
    65    85    83   ar
    66     7     9   am
    67    83    82    1
    68    29    26    1
    69    29    30    1
    70    78    79    1
    71    80    81    2
    72    80    79    1
    73    26    25    1
    74    42    41    1
    75    32    30   am
    76    79    82    1
    77    30    31    2
    78    41    43    1
    79    41    40    2
    80   101    99    1
    81    99   100    1
    82    99    96    1
    83    39    40    1
    84    39    38    1
    85   102   103    1
    86   102    97   am
    87   103   104    1
    88    36    35    2
    89    37    38    1
    90    37    34    1
    91   106   104   am
    92   106   107    1
    93    96    97    1
    94    96    95    1
    95   104   105    2
    96    97    98    2
    97    35    34    1
    98    33    34    1
    99   107   108    1
   100    93    92    2
   101    95    92   am
   102   108   109    2
   103    92    91    1
   104    91    90    1
   105    91    94    1
