@<TRIPOS>MOLECULE
tmp/4kzbA01.pdb
 88 85 0 0 0
SMALL
GASTEIGER

@<TRIPOS>ATOM
      1  N         37.5910   -9.6890   23.5360 N.3   234  ASN234     -0.1225
      2  CA        38.0900   -8.4070   24.0260 C.3   234  ASN234      0.1785
      3  C         38.4710   -8.4370   25.5120 C.2   234  ASN234      0.2597
      4  O         39.2690   -7.6150   25.9550 O.2   234  ASN234     -0.2718
      5  CB        37.0640   -7.3090   23.7240 C.3   234  ASN234      0.1169
      6  CG        37.0610   -6.9090   22.2560 C.2   234  ASN234      0.2627
      7  OD1       37.7480   -5.9590   21.8540 O.2   234  ASN234     -0.2716
      8  ND2       36.2580   -7.6070   21.4400 N.am  234  ASN234     -0.0877
      9  N         37.9190   -9.3910   26.2680 N.am  235  LEU235     -0.1966
     10  CA        38.3070   -9.6440   27.6580 C.3   235  LEU235      0.1728
     11  C         39.6550  -10.3650   27.7710 C.2   235  LEU235      0.2616
     12  O         40.4250  -10.1300   28.7240 O.2   235  LEU235     -0.2715
     13  CB        37.2430  -10.5050   28.3580 C.3   235  LEU235      0.0311
     14  CG        36.0070   -9.7720   28.8780 C.3   235  LEU235      0.0022
     15  CD1       34.9560  -10.7920   29.3100 C.3   235  LEU235      0.0001
     16  CD2       36.3660   -8.9230   30.0760 C.3   235  LEU235      0.0001
     17  N         39.9240  -11.2480   26.8210 N.am  236  LYS236     -0.1964
     18  CA        41.0980  -12.1240   26.8820 C.3   236  LYS236      0.1713
     19  C         41.8300  -12.1570   25.5490 C.2   236  LYS236      0.2458
     20  O         41.9090  -13.1930   24.8810 O.2   236  LYS236     -0.2730
     21  CB        40.6930  -13.5400   27.2870 C.3   236  LYS236      0.0311
     22  CG        40.2870  -13.6820   28.7470 C.3   236  LYS236      0.0038
     23  CD        41.4830  -13.6000   29.6610 C.3   236  LYS236      0.0206
     24  CE        41.0650  -13.7810   31.1170 C.3   236  LYS236      0.1093
     25  NZ        42.1700  -13.4570   32.0660 N.3   236  LYS236     -0.1314
     26  N         42.3990  -11.0130   25.1540 N.am  237  PRO237     -0.2716
     27  CA        43.0490  -10.9500   23.8430 C.3   237  PRO237      0.1536
     28  C         44.2320  -11.9130   23.7290 C.2   237  PRO237      0.2598
     29  O         44.5500  -12.3420   22.6350 O.2   237  PRO237     -0.2715
     30  CB        43.5210   -9.4900   23.7470 C.3   237  PRO237      0.0310
     31  CG        43.5480   -8.9990   25.1370 C.3   237  PRO237      0.0237
     32  CD        42.4570   -9.7310   25.8660 C.3   237  PRO237      0.0939
     33  N         44.8940  -12.2330   24.8270 N.am  238  LEU238     -0.1978
     34  CA        46.0740  -13.0960   24.7050 C.3   238  LEU238      0.1596
     35  C         45.7290  -14.5570   24.4260 C.2   238  LEU238      0.2287
     36  O         46.6150  -15.3620   24.1330 O.2   238  LEU238     -0.2864
     37  CB        46.9890  -12.9710   25.9230 C.3   238  LEU238      0.0297
     38  CG        47.4900  -11.5650   26.2650 C.3   238  LEU238      0.0022
     39  CD1       48.5310  -11.6650   27.3730 C.3   238  LEU238      0.0001
     40  CD2       48.0650  -10.7960   25.0610 C.3   238  LEU238      0.0001
     41  N         44.0730   -5.2420   21.6290 N.3   250  GLN250     -0.1245
     42  CA        44.6460   -4.4380   22.6970 C.3   250  GLN250      0.1566
     43  C         44.7940   -2.9650   22.2920 C.2   250  GLN250      0.2260
     44  O         44.5530   -2.0730   23.1110 O.2   250  GLN250     -0.2867
     45  CB        45.9870   -5.0160   23.1250 C.3   250  GLN250      0.0367
     46  CG        45.8190   -6.3980   23.7700 C.3   250  GLN250      0.0905
     47  CD        47.1220   -7.0930   23.9310 C.2   250  GLN250      0.2608
     48  OE1       47.5470   -7.8580   23.0560 O.2   250  GLN250     -0.2717
     49  NE2       47.7800   -6.8300   25.0350 N.am  250  GLN250     -0.0878
     50  N         41.7600   -0.8050   22.8320 N.3   253  GLN253     -0.1245
     51  CA        41.4910   -0.4010   24.2170 C.3   253  GLN253      0.1566
     52  C         42.5690    0.5140   24.8190 C.2   253  GLN253      0.2260
     53  O         42.5120    0.8590   26.0150 O.2   253  GLN253     -0.2867
     54  CB        41.2730   -1.6080   25.1260 C.3   253  GLN253      0.0367
     55  CG        39.9140   -2.2440   24.9690 C.3   253  GLN253      0.0905
     56  CD        39.8180   -3.5200   25.7750 C.2   253  GLN253      0.2608
     57  OE1       39.9490   -3.4970   27.0020 O.2   253  GLN253     -0.2717
     58  NE2       39.6420   -4.6530   25.0890 N.am  253  GLN253     -0.0878
     59  N         46.0410   -0.7730   27.1500 N.3   304  ALA304     -0.1231
     60  CA        44.7510   -1.1860   27.6630 C.3   304  ALA304      0.1694
     61  C         44.8030   -1.4470   29.1700 C.2   304  ALA304      0.2592
     62  O         45.6150   -2.2520   29.6580 O.2   304  ALA304     -0.2718
     63  CB        44.2830   -2.4100   26.9460 C.3   304  ALA304      0.0304
     64  N         43.9400   -0.7600   29.9150 N.am  305  VAL305     -0.1966
     65  CA        43.9440   -0.8240   31.3820 C.3   305  VAL305      0.1727
     66  C         42.9670   -1.9040   31.8710 C.2   305  VAL305      0.2616
     67  O         41.7820   -1.9050   31.4960 O.2   305  VAL305     -0.2715
     68  CB        43.5870    0.5540   31.9760 C.3   305  VAL305      0.0290
     69  CG1       43.3540    0.4760   33.4820 C.3   305  VAL305      0.0023
     70  CG2       44.6760    1.5500   31.6120 C.3   305  VAL305      0.0023
     71  N         43.4700   -2.8350   32.6760 N.am  306  ARG306     -0.1977
     72  CA        42.6620   -3.9630   33.1130 C.3   306  ARG306      0.1597
     73  C         41.4620   -3.5100   33.9350 C.2   306  ARG306      0.2287
     74  O         40.3480   -4.0050   33.7370 O.2   306  ARG306     -0.2864
     75  CB        43.5050   -4.9390   33.9560 C.3   306  ARG306      0.0334
     76  CG        44.6330   -5.5870   33.1590 C.3   306  ARG306      0.0492
     77  CD        44.1770   -6.4500   31.9860 C.3   306  ARG306      0.2205
     78  NE        43.2320   -7.4770   32.4490 N.pl3 306  ARG306     -0.0865
     79  CZ        43.5750   -8.6280   32.9610 C.cat 306  ARG306      0.5346
     80  NH1       44.8490   -9.0000   33.0360 N.pl3 306  ARG306      0.1354
     81  NH2       42.6770   -9.4700   33.4180 N.pl3 306  ARG306      0.1354
     82  N         37.7100   -5.9870   32.1340 N.3   327  PRO327     -0.2116
     83  CA        38.7570   -7.0040   31.9710 C.3   327  PRO327      0.1372
     84  C         39.2580   -7.5960   33.2890 C.2   327  PRO327      0.2244
     85  O         39.4180   -8.8160   33.3790 O.2   327  PRO327     -0.2868
     86  CB        39.8660   -6.2370   31.2380 C.3   327  PRO327      0.0268
     87  CG        39.0810   -5.2750   30.3630 C.3   327  PRO327      0.0207
     88  CD        37.9800   -4.7920   31.3050 C.3   327  PRO327      0.0892
@<TRIPOS>BOND
     1     8     6   am
     2    41    42    1
     3     7     6    2
     4     6     5    1
     5    43    42    1
     6    43    44    2
     7    29    28    2
     8    42    45    1
     9    50    51    1
    10    48    47    2
    11    45    46    1
    12     1     2    1
    13     5     2    1
    14    28    27    1
    15    28    33   am
    16    30    27    1
    17    30    31    1
    18    46    47    1
    19    27    26    1
    20    47    49   am
    21     2     3    1
    22    36    35    2
    23    51    52    1
    24    51    54    1
    25    35    34    1
    26    34    33    1
    27    34    37    1
    28    52    53    2
    29    20    19    2
    30    55    54    1
    31    55    56    1
    32    40    38    1
    33    58    56   am
    34    31    32    1
    35    26    19   am
    36    26    32    1
    37     3     4    2
    38     3     9   am
    39    19    18    1
    40    56    57    2
    41    37    38    1
    42    38    39    1
    43     9    10    1
    44    17    18    1
    45    17    11   am
    46    18    21    1
    47    63    60    1
    48    59    60    1
    49    21    22    1
    50    10    11    1
    51    10    13    1
    52    60    61    1
    53    11    12    2
    54    13    14    1
    55    22    23    1
    56    14    15    1
    57    14    16    1
    58    61    62    2
    59    61    64   am
    60    23    24    1
    61    64    65    1
    62    87    86    1
    63    87    88    1
    64    24    25    1
    65    86    83    1
    66    88    82    1
    67    65    66    1
    68    65    68    1
    69    67    66    2
    70    70    68    1
    71    66    71   am
    72    83    82    1
    73    83    84    1
    74    68    69    1
    75    77    78    1
    76    77    76    1
    77    78    79    2
    78    71    72    1
    79    79    80    1
    80    79    81    1
    81    72    73    1
    82    72    75    1
    83    76    75    1
    84    84    85    2
    85    74    73    2
