@<TRIPOS>MOLECULE
tmp/4kzbA00.pdb
 134 124 0 0 0
SMALL
GASTEIGER

@<TRIPOS>ATOM
      1  N         25.8500    1.4560   15.9520 N.3    61  SER61      -0.1217
      2  CA        27.1850    1.9600   16.2570 C.3    61  SER61       0.1889
      3  C         28.0760    1.0470   17.0970 C.2    61  SER61       0.2288
      4  O         29.2710    1.3110   17.2140 O.2    61  SER61      -0.2866
      5  CB        27.1000    3.3300   16.8890 C.3    61  SER61       0.2089
      6  OG        26.5330    4.2490   15.9940 O.3    61  SER61      -0.2183
      7  N         31.3150   -0.0050   15.4840 N.3    64  LYS64      -0.1245
      8  CA        32.5860    0.7360   15.5270 C.3    64  LYS64       0.1561
      9  C         33.6300   -0.0020   16.3170 C.2    64  LYS64       0.2260
     10  O         34.8130    0.2390   16.1120 O.2    64  LYS64      -0.2867
     11  CB        32.3710    2.1350   16.1050 C.3    64  LYS64       0.0271
     12  CG        31.5310    3.0460   15.2020 C.3    64  LYS64       0.0035
     13  CD        31.3310    4.4340   15.8370 C.3    64  LYS64       0.0206
     14  CE        30.5790    5.4080   14.9120 C.3    64  LYS64       0.1093
     15  NZ        29.1010    5.0880   14.8810 N.3    64  LYS64      -0.1314
     16  N         28.4700   14.2100   12.3590 N.3   116  LEU116     -0.1231
     17  CA        27.9280   12.9210   12.7530 C.3   116  LEU116      0.1693
     18  C         27.6400   12.0410   11.5380 C.2   116  LEU116      0.2591
     19  O         28.0370   10.8870   11.5000 O.2   116  LEU116     -0.2718
     20  CB        26.6580   13.1050   13.5820 C.3   116  LEU116      0.0284
     21  CG        25.9560   11.7860   13.9560 C.3   116  LEU116      0.0019
     22  CD1       26.8570   10.9140   14.8230 C.3   116  LEU116      0.0001
     23  CD2       24.6570   12.0760   14.6920 C.3   116  LEU116      0.0001
     24  N         26.9690   12.5920   10.5350 N.am  117  GLN117     -0.1979
     25  CA        26.6020   11.8270    9.3490 C.3   117  GLN117      0.1601
     26  C         27.2810   12.3350    8.0980 C.2   117  GLN117      0.2287
     27  O         27.4750   13.5420    7.9190 O.2   117  GLN117     -0.2864
     28  CB        25.0870   11.8720    9.0950 C.3   117  GLN117      0.0394
     29  CG        24.2320   11.5340   10.3080 C.3   117  GLN117      0.0908
     30  CD        24.3020   10.0660   10.7220 C.2   117  GLN117      0.2608
     31  OE1       25.0460    9.2740   10.1490 O.2   117  GLN117     -0.2717
     32  NE2       23.5110    9.7010   11.7260 N.am  117  GLN117     -0.0878
     33  N         31.6810   13.0350   18.1470 N.3   147  TYR147     -0.1241
     34  CA        31.3760   11.6700   17.6740 C.3   147  TYR147      0.1605
     35  C         30.8600   11.7420   16.2490 C.2   147  TYR147      0.2264
     36  O         29.9430   12.5090   15.9500 O.2   147  TYR147     -0.2867
     37  CB        30.3490   11.0510   18.6110 C.3   147  TYR147      0.0534
     38  CG        30.0040    9.6050   18.3290 C.ar  147  TYR147     -0.0201
     39  CD1       28.9640    9.2790   17.4550 C.ar  147  TYR147     -0.0009
     40  CD2       30.7220    8.5720   18.9250 C.ar  147  TYR147     -0.0009
     41  CE1       28.6130    7.9510   17.2300 C.ar  147  TYR147      0.0417
     42  CE2       30.4000    7.2480   18.6960 C.ar  147  TYR147      0.0417
     43  CZ        29.3420    6.9500   17.8480 C.ar  147  TYR147      0.1957
     44  OH        28.9890    5.6550   17.6600 O.3   147  TYR147     -0.2866
     45  N         30.2850    9.4880   12.3850 N.3   149  ASN149     -0.1240
     46  CA        30.3910    8.4040   11.4120 C.3   149  ASN149      0.1653
     47  C         31.3060    8.8070   10.2740 C.2   149  ASN149      0.2266
     48  O         31.9990    7.9650    9.7110 O.2   149  ASN149     -0.2867
     49  CB        29.0150    8.0250   10.8730 C.3   149  ASN149      0.1155
     50  CG        28.1320    7.4640   11.9470 C.2   149  ASN149      0.2627
     51  OD1       28.6340    6.8120   12.8550 O.2   149  ASN149     -0.2716
     52  ND2       26.8110    7.7240   11.8690 N.am  149  ASN149     -0.0877
     53  N         28.2920    1.6740   11.1880 N.3   218  TYR218     -0.1241
     54  CA        27.1120    1.1710   11.8980 C.3   218  TYR218      0.1605
     55  C         26.4810   -0.0580   11.2600 C.2   218  TYR218      0.2264
     56  O         25.3040   -0.3200   11.5110 O.2   218  TYR218     -0.2867
     57  CB        26.0420    2.2740   12.0340 C.3   218  TYR218      0.0534
     58  CG        25.6570    2.9660   10.7360 C.ar  218  TYR218     -0.0201
     59  CD1       24.7080    2.4220    9.8910 C.ar  218  TYR218     -0.0009
     60  CD2       26.2210    4.1800   10.3860 C.ar  218  TYR218     -0.0009
     61  CE1       24.3370    3.0590    8.6990 C.ar  218  TYR218      0.0417
     62  CE2       25.8680    4.8270    9.2160 C.ar  218  TYR218      0.0417
     63  CZ        24.9250    4.2620    8.3680 C.ar  218  TYR218      0.1957
     64  OH        24.5650    4.9010    7.1910 O.3   218  TYR218     -0.2866
     65  N         22.6930   10.9510   24.6270 N.3   286  ASN286     -0.1240
     66  CA        23.1960   11.6590   23.4500 C.3   286  ASN286      0.1653
     67  C         23.4650   13.1380   23.6760 C.2   286  ASN286      0.2266
     68  O         24.2500   13.7190   22.9420 O.2   286  ASN286     -0.2867
     69  CB        22.2480   11.5010   22.2650 C.3   286  ASN286      0.1155
     70  CG        22.3060   10.1320   21.6710 C.2   286  ASN286      0.2627
     71  OD1       23.3060    9.4500   21.8110 O.2   286  ASN286     -0.2716
     72  ND2       21.2360    9.7150   20.9980 N.am  286  ASN286     -0.0877
     73  N         27.0010   12.8180   22.0370 N.3   290  LEU290     -0.1245
     74  CA        27.0980   13.3990   20.6950 C.3   290  LEU290      0.1561
     75  C         27.5760   14.8640   20.6860 C.2   290  LEU290      0.2260
     76  O         27.6900   15.4740   19.6240 O.2   290  LEU290     -0.2867
     77  CB        25.7640   13.2680   19.9520 C.3   290  LEU290      0.0270
     78  CG        25.2500   11.8380   19.7720 C.3   290  LEU290      0.0019
     79  CD1       23.9520   11.8000   18.9660 C.3   290  LEU290      0.0001
     80  CD2       26.3560   10.9760   19.1270 C.3   290  LEU290      0.0001
     81  N         27.6770    2.0100   23.2300 N.3   313  THR313     -0.1203
     82  CA        26.2800    2.0200   22.8430 C.3   313  THR313      0.1994
     83  C         26.1630    2.0690   21.3150 C.2   313  THR313      0.2618
     84  O         27.0610    2.5610   20.6070 O.2   313  THR313     -0.2717
     85  CB        25.5650    3.2630   23.4090 C.3   313  THR313      0.1784
     86  OG1       26.2690    4.4460   22.9950 O.3   313  THR313     -0.2211
     87  CG2       25.4510    3.2180   24.9320 C.3   313  THR313      0.0376
     88  N         25.0390    1.6080   20.7830 N.am  314  GLY314     -0.1942
     89  CA        24.8120    1.8010   19.3660 C.3   314  GLY314      0.2014
     90  C         23.4070    1.4620   18.9560 C.2   314  GLY314      0.2639
     91  O         22.7860    0.5990   19.5510 O.2   314  GLY314     -0.2714
     92  N         22.9200    2.1270   17.9120 N.am  315  ALA315     -0.1963
     93  CA        21.5440    1.9400   17.4750 C.3   315  ALA315      0.1728
     94  C         21.4490    2.0670   15.9590 C.2   315  ALA315      0.2617
     95  O         22.3760    2.5850   15.3030 O.2   315  ALA315     -0.2715
     96  CB        20.6630    2.9930   18.1280 C.3   315  ALA315      0.0334
     97  N         20.3390    1.5840   15.4150 N.am  316  THR316     -0.1937
     98  CA        19.9050    1.9820   14.0850 C.3   316  THR316      0.2028
     99  C         18.4800    2.4920   14.2650 C.2   316  THR316      0.2642
    100  O         17.9870    2.5840   15.4010 O.2   316  THR316     -0.2714
    101  CB        19.8970    0.8090   13.0840 C.3   316  THR316      0.1808
    102  OG1       19.0340   -0.2150   13.5830 O.3   316  THR316     -0.2208
    103  CG2       21.3020    0.2500   12.8920 C.3   316  THR316      0.0379
    104  N         17.7990    2.8190   13.1760 N.am  317  GLY317     -0.1954
    105  CA        16.4440    3.3390   13.3300 C.3   317  GLY317      0.1869
    106  C         15.5350    2.4070   14.1350 C.2   317  GLY317      0.2309
    107  O         14.6570    2.8650   14.8600 O.2   317  GLY317     -0.2863
    108  N         15.0900    1.0830   19.1790 N.3   340  ASN340     -0.1240
    109  CA        16.0610    2.0790   19.6300 C.3   340  ASN340      0.1653
    110  C         15.4930    2.8150   20.8500 C.2   340  ASN340      0.2266
    111  O         14.7840    3.7990   20.7090 O.2   340  ASN340     -0.2867
    112  CB        16.3230    3.0640   18.4950 C.3   340  ASN340      0.1155
    113  CG        17.2590    4.1740   18.9010 C.2   340  ASN340      0.2627
    114  OD1       17.9360    4.0820   19.9370 O.2   340  ASN340     -0.2716
    115  ND2       17.2930    5.2370   18.1070 N.am  340  ASN340     -0.0877
    116  N         19.7190    5.4290   25.4310 N.3   343  ASN343     -0.1240
    117  CA        20.9900    4.9300   25.9600 C.3   343  ASN343      0.1653
    118  C         21.0490    4.7970   27.4870 C.2   343  ASN343      0.2266
    119  O         21.5350    3.7780   27.9880 O.2   343  ASN343     -0.2867
    120  CB        22.1640    5.7980   25.5080 C.3   343  ASN343      0.1155
    121  CG        22.4550    5.6860   24.0210 C.2   343  ASN343      0.2627
    122  OD1       22.2270    4.6540   23.4110 O.2   343  ASN343     -0.2716
    123  ND2       23.0220    6.7420   23.4550 N.am  343  ASN343     -0.0877
    124  N         19.7690    1.6340   28.8420 N.3   346  ARG346     -0.1245
    125  CA        20.6460    0.4900   28.5660 C.3   346  ARG346      0.1563
    126  C         21.7600    0.4170   29.6050 C.2   346  ARG346      0.2260
    127  O         22.0270   -0.6340   30.1930 O.2   346  ARG346     -0.2867
    128  CB        21.2940    0.6050   27.1810 C.3   346  ARG346      0.0307
    129  CG        20.3000    0.9530   26.1090 C.3   346  ARG346      0.0489
    130  CD        20.9440    0.9760   24.7140 C.3   346  ARG346      0.2205
    131  NE        20.1170    1.7290   23.7800 N.pl3 346  ARG346     -0.0865
    132  CZ        20.5350    2.1250   22.5860 C.cat 346  ARG346      0.5346
    133  NH1       21.7610    1.7890   22.1620 N.pl3 346  ARG346      0.1354
    134  NH2       19.7360    2.8570   21.8350 N.pl3 346  ARG346      0.1354
@<TRIPOS>BOND
     1    64    63    1
     2    27    26    2
     3    26    25    1
     4    63    61   ar
     5    63    62   ar
     6    61    59   ar
     7    28    25    1
     8    28    29    1
     9    62    60   ar
    10    25    24    1
    11    48    47    2
    12    59    58   ar
    13    31    30    2
    14    47    46    1
    15    29    30    1
    16    60    58   ar
    17    24    18   am
    18    30    32   am
    19    58    57    1
    20    49    46    1
    21    49    50    1
    22    53    54    1
    23    55    56    2
    24    55    54    1
    25    46    45    1
    26    19    18    2
    27    18    17    1
    28    52    50   am
    29    54    57    1
    30    50    51    2
    31    16    17    1
    32    17    20    1
    33   103   101    1
    34   101   102    1
    35   101    98    1
    36   104   105    1
    37   104    99   am
    38   105   106    1
    39    20    21    1
    40    21    23    1
    41    21    22    1
    42    98    99    1
    43    98    97    1
    44   106   107    2
    45    99   100    2
    46    15    14    1
    47    14    13    1
    48    12    13    1
    49    12    11    1
    50    95    94    2
    51    97    94   am
    52     7     8    1
    53     8    11    1
    54     8     9    1
    55    36    35    2
    56     1     2    1
    57    94    93    1
    58     6     5    1
    59    10     9    2
    60    35    34    1
    61     2     5    1
    62     2     3    1
    63     3     4    2
    64    41    39   ar
    65    41    43   ar
    66    39    38   ar
    67    93    92    1
    68    93    96    1
    69    44    43    1
    70    34    33    1
    71    34    37    1
    72    43    42   ar
    73    92    90   am
    74   115   113   am
    75    38    37    1
    76    38    40   ar
    77   112   113    1
    78   112   109    1
    79    42    40   ar
    80   113   114    2
    81    90    89    1
    82    90    91    2
    83    79    78    1
    84    80    78    1
    85   108   109    1
    86    89    88    1
    87    76    75    2
    88   109   110    1
    89    78    77    1
    90    77    74    1
    91    84    83    2
    92    75    74    1
    93    74    73    1
    94   111   110    2
    95    88    83   am
    96    72    70   am
    97    83    82    1
    98    70    71    2
    99    70    69    1
   100   134   132    1
   101   133   132    1
   102    69    66    1
   103   132   131    2
   104    82    81    1
   105    82    85    1
   106    68    67    2
   107    86    85    1
   108    85    87    1
   109   122   121    2
   110    66    67    1
   111    66    65    1
   112   123   121   am
   113   131   130    1
   114   121   120    1
   115   130   129    1
   116   116   117    1
   117   120   117    1
   118   117   118    1
   119   129   128    1
   120   128   125    1
   121   118   119    2
   122   125   124    1
   123   125   126    1
   124   126   127    2
