@<TRIPOS>MOLECULE
tmp/4kzcA00.pdb
 176 168 0 0 0
SMALL
GASTEIGER

@<TRIPOS>ATOM
      1  N         20.5910   16.0010   12.7470 N.3   546  MET546     -0.1245
      2  CA        20.9760   16.8860   13.8450 C.3   546  MET546      0.1570
      3  C         21.8110   18.0740   13.3690 C.2   546  MET546      0.2261
      4  O         22.5510   17.9540   12.3880 O.2   546  MET546     -0.2867
      5  CB        21.7220   16.1020   14.9260 C.3   546  MET546      0.0387
      6  CG        20.8090   15.3110   15.8440 C.3   546  MET546      0.0595
      7  SD        21.6700   14.6700   17.3040 S.3   546  MET546     -0.1393
      8  CE        22.2900   16.2210   18.0440 C.3   546  MET546      0.0692
      9  N         24.4120   19.3670   14.7120 N.3   548  SER548     -0.1217
     10  CA        25.8420   19.1330   14.9780 C.3   548  SER548      0.1889
     11  C         26.7090   19.0670   13.7030 C.2   548  SER548      0.2288
     12  O         26.2290   18.6350   12.6500 O.2   548  SER548     -0.2866
     13  CB        26.0360   17.8780   15.8290 C.3   548  SER548      0.2089
     14  OG        27.3890   17.6820   16.2090 O.3   548  SER548     -0.2183
     15  N         24.8970   14.1060   12.6680 N.3   552  PRO552     -0.2116
     16  CA        24.4030   12.7820   13.0690 C.3   552  PRO552      0.1372
     17  C         22.9110   12.6380   12.7870 C.2   552  PRO552      0.2244
     18  O         22.2400   13.6330   12.5160 O.2   552  PRO552     -0.2868
     19  CB        24.7350   12.7020   14.5580 C.3   552  PRO552      0.0268
     20  CG        24.8200   14.0970   15.0220 C.3   552  PRO552      0.0207
     21  CD        25.0520   15.0000   13.8350 C.3   552  PRO552      0.0892
     22  N         19.1060   11.6890   13.9880 N.3   554  TRP554     -0.1241
     23  CA        18.1670   11.5260   15.0950 C.3   554  TRP554      0.1605
     24  C         17.0540   10.6080   14.5800 C.2   554  TRP554      0.2264
     25  O         16.1470   11.0590   13.8810 O.2   554  TRP554     -0.2867
     26  CB        17.6260   12.8940   15.5510 C.3   554  TRP554      0.0550
     27  CG        16.5790   12.8480   16.6300 C.ar  554  TRP554      0.0003
     28  CD1       15.2620   12.5160   16.4860 C.ar  554  TRP554      0.0946
     29  CD2       16.7400   13.2650   17.9900 C.ar  554  TRP554      0.0152
     30  NE1       14.6080   12.6410   17.6880 N.ar  554  TRP554     -0.2442
     31  CE2       15.4880   13.1100   18.6270 C.ar  554  TRP554      0.0810
     32  CE3       17.8310   13.7370   18.7430 C.ar  554  TRP554      0.0012
     33  CZ2       15.2950   13.4130   19.9780 C.ar  554  TRP554      0.0191
     34  CZ3       17.6380   14.0350   20.0820 C.ar  554  TRP554      0.0001
     35  CH2       16.3800   13.8850   20.6820 C.ar  554  TRP554      0.0015
     36  N         20.8400    7.8940   18.0730 N.3   571  ILE571     -0.1245
     37  CA        21.6770    8.8900   17.4020 C.3   571  ILE571      0.1561
     38  C         22.7660    8.1280   16.6510 C.2   571  ILE571      0.2260
     39  O         23.6070    7.4810   17.2760 O.2   571  ILE571     -0.2867
     40  CB        22.2630    9.9720   18.3570 C.3   571  ILE571      0.0252
     41  CG1       21.1540   10.8980   18.8770 C.3   571  ILE571      0.0019
     42  CG2       23.3650   10.7960   17.6580 C.3   571  ILE571      0.0019
     43  CD1       21.4650   11.5730   20.1550 C.3   571  ILE571      0.0001
     44  N         26.0430    8.3320   14.3900 N.3   573  LYS573     -0.1245
     45  CA        27.1230    9.2750   14.0840 C.3   573  LYS573      0.1561
     46  C         28.2980    8.6830   13.2980 C.2   573  LYS573      0.2260
     47  O         28.8070    7.6230   13.6580 O.2   573  LYS573     -0.2867
     48  CB        27.6270    9.9330   15.3830 C.3   573  LYS573      0.0271
     49  CG        28.5750   11.1120   15.1700 C.3   573  LYS573      0.0035
     50  CD        29.2780   11.5090   16.4500 C.3   573  LYS573      0.0206
     51  CE        29.9220   12.8600   16.3180 C.3   573  LYS573      0.1093
     52  NZ        30.6380   13.2540   17.5590 N.3   573  LYS573     -0.1314
     53  N         34.0650    5.9760   18.3400 N.3   578  LEU578     -0.1245
     54  CA        33.2070    5.9760   19.5260 C.3   578  LEU578      0.1561
     55  C         33.6800    5.0200   20.6230 C.2   578  LEU578      0.2260
     56  O         33.1130    5.0230   21.7220 O.2   578  LEU578     -0.2867
     57  CB        31.7360    5.7330   19.1590 C.3   578  LEU578      0.0270
     58  CG        31.0680    6.8230   18.3120 C.3   578  LEU578      0.0019
     59  CD1       29.7170    6.3750   17.8320 C.3   578  LEU578      0.0001
     60  CD2       30.9260    8.1360   19.0790 C.3   578  LEU578      0.0001
     61  N         34.4370    7.0370   23.7180 N.3   581  ASP581     -0.1239
     62  CA        33.2240    7.3360   24.4860 C.3   581  ASP581      0.1674
     63  C         32.8100    6.1330   25.3330 C.2   581  ASP581      0.2266
     64  O         32.6160    6.2920   26.5380 O.2   581  ASP581     -0.2867
     65  CB        32.0690    7.7530   23.5550 C.3   581  ASP581      0.1410
     66  CG        32.1680    9.1530   22.9800 C.2   581  ASP581      0.3668
     67  OD1       33.0680    9.3870   22.1480 O.co2 581  ASP581     -0.2456
     68  OD2       31.2810    9.9840   23.2840 O.co2 581  ASP581     -0.2456
     69  N         24.5530    6.4610   29.4480 N.3   607  TYR607     -0.1241
     70  CA        23.6530    6.1030   28.3490 C.3   607  TYR607      0.1605
     71  C         24.2810    5.0630   27.4180 C.2   607  TYR607      0.2264
     72  O         25.5100    4.9400   27.3640 O.2   607  TYR607     -0.2867
     73  CB        23.2550    7.3720   27.5520 C.3   607  TYR607      0.0534
     74  CG        24.4360    8.1900   27.0620 C.ar  607  TYR607     -0.0201
     75  CD1       25.0810    7.8760   25.8690 C.ar  607  TYR607     -0.0009
     76  CD2       24.9050    9.2790   27.7900 C.ar  607  TYR607     -0.0009
     77  CE1       26.1820    8.6070   25.4270 C.ar  607  TYR607      0.0417
     78  CE2       26.0040   10.0190   27.3560 C.ar  607  TYR607      0.0417
     79  CZ        26.6330    9.6850   26.1690 C.ar  607  TYR607      0.1957
     80  OH        27.7120   10.4110   25.7280 O.3   607  TYR607     -0.2866
     81  N         24.1530    5.8830   19.5790 N.3   619  ILE619     -0.1231
     82  CA        23.9530    6.4390   20.9160 C.3   619  ILE619      0.1692
     83  C         22.4650    6.3920   21.3130 C.2   619  ILE619      0.2592
     84  O         21.5970    6.6450   20.4780 O.2   619  ILE619     -0.2718
     85  CB        24.5210    7.8950   20.9450 C.3   619  ILE619      0.0266
     86  CG1       26.0160    7.9360   20.5630 C.3   619  ILE619      0.0019
     87  CG2       24.2920    8.5800   22.2890 C.3   619  ILE619      0.0020
     88  CD1       26.3890    9.0750   19.6390 C.3   619  ILE619      0.0001
     89  N         22.1850    6.0890   22.5940 N.am  620  GLU620     -0.1966
     90  CA        20.8390    6.0610   23.1650 C.3   620  GLU620      0.1733
     91  C         20.3690    7.4960   23.4120 C.2   620  GLU620      0.2616
     92  O         21.1320    8.3130   23.9380 O.2   620  GLU620     -0.2715
     93  CB        20.8410    5.2890   24.5010 C.3   620  GLU620      0.0429
     94  CG        19.4690    5.1150   25.1420 C.3   620  GLU620      0.1163
     95  CD        19.4460    4.9390   26.6480 C.2   620  GLU620      0.3649
     96  OE1       20.3210    4.2230   27.1860 O.co2 620  GLU620     -0.2457
     97  OE2       18.5270    5.4980   27.2880 O.co2 620  GLU620     -0.2457
     98  N         19.1100    7.7910   23.0520 N.am  621  ILE621     -0.1963
     99  CA        18.5070    9.1000   23.2850 C.3   621  ILE621      0.1727
    100  C         17.7940    9.0470   24.6440 C.2   621  ILE621      0.2616
    101  O         16.8150    8.3080   24.7970 O.2   621  ILE621     -0.2715
    102  CB        17.5620    9.5360   22.1250 C.3   621  ILE621      0.0290
    103  CG1       18.3410    9.6880   20.7980 C.3   621  ILE621      0.0022
    104  CG2       16.8170   10.8270   22.4900 C.3   621  ILE621      0.0023
    105  CD1       17.5210   10.0390   19.5100 C.3   621  ILE621      0.0001
    106  N         18.3080    9.8000   25.6340 N.am  622  VAL622     -0.1963
    107  CA        17.7090    9.8660   26.9700 C.3   622  VAL622      0.1727
    108  C         16.4990   10.7940   26.8610 C.2   622  VAL622      0.2616
    109  O         16.6590   11.9940   26.6290 O.2   622  VAL622     -0.2715
    110  CB        18.7170   10.2850   28.0790 C.3   622  VAL622      0.0290
    111  CG1       18.0050   10.5970   29.3940 C.3   622  VAL622      0.0023
    112  CG2       19.7780    9.2090   28.2920 C.3   622  VAL622      0.0023
    113  N         15.2930   10.2130   26.9720 N.am  623  LYS623     -0.1963
    114  CA        14.0140   10.9150   26.8410 C.3   623  LYS623      0.1728
    115  C         13.7970   11.9990   27.8980 C.2   623  LYS623      0.2616
    116  O         14.2890   11.8790   29.0250 O.2   623  LYS623     -0.2715
    117  CB        12.8340    9.9220   26.8020 C.3   623  LYS623      0.0311
    118  CG        12.8580    8.9670   25.5990 C.3   623  LYS623      0.0038
    119  CD        12.3700    9.6120   24.2970 C.3   623  LYS623      0.0206
    120  CE        12.5220    8.6880   23.1160 C.3   623  LYS623      0.1093
    121  NZ        11.9370    9.2710   21.8800 N.3   623  LYS623     -0.1314
    122  N         13.0800   13.0770   27.4940 N.am  624  ASP624     -0.1957
    123  CA        12.7240   14.2730   28.2720 C.3   624  ASP624      0.1840
    124  C         13.9490   15.0660   28.7620 C.2   624  ASP624      0.2622
    125  O         13.8740   15.7390   29.7910 O.2   624  ASP624     -0.2715
    126  CB        11.7580   13.9380   29.4330 C.3   624  ASP624      0.1450
    127  CG        10.3810   13.4650   29.0040 C.2   624  ASP624      0.3671
    128  OD1        9.8140   14.0600   28.0590 O.co2 624  ASP624     -0.2456
    129  OD2        9.8460   12.5380   29.6480 O.co2 624  ASP624     -0.2456
    130  N         15.0570   15.0260   28.0030 N.am  625  ALA625     -0.1963
    131  CA        16.2910   15.7280   28.3650 C.3   625  ALA625      0.1728
    132  C         16.6840   16.8290   27.3840 C.2   625  ALA625      0.2616
    133  O         16.4020   16.7240   26.1900 O.2   625  ALA625     -0.2715
    134  CB        17.4300   14.7340   28.5120 C.3   625  ALA625      0.0334
    135  N         17.3480   17.8830   27.8880 N.am  626  THR626     -0.1951
    136  CA        17.8370   18.9810   27.0530 C.3   626  THR626      0.1897
    137  C         19.1790   19.5260   27.5790 C.2   626  THR626      0.2313
    138  O         19.5320   19.3280   28.7430 O.2   626  THR626     -0.2863
    139  CB        16.7710   20.0690   26.8050 C.3   626  THR626      0.1794
    140  OG1       17.1970   20.8750   25.7040 O.3   626  THR626     -0.2208
    141  CG2       16.5110   20.9450   28.0190 C.3   626  THR626      0.0378
    142  N         23.9080   17.8720   29.8070 N.3   693  MET693     -0.1245
    143  CA        22.4500   17.8380   29.7070 C.3   693  MET693      0.1570
    144  C         21.7460   17.6210   31.0440 C.2   693  MET693      0.2261
    145  O         22.3800   17.2340   32.0230 O.2   693  MET693     -0.2867
    146  CB        22.0080   16.7710   28.6950 C.3   693  MET693      0.0387
    147  CG        22.3910   17.0910   27.2710 C.3   693  MET693      0.0595
    148  SD        21.8540   15.8320   26.0950 S.3   693  MET693     -0.1393
    149  CE        20.1660   16.3060   25.8650 C.3   693  MET693      0.0692
    150  N         23.5630   14.9670   33.2310 N.3   701  PHE701     -0.1241
    151  CA        24.4510   14.0030   32.5750 C.3   701  PHE701      0.1605
    152  C         25.3160   14.6090   31.4720 C.2   701  PHE701      0.2264
    153  O         24.8160   15.3690   30.6470 O.2   701  PHE701     -0.2867
    154  CB        23.6840   12.7730   32.0560 C.3   701  PHE701      0.0534
    155  CG        22.6860   12.9930   30.9450 C.ar  701  PHE701     -0.0203
    156  CD1       21.4090   13.4670   31.2190 C.ar  701  PHE701     -0.0042
    157  CD2       22.9950   12.6530   29.6350 C.ar  701  PHE701     -0.0042
    158  CE1       20.4740   13.6410   30.1940 C.ar  701  PHE701     -0.0003
    159  CE2       22.0570   12.8220   28.6110 C.ar  701  PHE701     -0.0003
    160  CZ        20.8020   13.3140   28.8980 C.ar  701  PHE701     -0.0000
    161  N         27.6980   14.4450   28.0040 N.3   703  ILE703     -0.1231
    162  CA        27.6210   13.7710   26.6950 C.3   703  ILE703      0.1692
    163  C         28.8570   14.0650   25.8200 C.2   703  ILE703      0.2592
    164  O         29.5890   15.0030   26.1190 O.2   703  ILE703     -0.2718
    165  CB        26.2870   14.0820   25.9420 C.3   703  ILE703      0.0266
    166  CG1       26.1300   15.5880   25.6020 C.3   703  ILE703      0.0019
    167  CG2       25.0740   13.5440   26.6940 C.3   703  ILE703      0.0020
    168  CD1       25.4700   15.8740   24.2660 C.3   703  ILE703      0.0001
    169  N         29.0670   13.2710   24.7380 N.am  704  ASP704     -0.1974
    170  CA        30.1470   13.4000   23.7430 C.3   704  ASP704      0.1709
    171  C         31.5620   13.4730   24.3620 C.2   704  ASP704      0.2293
    172  O         32.2450   14.4910   24.2390 O.2   704  ASP704     -0.2864
    173  CB        29.8680   14.6000   22.8030 C.3   704  ASP704      0.1436
    174  CG        30.5930   14.6180   21.4630 C.2   704  ASP704      0.3671
    175  OD1       31.5670   13.8460   21.2960 O.co2 704  ASP704     -0.2456
    176  OD2       30.1990   15.4190   20.5890 O.co2 704  ASP704     -0.2456
@<TRIPOS>BOND
     1     4     3    2
     2    18    17    2
     3    12    11    2
     4    15    16    1
     5    15    21    1
     6     1     2    1
     7    17    16    1
     8    16    19    1
     9    46    47    2
    10    46    45    1
    11     3     2    1
    12    11    10    1
    13    21    20    1
    14     2     5    1
    15    25    24    2
    16    22    23    1
    17    45    44    1
    18    45    48    1
    19    19    20    1
    20    24    23    1
    21     9    10    1
    22     5     6    1
    23    10    13    1
    24    23    26    1
    25    49    48    1
    26    49    50    1
    27    26    27    1
    28    13    14    1
    29     6     7    1
    30    51    50    1
    31    51    52    1
    32    28    27   ar
    33    28    30   ar
    34    27    29   ar
    35    38    39    2
    36    38    37    1
    37     7     8    1
    38    37    36    1
    39    37    40    1
    40    42    40    1
    41    30    31   ar
    42    59    58    1
    43    29    31   ar
    44    29    32   ar
    45    58    60    1
    46    58    57    1
    47    53    54    1
    48    40    41    1
    49    31    33   ar
    50    32    34   ar
    51    41    43    1
    52    57    54    1
    53   105   103    1
    54    54    55    1
    55    81    82    1
    56    88    86    1
    57    33    35   ar
    58    34    35   ar
    59    84    83    2
    60    86    85    1
    61   176   174   ar
    62    55    56    2
    63   103   102    1
    64    82    85    1
    65    82    83    1
    66    85    87    1
    67   175   174   ar
    68    83    89   am
    69   174   173    1
    70   121   120    1
    71   102   104    1
    72   102    99    1
    73    67    66   ar
    74    89    90    1
    75   173   170    1
    76    66    68   ar
    77    66    65    1
    78    98    99    1
    79    98    91   am
    80   120   119    1
    81    90    91    1
    82    90    93    1
    83    99   100    1
    84    91    92    2
    85    65    62    1
    86    61    62    1
    87   170   171    1
    88   170   169    1
    89   172   171    2
    90   168   166    1
    91   119   118    1
    92    62    63    1
    93    93    94    1
    94   100   101    2
    95   100   106   am
    96   169   163   am
    97    94    95    1
    98    63    64    2
    99    77    75   ar
   100    77    79   ar
   101   118   117    1
   102   166   165    1
   103   106   107    1
   104   140   139    1
   105    80    79    1
   106   163   164    2
   107   163   162    1
   108   149   148    1
   109    75    74   ar
   110   165   167    1
   111   165   162    1
   112   148   147    1
   113    79    78   ar
   114   133   132    2
   115   109   108    2
   116    95    96   ar
   117    95    97   ar
   118   162   161    1
   119   117   114    1
   120   139   136    1
   121   139   141    1
   122   114   113    1
   123   114   115    1
   124   108   107    1
   125   108   113   am
   126   107   110    1
   127   136   137    1
   128   136   135    1
   129    74    73    1
   130    74    76   ar
   131   147   146    1
   132    78    76   ar
   133    72    71    2
   134   132   135   am
   135   132   131    1
   136    71    70    1
   137   122   115   am
   138   122   123    1
   139    73    70    1
   140   137   138    2
   141   115   116    2
   142   130   131    1
   143   130   124   am
   144   128   127   ar
   145   110   112    1
   146   110   111    1
   147   123   124    1
   148   123   126    1
   149    70    69    1
   150   131   134    1
   151   159   160   ar
   152   159   157   ar
   153   146   143    1
   154   124   125    2
   155   160   158   ar
   156   127   126    1
   157   127   129   ar
   158   157   155   ar
   159   143   142    1
   160   143   144    1
   161   158   156   ar
   162   153   152    2
   163   155   156   ar
   164   155   154    1
   165   144   145    2
   166   152   151    1
   167   154   151    1
   168   151   150    1
