@<TRIPOS>MOLECULE
tmp/4kziB00.pdb
 134 124 0 0 0
SMALL
GASTEIGER

@<TRIPOS>ATOM
      1  N         13.2290   -6.0240   -1.1460 N.3    79  GLU79      -0.1231
      2  CA        12.9460   -6.2790   -2.5420 C.3    79  GLU79       0.1699
      3  C         13.1700   -7.6990   -2.9730 C.2    79  GLU79       0.2593
      4  O         12.4730   -8.1880   -3.8460 O.2    79  GLU79      -0.2718
      5  CB        13.7710   -5.3450   -3.4210 C.3    79  GLU79       0.0402
      6  CG        13.2480   -3.9030   -3.2240 C.3    79  GLU79       0.1161
      7  CD        14.2060   -2.7970   -3.6970 C.2    79  GLU79       0.3649
      8  OE1       14.2400   -1.6800   -3.1200 O.co2  79  GLU79      -0.2457
      9  OE2       14.9170   -3.0590   -4.6640 O.co2  79  GLU79      -0.2457
     10  N         14.1870   -8.3670   -2.4180 N.am   80  SER80      -0.1938
     11  CA        14.5190   -9.6460   -2.9260 C.3    80  SER80       0.2055
     12  C         13.4800  -10.6270   -2.3190 C.2    80  SER80       0.2642
     13  O         13.2580  -11.6170   -2.8900 O.2    80  SER80      -0.2714
     14  CB        15.9180  -10.0930   -2.5040 C.3    80  SER80       0.2130
     15  OG        16.8820   -9.2400   -2.9960 O.3    80  SER80      -0.2179
     16  N         12.9100  -10.3300   -1.1580 N.am   81  ALA81      -0.1977
     17  CA        11.9980  -11.1970   -0.4870 C.3    81  ALA81       0.1597
     18  C         10.5000  -10.8370   -0.7010 C.2    81  ALA81       0.2287
     19  O          9.6170  -11.6400   -0.3650 O.2    81  ALA81      -0.2864
     20  CB        12.2880  -11.1450    0.9880 C.3    81  ALA81       0.0319
     21  N          8.0140  -10.7670   -3.0860 N.3    83  LEU83      -0.1231
     22  CA         7.0840  -11.6950   -3.7370 C.3    83  LEU83       0.1693
     23  C          6.8430  -12.9090   -2.8870 C.2    83  LEU83       0.2591
     24  O          5.6960  -13.2370   -2.6150 O.2    83  LEU83      -0.2718
     25  CB         7.5600  -12.1160   -5.1230 C.3    83  LEU83       0.0284
     26  CG         6.7820  -11.7220   -6.3870 C.3    83  LEU83       0.0019
     27  CD1        5.7940  -10.5700   -6.2680 C.3    83  LEU83       0.0001
     28  CD2        7.7890  -11.4650   -7.4860 C.3    83  LEU83       0.0001
     29  N          7.9140  -13.4640   -2.3560 N.am   84  GLU84      -0.1979
     30  CA         7.8100  -14.5690   -1.4960 C.3    84  GLU84       0.1602
     31  C          7.0520  -14.2790   -0.2520 C.2    84  GLU84       0.2287
     32  O          6.2030  -15.1040    0.1590 O.2    84  GLU84      -0.2864
     33  CB         9.1650  -15.1360   -1.1710 C.3    84  GLU84       0.0415
     34  CG         9.0390  -16.4730   -0.5290 C.3    84  GLU84       0.1163
     35  CD        10.3530  -17.1930   -0.3550 C.2    84  GLU84       0.3649
     36  OE1       11.3460  -16.7130   -0.9060 O.co2  84  GLU84      -0.2457
     37  OE2       10.3650  -18.2860    0.2670 O.co2  84  GLU84      -0.2457
     38  N         12.7400  -15.0240    8.6710 N.3   148  LEU148     -0.1231
     39  CA        13.8520  -15.7720    8.0560 C.3   148  LEU148      0.1693
     40  C         13.7930  -15.7380    6.5440 C.2   148  LEU148      0.2591
     41  O         14.8070  -15.8150    5.8910 O.2   148  LEU148     -0.2718
     42  CB        13.9170  -17.2470    8.5210 C.3   148  LEU148      0.0284
     43  CG        14.2970  -17.3870   10.0100 C.3   148  LEU148      0.0019
     44  CD1       13.9520  -18.7390   10.5600 C.3   148  LEU148      0.0001
     45  CD2       15.7790  -17.0940   10.2360 C.3   148  LEU148      0.0001
     46  N         12.6170  -15.5760    5.9770 N.am  149  VAL149     -0.1980
     47  CA        12.5220  -15.3800    4.5240 C.3   149  VAL149      0.1595
     48  C         13.1610  -14.0280    4.1430 C.2   149  VAL149      0.2287
     49  O         13.7460  -13.9050    3.1000 O.2   149  VAL149     -0.2864
     50  CB        11.0660  -15.4730    4.0430 C.3   149  VAL149      0.0276
     51  CG1       10.9210  -14.9780    2.6200 C.3   149  VAL149      0.0022
     52  CG2       10.5340  -16.9170    4.2020 C.3   149  VAL149      0.0022
     53  N         18.1940  -13.0280    5.1540 N.3   152  THR152     -0.1203
     54  CA        18.8600  -14.1230    4.5670 C.3   152  THR152      0.1994
     55  C         19.9090  -13.5630    3.6140 C.2   152  THR152      0.2618
     56  O         19.8610  -12.3770    3.2590 O.2   152  THR152     -0.2717
     57  CB        17.8320  -15.0170    3.8350 C.3   152  THR152      0.1784
     58  OG1       18.4660  -16.2140    3.4120 O.3   152  THR152     -0.2211
     59  CG2       17.2120  -14.3390    2.6040 C.3   152  THR152      0.0376
     60  N         20.8670  -14.4010    3.2280 N.am  153  ASP153     -0.1959
     61  CA        21.8900  -14.0050    2.3020 C.3   153  ASP153      0.1840
     62  C         21.2830  -13.5690    0.9780 C.2   153  ASP153      0.2621
     63  O         20.3790  -14.2210    0.4830 O.2   153  ASP153     -0.2715
     64  CB        22.8310  -15.1840    1.9780 C.3   153  ASP153      0.1450
     65  CG        23.8470  -15.4880    3.0820 C.2   153  ASP153      0.3671
     66  OD1       23.7910  -16.5860    3.6610 O.co2 153  ASP153     -0.2456
     67  OD2       24.7530  -14.6460    3.3390 O.co2 153  ASP153     -0.2456
     68  N         21.8440  -12.5120    0.3820 N.am  154  ARG154     -0.1977
     69  CA        21.5440  -12.1260   -0.9840 C.3   154  ARG154      0.1597
     70  C         22.8180  -11.5680   -1.6410 C.2   154  ARG154      0.2287
     71  O         23.6150  -10.8980   -0.9830 O.2   154  ARG154     -0.2864
     72  CB        20.4920  -10.9820   -0.9890 C.3   154  ARG154      0.0334
     73  CG        19.2320  -11.3200   -0.3000 C.3   154  ARG154      0.0492
     74  CD        18.3660  -12.2800   -1.1430 C.3   154  ARG154      0.2205
     75  NE        17.0730  -12.5040   -0.4480 N.pl3 154  ARG154     -0.0865
     76  CZ        16.1030  -13.2860   -0.9080 C.cat 154  ARG154      0.5346
     77  NH1       16.2840  -13.9910   -2.0050 N.pl3 154  ARG154      0.1354
     78  NH2       14.9620  -13.3640   -0.2770 N.pl3 154  ARG154      0.1354
     79  N         20.1850  -13.4640   11.1150 N.3   167  GLN167     -0.1245
     80  CA        19.5840  -14.7640   10.7380 C.3   167  GLN167      0.1566
     81  C         19.7980  -15.7900   11.8450 C.2   167  GLN167      0.2260
     82  O         18.8460  -16.5160   12.2040 O.2   167  GLN167     -0.2867
     83  CB        20.2000  -15.2890    9.4190 C.3   167  GLN167      0.0367
     84  CG        19.6870  -16.6230    8.8590 C.3   167  GLN167      0.0905
     85  CD        20.3870  -17.0210    7.5520 C.2   167  GLN167      0.2608
     86  OE1       21.5920  -17.2200    7.5200 O.2   167  GLN167     -0.2717
     87  NE2       19.6400  -17.0950    6.4600 N.am  167  GLN167     -0.0878
     88  N          8.5490  -21.3060   -4.3800 N.3   197  ARG197     -0.1245
     89  CA         9.4320  -20.8500   -5.4630 C.3   197  ARG197      0.1563
     90  C          8.6860  -20.7990   -6.7510 C.2   197  ARG197      0.2260
     91  O          8.7880  -19.8550   -7.4780 O.2   197  ARG197     -0.2867
     92  CB        10.6440  -21.7920   -5.6710 C.3   197  ARG197      0.0307
     93  CG        11.9950  -21.4070   -5.0080 C.3   197  ARG197      0.0489
     94  CD        11.9680  -20.9930   -3.5300 C.3   197  ARG197      0.2205
     95  NE        13.2300  -21.3340   -2.8380 N.pl3 197  ARG197     -0.0865
     96  CZ        13.6040  -20.8550   -1.6460 C.cat 197  ARG197      0.5346
     97  NH1       12.8530  -19.9820   -0.9840 N.pl3 197  ARG197      0.1354
     98  NH2       14.7400  -21.2540   -1.1090 N.pl3 197  ARG197      0.1354
     99  N          6.4900  -17.8330   -6.7940 N.3   200  CYS200     -0.1221
    100  CA         7.2060  -16.5550   -7.0390 C.3   200  CYS200      0.1808
    101  C          7.4150  -16.3510   -8.5200 C.2   200  CYS200      0.2601
    102  O          7.0590  -15.3070   -9.0970 O.2   200  CYS200     -0.2717
    103  CB         8.5320  -16.6080   -6.3480 C.3   200  CYS200      0.0970
    104  SG         8.3220  -16.5330   -4.5930 S.3   200  CYS200     -0.0800
    105  N          7.8800  -17.4210   -9.1530 N.am  201  THR201     -0.1953
    106  CA         7.9930  -17.4270  -10.5760 C.3   201  THR201      0.1897
    107  C          6.6840  -17.1350  -11.3000 C.2   201  THR201      0.2313
    108  O          6.7050  -16.3980  -12.2860 O.2   201  THR201     -0.2863
    109  CB         8.5070  -18.7860  -11.0520 C.3   201  THR201      0.1794
    110  OG1        9.7440  -19.0620  -10.4100 O.3   201  THR201     -0.2208
    111  CG2        8.7320  -18.8010  -12.5520 C.3   201  THR201      0.0378
    112  N          6.1410  -13.5690  -11.2280 N.3   204  LEU204     -0.1245
    113  CA         6.9680  -12.8490  -12.2010 C.3   204  LEU204      0.1561
    114  C          6.3620  -12.9740  -13.6180 C.2   204  LEU204      0.2260
    115  O          6.3330  -12.0050  -14.3940 O.2   204  LEU204     -0.2867
    116  CB         8.4050  -13.3690  -12.1750 C.3   204  LEU204      0.0270
    117  CG         9.2480  -13.0430  -10.9370 C.3   204  LEU204      0.0019
    118  CD1       10.5890  -13.7170  -10.9950 C.3   204  LEU204      0.0001
    119  CD2        9.4770  -11.5600  -10.8150 C.3   204  LEU204      0.0001
    120  N         11.6110   -4.1430   -8.7290 N.3   225  ILE225     -0.1245
    121  CA        11.7710   -5.4910   -8.1750 C.3   225  ILE225      0.1561
    122  C         11.7340   -6.5130   -9.2940 C.2   225  ILE225      0.2260
    123  O         12.5600   -7.4420   -9.3720 O.2   225  ILE225     -0.2867
    124  CB        10.6810   -5.7790   -7.1450 C.3   225  ILE225      0.0252
    125  CG1       10.9200   -4.9650   -5.8730 C.3   225  ILE225      0.0019
    126  CG2       10.6380   -7.2460   -6.8170 C.3   225  ILE225      0.0019
    127  CD1        9.6840   -4.7860   -4.9840 C.3   225  ILE225      0.0001
    128  N         15.0930   -8.7210  -10.1960 N.3   229  THR229     -0.1218
    129  CA        15.0810  -10.1820  -10.0620 C.3   229  THR229      0.1862
    130  C         15.5140  -10.9340  -11.3420 C.2   229  THR229      0.2287
    131  O         15.8140  -12.1570  -11.3240 O.2   229  THR229     -0.2866
    132  CB        13.6490  -10.6800   -9.7140 C.3   229  THR229      0.1770
    133  OG1       13.0590   -9.8760   -8.6770 O.3   229  THR229     -0.2211
    134  CG2       13.6560  -12.1930   -9.3070 C.3   229  THR229      0.0375
@<TRIPOS>BOND
     1   115   114    2
     2   114   113    1
     3   111   109    1
     4   108   107    2
     5   113   116    1
     6   113   112    1
     7   116   117    1
     8   130   131    2
     9   130   129    1
    10   107   106    1
    11   109   106    1
    12   109   110    1
    13   118   117    1
    14   117   119    1
    15   106   105    1
    16   128   129    1
    17   129   132    1
    18   132   134    1
    19   132   133    1
    20   123   122    2
    21   122   121    1
    22   105   101   am
    23   102   101    2
    24   120   121    1
    25   101   100    1
    26   121   124    1
    27    28    26    1
    28    91    90    2
    29   124   126    1
    30   124   125    1
    31   100    99    1
    32   100   103    1
    33    90    89    1
    34    26    27    1
    35    26    25    1
    36   103   104    1
    37   125   127    1
    38    92    89    1
    39    92    93    1
    40    89    88    1
    41    25    22    1
    42    93    94    1
    43     9     7   ar
    44     4     3    2
    45    22    21    1
    46    22    23    1
    47     7     6    1
    48     7     8   ar
    49    94    95    1
    50     5     6    1
    51     5     2    1
    52    15    14    1
    53     3     2    1
    54     3    10   am
    55    11    14    1
    56    11    10    1
    57    11    12    1
    58    13    12    2
    59    23    24    2
    60    23    29   am
    61    95    96    2
    62     2     1    1
    63    29    30    1
    64    12    16   am
    65    77    76    1
    66    96    98    1
    67    96    97    1
    68    70    69    1
    69    70    71    2
    70    30    33    1
    71    30    31    1
    72    33    34    1
    73    16    17    1
    74    74    75    1
    75    74    73    1
    76    72    69    1
    77    72    73    1
    78    69    68    1
    79    76    75    2
    80    76    78    1
    81    36    35   ar
    82    18    17    1
    83    18    19    2
    84    34    35    1
    85    17    20    1
    86    35    37   ar
    87    31    32    2
    88    68    62   am
    89    63    62    2
    90    62    61    1
    91    64    61    1
    92    64    65    1
    93    61    60    1
    94    59    57    1
    95    51    50    1
    96    65    67   ar
    97    65    66   ar
    98    49    48    2
    99    60    55   am
   100    56    55    2
   101    58    57    1
   102    55    54    1
   103    57    54    1
   104    50    52    1
   105    50    47    1
   106    48    47    1
   107    47    46    1
   108    54    53    1
   109    41    40    2
   110    46    40   am
   111    87    85   am
   112    40    39    1
   113    86    85    2
   114    85    84    1
   115    39    42    1
   116    39    38    1
   117    42    43    1
   118    84    83    1
   119    83    80    1
   120    43    45    1
   121    43    44    1
   122    80    79    1
   123    80    81    1
   124    81    82    2
