@<TRIPOS>MOLECULE
tmp/4kzkA00.pdb
 141 133 0 0 0
SMALL
GASTEIGER

@<TRIPOS>ATOM
      1  N         -3.1240   25.7910   64.7140 N.3     8  LYS8       -0.1231
      2  CA        -2.8210   26.9140   63.8390 C.3     8  LYS8        0.1693
      3  C         -4.0480   27.6740   63.3370 C.2     8  LYS8        0.2591
      4  O         -3.9600   28.8690   63.0470 O.2     8  LYS8       -0.2718
      5  CB        -1.9750   26.4640   62.6400 C.3     8  LYS8        0.0285
      6  CG        -2.6170   25.3990   61.7820 C.3     8  LYS8        0.0035
      7  CD        -1.7700   25.0050   60.5720 C.3     8  LYS8        0.0206
      8  CE        -2.5350   24.0130   59.7070 C.3     8  LYS8        0.1093
      9  NZ        -1.8120   23.5390   58.4740 N.3     8  LYS8       -0.1314
     10  N         -5.1890   26.9870   63.1980 N.am    9  GLN9       -0.1979
     11  CA        -6.3410   27.5200   62.4420 C.3     9  GLN9        0.1601
     12  C         -7.6530   27.0980   63.0760 C.2     9  GLN9        0.2287
     13  O         -8.2820   26.1240   62.6320 O.2     9  GLN9       -0.2864
     14  CB        -6.3110   27.0810   60.9750 C.3     9  GLN9        0.0394
     15  CG        -5.3370   27.8880   60.1300 C.3     9  GLN9        0.0908
     16  CD        -5.2870   27.3910   58.6960 C.2     9  GLN9        0.2608
     17  OE1       -6.3330   27.1990   58.0620 O.2     9  GLN9       -0.2717
     18  NE2       -4.0910   27.1530   58.1810 N.am    9  GLN9       -0.0878
     19  N        -10.8140   26.2720   60.9950 N.3    12  ASP12      -0.1239
     20  CA       -10.8530   25.0160   60.2310 C.3    12  ASP12       0.1674
     21  C        -11.4810   23.9810   61.1710 C.2    12  ASP12       0.2266
     22  O        -10.9410   23.7100   62.2440 O.2    12  ASP12      -0.2867
     23  CB        -9.4250   24.6120   59.8430 C.3    12  ASP12       0.1410
     24  CG        -9.3110   23.2050   59.2700 C.2    12  ASP12       0.3668
     25  OD1      -10.3190   22.4730   59.2310 O.co2  12  ASP12      -0.2456
     26  OD2       -8.1610   22.8360   58.9080 O.co2  12  ASP12      -0.2456
     27  N        -11.5980   20.8960   61.2460 N.3    14  TRP14      -0.1227
     28  CA       -10.7050   19.7950   61.6290 C.3    14  TRP14       0.1737
     29  C        -10.1170   20.0060   63.0200 C.2    14  TRP14       0.2595
     30  O        -10.0620   19.0720   63.8280 O.2    14  TRP14      -0.2718
     31  CB        -9.5880   19.6140   60.5830 C.3    14  TRP14       0.0564
     32  CG        -8.5770   18.6230   60.9850 C.ar   14  TRP14       0.0003
     33  CD1       -7.3110   18.8680   61.4420 C.ar   14  TRP14       0.0946
     34  CD2       -8.7470   17.2180   61.0180 C.ar   14  TRP14       0.0152
     35  NE1       -6.6870   17.6900   61.7380 N.ar   14  TRP14      -0.2442
     36  CE2       -7.5490   16.6570   61.4870 C.ar   14  TRP14       0.0810
     37  CE3       -9.8170   16.3620   60.7160 C.ar   14  TRP14       0.0012
     38  CZ2       -7.3880   15.2760   61.6650 C.ar   14  TRP14       0.0191
     39  CZ3       -9.6410   15.0110   60.8840 C.ar   14  TRP14       0.0001
     40  CH2       -8.4290   14.4840   61.3260 C.ar   14  TRP14       0.0015
     41  N         -9.6750   21.2280   63.3070 N.am   15  PHE15      -0.1976
     42  CA        -9.0490   21.4970   64.5910 C.3    15  PHE15       0.1639
     43  C        -10.0760   21.5750   65.6990 C.2    15  PHE15       0.2290
     44  O         -9.8070   21.1970   66.8270 O.2    15  PHE15      -0.2864
     45  CB        -8.1570   22.7480   64.4970 C.3    15  PHE15       0.0560
     46  CG        -6.9500   22.5190   63.6500 C.ar   15  PHE15      -0.0200
     47  CD1       -5.9800   21.6380   64.0470 C.ar   15  PHE15      -0.0042
     48  CD2       -6.8080   23.1200   62.4190 C.ar   15  PHE15      -0.0042
     49  CE1       -4.9070   21.3640   63.2220 C.ar   15  PHE15      -0.0003
     50  CE2       -5.7450   22.8340   61.5920 C.ar   15  PHE15      -0.0003
     51  CZ        -4.7850   21.9670   62.0130 C.ar   15  PHE15      -0.0000
     52  N         -0.4260   16.7780   63.0050 N.3    87  ASP87      -0.1225
     53  CA        -0.7050   17.2020   61.6280 C.3    87  ASP87       0.1805
     54  C          0.5230   17.6580   60.8770 C.2    87  ASP87       0.2597
     55  O          0.8950   17.0330   59.9070 O.2    87  ASP87      -0.2718
     56  CB        -1.8190   18.2450   61.5750 C.3    87  ASP87       0.1424
     57  CG        -3.0290   17.7930   62.3360 C.2    87  ASP87       0.3668
     58  OD1       -3.5760   16.7190   61.9740 O.co2  87  ASP87      -0.2456
     59  OD2       -3.4130   18.4420   63.3220 O.co2  87  ASP87      -0.2456
     60  N          1.1570   18.7220   61.3560 N.am   88  ASP88      -0.1974
     61  CA         2.2430   19.3780   60.6690 C.3    88  ASP88       0.1709
     62  C          3.5090   19.1840   61.4820 C.2    88  ASP88       0.2293
     63  O          3.6500   19.7360   62.5670 O.2    88  ASP88      -0.2864
     64  CB         1.9610   20.8520   60.4770 C.3    88  ASP88       0.1436
     65  CG         0.6970   21.1430   59.6570 C.2    88  ASP88       0.3671
     66  OD1        0.0340   20.1790   59.2160 O.co2  88  ASP88      -0.2456
     67  OD2        0.3910   22.3470   59.4710 O.co2  88  ASP88      -0.2456
     68  N         -1.1450   12.4830   58.8580 N.3   106  ILE106     -0.1245
     69  CA        -1.7690   11.5900   57.9070 C.3   106  ILE106      0.1561
     70  C         -0.7150   11.0000   56.9720 C.2   106  ILE106      0.2260
     71  O          0.3450   11.5960   56.7660 O.2   106  ILE106     -0.2867
     72  CB        -2.9030   12.2740   57.1080 C.3   106  ILE106      0.0252
     73  CG1       -2.3930   13.2990   56.0780 C.3   106  ILE106      0.0019
     74  CG2       -3.8840   12.9130   58.0620 C.3   106  ILE106      0.0019
     75  CD1       -3.4840   13.8610   55.2050 C.3   106  ILE106      0.0001
     76  N          5.0210   23.4560   52.6910 N.3   143  LEU143     -0.1245
     77  CA         4.7200   22.5400   53.7880 C.3   143  LEU143      0.1561
     78  C          4.7220   21.0980   53.2810 C.2   143  LEU143      0.2260
     79  O          3.8750   20.7500   52.4690 O.2   143  LEU143     -0.2867
     80  CB         3.3740   22.8820   54.3930 C.3   143  LEU143      0.0270
     81  CG         2.8890   22.0090   55.5560 C.3   143  LEU143      0.0019
     82  CD1        3.7670   22.2050   56.7920 C.3   143  LEU143      0.0001
     83  CD2        1.4290   22.2720   55.8700 C.3   143  LEU143      0.0001
     84  N          3.6320   18.1340   54.1850 N.3   145  THR145     -0.1218
     85  CA         2.4120   17.3310   54.1350 C.3   145  THR145      0.1862
     86  C          1.4950   17.8380   53.0350 C.2   145  THR145      0.2287
     87  O          0.8340   17.0730   52.3590 O.2   145  THR145     -0.2866
     88  CB         1.6940   17.2210   55.5100 C.3   145  THR145      0.1770
     89  OG1        0.5960   16.3030   55.4160 O.3   145  THR145     -0.2211
     90  CG2        1.1790   18.5710   55.9900 C.3   145  THR145      0.0375
     91  N          0.3580   15.5720   49.6440 N.3   149  ARG149     -0.1245
     92  CA        -1.0540   15.3740   49.3170 C.3   149  ARG149      0.1563
     93  C         -1.3170   15.7000   47.8650 C.2   149  ARG149      0.2260
     94  O         -2.0020   14.9350   47.1840 O.2   149  ARG149     -0.2867
     95  CB        -1.9540   16.2540   50.1920 C.3   149  ARG149      0.0307
     96  CG        -1.9180   15.8870   51.6520 C.3   149  ARG149      0.0489
     97  CD        -2.4780   16.9840   52.5350 C.3   149  ARG149      0.2205
     98  NE        -1.9790   16.8530   53.8970 N.pl3 149  ARG149     -0.0865
     99  CZ        -2.6320   17.2790   54.9860 C.cat 149  ARG149      0.5346
    100  NH1       -3.8210   17.8470   54.8640 N.pl3 149  ARG149      0.1354
    101  NH2       -2.0930   17.1510   56.1950 N.pl3 149  ARG149      0.1354
    102  N         -4.7840   20.8080   49.6460 N.3   202  SER202     -0.1202
    103  CA        -4.2560   20.1380   50.8150 C.3   202  SER202      0.2020
    104  C         -5.3700   19.7080   51.7660 C.2   202  SER202      0.2618
    105  O         -5.1560   18.8470   52.6080 O.2   202  SER202     -0.2717
    106  CB        -3.2610   21.0290   51.5420 C.3   202  SER202      0.2103
    107  OG        -3.8480   22.2500   51.9290 O.3   202  SER202     -0.2182
    108  N         -6.5420   20.3320   51.6460 N.am  203  ASN203     -0.1974
    109  CA        -7.6570   20.0380   52.5450 C.3   203  ASN203      0.1688
    110  C         -8.9670   20.5060   51.9400 C.2   203  ASN203      0.2292
    111  O         -8.9950   21.0590   50.8440 O.2   203  ASN203     -0.2864
    112  CB        -7.4210   20.6180   53.9630 C.3   203  ASN203      0.1181
    113  CG        -7.4190   22.1410   54.0040 C.2   203  ASN203      0.2629
    114  OD1       -7.6010   22.8100   52.9960 O.2   203  ASN203     -0.2716
    115  ND2       -7.2030   22.6920   55.1900 N.am  203  ASN203     -0.0877
    116  N        -10.2160   15.7670   54.6480 N.3   230  ASN230     -0.1240
    117  CA       -10.5970   15.9370   56.0670 C.3   230  ASN230      0.1653
    118  C        -11.9380   15.2840   56.3270 C.2   230  ASN230      0.2266
    119  O        -12.0730   14.5020   57.2300 O.2   230  ASN230     -0.2867
    120  CB       -10.6640   17.3750   56.5440 C.3   230  ASN230      0.1155
    121  CG        -9.3150   18.0060   56.7190 C.2   230  ASN230      0.2627
    122  OD1       -8.2920   17.3230   56.7190 O.2   230  ASN230     -0.2716
    123  ND2       -9.3050   19.3270   56.9120 N.am  230  ASN230     -0.0877
    124  N        -10.8170   11.7970   57.2430 N.3   253  LEU253     -0.1245
    125  CA        -9.8180   11.4900   58.2610 C.3   253  LEU253      0.1561
    126  C        -10.4630   11.2190   59.6250 C.2   253  LEU253      0.2260
    127  O        -11.6610   11.4310   59.8360 O.2   253  LEU253     -0.2867
    128  CB        -8.8400   12.6610   58.3780 C.3   253  LEU253      0.0270
    129  CG        -8.1190   13.0700   57.0920 C.3   253  LEU253      0.0019
    130  CD1       -7.2100   14.2430   57.4040 C.3   253  LEU253      0.0001
    131  CD2       -7.3400   11.9520   56.4120 C.3   253  LEU253      0.0001
    132  N         -6.2060   11.8450   66.0230 N.3   258  HIS258     -0.1241
    133  CA        -5.4090   13.0640   66.1670 C.3   258  HIS258      0.1621
    134  C         -5.7000   13.8870   67.4130 C.2   258  HIS258      0.2264
    135  O         -4.8590   14.6670   67.8340 O.2   258  HIS258     -0.2867
    136  CB        -5.5750   13.9340   64.9150 C.3   258  HIS258      0.0745
    137  CG        -4.9460   13.3480   63.6930 C.ar  258  HIS258      0.0817
    138  ND1       -4.2060   14.0990   62.8030 N.ar  258  HIS258     -0.2268
    139  CD2       -4.9590   12.0840   63.2060 C.ar  258  HIS258      0.1154
    140  CE1       -3.7910   13.3190   61.8160 C.ar  258  HIS258      0.1986
    141  NE2       -4.2230   12.0900   62.0450 N.ar  258  HIS258     -0.2212
@<TRIPOS>BOND
     1    94    93    2
     2    93    92    1
     3    92    91    1
     4    92    95    1
     5   102   103    1
     6    95    96    1
     7   103   106    1
     8   103   104    1
     9   111   110    2
    10   106   107    1
    11   108   104   am
    12   108   109    1
    13    96    97    1
    14   104   105    2
    15   110   109    1
    16    87    86    2
    17    79    78    2
    18    97    98    1
    19   109   112    1
    20    76    77    1
    21   114   113    2
    22    86    85    1
    23    78    77    1
    24    77    80    1
    25    98    99    2
    26   112   113    1
    27   113   115   am
    28    85    84    1
    29    85    88    1
    30    80    81    1
    31   116   117    1
    32   100    99    1
    33    99   101    1
    34    75    73    1
    35    89    88    1
    36    88    90    1
    37    81    83    1
    38    81    82    1
    39   117   118    1
    40   117   120    1
    41    73    72    1
    42   118   119    2
    43   131   129    1
    44   120   121    1
    45   121   122    2
    46   121   123   am
    47    71    70    2
    48    70    69    1
    49   129   130    1
    50   129   128    1
    51    72    69    1
    52    72    74    1
    53   124   125    1
    54    69    68    1
    55    17    16    2
    56    18    16   am
    57   125   128    1
    58   125   126    1
    59     9     8    1
    60    16    15    1
    61    26    24   ar
    62    66    65   ar
    63    25    24   ar
    64    24    23    1
    65    67    65   ar
    66   126   127    2
    67    65    64    1
    68     8     7    1
    69    23    20    1
    70    55    54    2
    71    15    14    1
    72    20    19    1
    73    20    21    1
    74    64    61    1
    75     7     6    1
    76    31    32    1
    77    31    28    1
    78    61    60    1
    79    61    62    1
    80    37    39   ar
    81    37    34   ar
    82    54    60   am
    83    54    53    1
    84    39    40   ar
    85    14    11    1
    86    32    34   ar
    87    32    33   ar
    88    34    36   ar
    89    21    22    2
    90    27    28    1
    91    40    38   ar
    92    33    35   ar
    93    62    63    2
    94    36    38   ar
    95    36    35   ar
    96    56    53    1
    97    56    57    1
    98    50    51   ar
    99    50    48   ar
   100    53    52    1
   101    28    29    1
   102     6     5    1
   103   140   141   ar
   104   140   138   ar
   105    58    57   ar
   106    51    49   ar
   107   141   139   ar
   108    57    59   ar
   109    48    46   ar
   110    11    12    1
   111    11    10    1
   112    13    12    2
   113     5     2    1
   114   138   137   ar
   115    29    41   am
   116    29    30    2
   117     4     3    2
   118    10     3   am
   119   139   137   ar
   120    49    47   ar
   121    41    42    1
   122     3     2    1
   123    46    47   ar
   124    46    45    1
   125   137   136    1
   126     2     1    1
   127    45    42    1
   128    42    43    1
   129   136   133    1
   130    43    44    2
   131   132   133    1
   132   133   134    1
   133   134   135    2
