@<TRIPOS>MOLECULE
tmp/4kztC01.pdb
 160 162 0 0 0
SMALL
GASTEIGER

@<TRIPOS>ATOM
      1  N        127.6800  150.6520   11.8860 N.3   308  PHE308     -0.1241
      2  CA       126.7860  149.5200   12.0930 C.3   308  PHE308      0.1605
      3  C        125.3470  149.9030   11.7470 C.2   308  PHE308      0.2264
      4  O        124.5000  149.0250   11.5170 O.2   308  PHE308     -0.2867
      5  CB       126.8300  149.0690   13.5580 C.3   308  PHE308      0.0534
      6  CG       128.1190  148.4070   13.9670 C.ar  308  PHE308     -0.0203
      7  CD1      128.2960  147.0390   13.8180 C.ar  308  PHE308     -0.0042
      8  CD2      129.1430  149.1490   14.5350 C.ar  308  PHE308     -0.0042
      9  CE1      129.4800  146.4390   14.2170 C.ar  308  PHE308     -0.0003
     10  CE2      130.3290  148.5450   14.9240 C.ar  308  PHE308     -0.0003
     11  CZ       130.4980  147.2020   14.7650 C.ar  308  PHE308     -0.0000
     12  N        123.2640  151.1460   13.7100 N.3   310  ARG310     -0.1245
     13  CA       122.5210  151.1470   14.9710 C.3   310  ARG310      0.1563
     14  C        123.4150  151.7130   16.0750 C.2   310  ARG310      0.2260
     15  O        124.6340  151.6140   15.9900 O.2   310  ARG310     -0.2867
     16  CB       122.0640  149.7210   15.3280 C.3   310  ARG310      0.0307
     17  CG       121.7960  148.8040   14.1230 C.3   310  ARG310      0.0489
     18  CD       121.3160  147.4330   14.5830 C.3   310  ARG310      0.2205
     19  NE       122.2040  146.8150   15.5750 N.pl3 310  ARG310     -0.0865
     20  CZ       123.1780  145.9530   15.2860 C.cat 310  ARG310      0.5346
     21  NH1      123.3790  145.5570   14.0290 N.pl3 310  ARG310      0.1354
     22  NH2      123.9260  145.4500   16.2660 N.pl3 310  ARG310      0.1354
     23  N        139.5050  139.8300   23.5150 N.3   345  TYR345     -0.1227
     24  CA       138.2300  139.7260   22.8260 C.3   345  TYR345      0.1736
     25  C        137.9160  141.0130   22.0630 C.2   345  TYR345      0.2595
     26  O        137.9530  142.1190   22.6120 O.2   345  TYR345     -0.2718
     27  CB       137.1300  139.3930   23.8260 C.3   345  TYR345      0.0548
     28  CG       135.7210  139.4400   23.2930 C.ar  345  TYR345     -0.0200
     29  CD1      135.1530  138.3480   22.6540 C.ar  345  TYR345     -0.0009
     30  CD2      134.9500  140.5750   23.4480 C.ar  345  TYR345     -0.0009
     31  CE1      133.8480  138.3950   22.1740 C.ar  345  TYR345      0.0417
     32  CE2      133.6570  140.6380   22.9710 C.ar  345  TYR345      0.0417
     33  CZ       133.1050  139.5490   22.3380 C.ar  345  TYR345      0.1957
     34  OH       131.8080  139.6380   21.8690 O.3   345  TYR345     -0.2866
     35  N        137.6090  140.8590   20.7830 N.am  346  LEU346     -0.1966
     36  CA       137.3390  141.9970   19.9370 C.3   346  LEU346      0.1728
     37  C        135.8740  142.3650   20.0820 C.2   346  LEU346      0.2616
     38  O        134.9910  141.7080   19.5370 O.2   346  LEU346     -0.2715
     39  CB       137.6750  141.6650   18.4860 C.3   346  LEU346      0.0311
     40  CG       137.6290  142.8520   17.5430 C.3   346  LEU346      0.0022
     41  CD1      138.8360  143.7350   17.8630 C.3   346  LEU346      0.0001
     42  CD2      137.6110  142.4130   16.0900 C.3   346  LEU346      0.0001
     43  N        135.6300  143.4010   20.8680 N.am  347  ASP347     -0.1957
     44  CA       134.2850  143.8440   21.2060 C.3   347  ASP347      0.1840
     45  C        133.7060  144.7160   20.0830 C.2   347  ASP347      0.2622
     46  O        132.5800  144.4930   19.6530 O.2   347  ASP347     -0.2715
     47  CB       134.3060  144.6080   22.5360 C.3   347  ASP347      0.1450
     48  CG       132.9340  144.7250   23.1650 C.2   347  ASP347      0.3671
     49  OD1      132.1140  143.7920   22.9890 O.co2 347  ASP347     -0.2456
     50  OD2      132.6870  145.7360   23.8550 O.co2 347  ASP347     -0.2456
     51  N        134.4570  145.7300   19.6480 N.am  348  LYS348     -0.1963
     52  CA       134.0650  146.5390   18.5000 C.3   348  LYS348      0.1728
     53  C        135.1320  146.5610   17.4240 C.2   348  LYS348      0.2616
     54  O        136.3170  146.7710   17.7120 O.2   348  LYS348     -0.2715
     55  CB       133.7580  147.9890   18.8810 C.3   348  LYS348      0.0311
     56  CG       132.4670  148.2310   19.6520 C.3   348  LYS348      0.0038
     57  CD       131.3120  147.3810   19.1340 C.3   348  LYS348      0.0206
     58  CE       130.6010  146.7550   20.3340 C.3   348  LYS348      0.1093
     59  NZ       129.8960  145.4710   20.0180 N.3   348  LYS348     -0.1314
     60  N        134.6880  146.3430   16.1840 N.am  349  PHE349     -0.1974
     61  CA       135.4500  146.6890   14.9890 C.3   349  PHE349      0.1639
     62  C        134.5220  147.5380   14.1280 C.2   349  PHE349      0.2290
     63  O        133.5380  147.0280   13.6230 O.2   349  PHE349     -0.2864
     64  CB       135.8310  145.4500   14.2170 C.3   349  PHE349      0.0560
     65  CG       136.7720  145.7170   13.0780 C.ar  349  PHE349     -0.0200
     66  CD1      137.9510  146.4210   13.2890 C.ar  349  PHE349     -0.0042
     67  CD2      136.4830  145.2680   11.7840 C.ar  349  PHE349     -0.0042
     68  CE1      138.8300  146.6630   12.2350 C.ar  349  PHE349     -0.0003
     69  CE2      137.3670  145.5060   10.7370 C.ar  349  PHE349     -0.0003
     70  CZ       138.5380  146.2100   10.9650 C.ar  349  PHE349     -0.0000
     71  N        136.3290  136.7400   18.6310 N.3   377  TRP377     -0.1227
     72  CA       135.3190  137.7700   18.4010 C.3   377  TRP377      0.1737
     73  C        134.0490  137.1690   17.8530 C.2   377  TRP377      0.2595
     74  O        133.9750  135.9640   17.6230 O.2   377  TRP377     -0.2718
     75  CB       135.8540  138.8540   17.4820 C.3   377  TRP377      0.0564
     76  CG       135.9500  138.5100   16.0110 C.ar  377  TRP377      0.0003
     77  CD1      135.0480  138.8260   15.0290 C.ar  377  TRP377      0.0946
     78  CD2      137.0270  137.8280   15.3530 C.ar  377  TRP377      0.0152
     79  NE1      135.5010  138.3820   13.8160 N.ar  377  TRP377     -0.2442
     80  CE2      136.7110  137.7650   13.9860 C.ar  377  TRP377      0.0810
     81  CE3      138.2270  137.2620   15.7880 C.ar  377  TRP377      0.0012
     82  CZ2      137.5440  137.1500   13.0570 C.ar  377  TRP377      0.0191
     83  CZ3      139.0590  136.6550   14.8530 C.ar  377  TRP377      0.0001
     84  CH2      138.7130  136.6010   13.5140 C.ar  377  TRP377      0.0015
     85  N        133.0260  137.9900   17.6840 N.am  378  ARG378     -0.1966
     86  CA       131.7820  137.4780   17.1280 C.3   378  ARG378      0.1729
     87  C        131.1720  138.4640   16.1390 C.2   378  ARG378      0.2617
     88  O        131.6410  139.5980   15.9670 O.2   378  ARG378     -0.2715
     89  CB       130.7820  137.0870   18.2120 C.3   378  ARG378      0.0348
     90  CG       130.3830  138.2310   19.0800 C.3   378  ARG378      0.0492
     91  CD       129.1430  137.9380   19.8740 C.3   378  ARG378      0.2205
     92  NE       128.7240  139.1720   20.5160 N.pl3 378  ARG378     -0.0865
     93  CZ       127.6860  139.3010   21.3320 C.cat 378  ARG378      0.5346
     94  NH1      126.9210  138.2580   21.6300 N.pl3 378  ARG378      0.1354
     95  NH2      127.4190  140.4910   21.8550 N.pl3 378  ARG378      0.1354
     96  N        130.1300  138.0180   15.4650 N.am  379  SER379     -0.1936
     97  CA       129.5980  138.7970   14.3790 C.3   379  SER379      0.2055
     98  C        128.2510  138.2230   14.0160 C.2   379  SER379      0.2642
     99  O        128.0640  137.0110   14.0500 O.2   379  SER379     -0.2714
    100  CB       130.5640  138.6790   13.2100 C.3   379  SER379      0.2130
    101  OG       130.1020  139.3920   12.0890 O.3   379  SER379     -0.2179
    102  N        127.2840  139.0730   13.7140 N.am  380  ARG380     -0.1977
    103  CA       125.9730  138.5570   13.3500 C.3   380  ARG380      0.1597
    104  C        126.0350  137.8150   12.0150 C.2   380  ARG380      0.2287
    105  O        126.7870  138.2040   11.1000 O.2   380  ARG380     -0.2864
    106  CB       124.9190  139.6690   13.3110 C.3   380  ARG380      0.0334
    107  CG       124.4530  140.1400   14.6700 C.3   380  ARG380      0.0492
    108  CD       123.3710  141.1780   14.5080 C.3   380  ARG380      0.2205
    109  NE       123.1420  141.9210   15.7360 N.pl3 380  ARG380     -0.0865
    110  CZ       122.3820  141.4880   16.7340 C.cat 380  ARG380      0.5346
    111  NH1      121.7840  140.3100   16.6440 N.pl3 380  ARG380      0.1354
    112  NH2      122.2260  142.2340   17.8220 N.pl3 380  ARG380      0.1354
    113  N        136.0970  138.3580    7.7320 N.3   389  TYR389     -0.1241
    114  CA       136.4700  137.7730    9.0260 C.3   389  TYR389      0.1605
    115  C        136.9210  136.3410    8.8030 C.2   389  TYR389      0.2264
    116  O        137.9550  135.9200    9.2990 O.2   389  TYR389     -0.2867
    117  CB       135.3020  137.7880   10.0130 C.3   389  TYR389      0.0534
    118  CG       135.0150  139.1170   10.7070 C.ar  389  TYR389     -0.0201
    119  CD1      135.9550  140.1510   10.7580 C.ar  389  TYR389     -0.0009
    120  CD2      133.8040  139.3130   11.3560 C.ar  389  TYR389     -0.0009
    121  CE1      135.6720  141.3530   11.4280 C.ar  389  TYR389      0.0417
    122  CE2      133.5220  140.4960   12.0270 C.ar  389  TYR389      0.0417
    123  CZ       134.4490  141.5180   12.0670 C.ar  389  TYR389      0.1957
    124  OH       134.1240  142.6920   12.7420 O.3   389  TYR389     -0.2866
    125  N        124.2500  134.5560   16.0340 N.3   402  TRP402     -0.1241
    126  CA       125.6270  135.0030   16.0330 C.3   402  TRP402      0.1605
    127  C        126.5630  133.9170   15.4850 C.2   402  TRP402      0.2264
    128  O        126.1980  132.7480   15.4160 O.2   402  TRP402     -0.2867
    129  CB       126.0420  135.3660   17.4550 C.3   402  TRP402      0.0550
    130  CG       125.2970  136.5360   18.0290 C.ar  402  TRP402      0.0003
    131  CD1      124.1140  136.5030   18.7170 C.ar  402  TRP402      0.0946
    132  CD2      125.6640  137.9100   17.9300 C.ar  402  TRP402      0.0152
    133  NE1      123.7380  137.7710   19.0790 N.ar  402  TRP402     -0.2442
    134  CE2      124.6710  138.6570   18.6050 C.ar  402  TRP402      0.0810
    135  CE3      126.7400  138.5860   17.3470 C.ar  402  TRP402      0.0012
    136  CZ2      124.7260  140.0500   18.7100 C.ar  402  TRP402      0.0191
    137  CZ3      126.7930  139.9630   17.4560 C.ar  402  TRP402      0.0001
    138  CH2      125.7920  140.6800   18.1310 C.ar  402  TRP402      0.0015
    139  N        123.7970  141.9440   24.0650 N.3   427  PRO427     -0.2102
    140  CA       123.9910  142.8320   22.9140 C.3   427  PRO427      0.1504
    141  C        124.5180  144.1960   23.3490 C.2   427  PRO427      0.2576
    142  O        123.9280  144.8060   24.2490 O.2   427  PRO427     -0.2718
    143  CB       122.5710  142.9900   22.3560 C.3   427  PRO427      0.0282
    144  CG       121.7900  141.8470   22.9110 C.3   427  PRO427      0.0208
    145  CD       122.3790  141.6010   24.2650 C.3   427  PRO427      0.0893
    146  N        125.6070  144.6680   22.7450 N.am  428  THR428     -0.1939
    147  CA       126.1230  145.9900   23.1040 C.3   428  THR428      0.2028
    148  C        125.6390  147.0840   22.1270 C.2   428  THR428      0.2642
    149  O        126.0440  148.2440   22.2200 O.2   428  THR428     -0.2714
    150  CB       127.6710  146.0080   23.1920 C.3   428  THR428      0.1808
    151  OG1      128.2310  145.7630   21.8940 O.3   428  THR428     -0.2208
    152  CG2      128.1800  144.9680   24.1980 C.3   428  THR428      0.0379
    153  N        124.7650  146.7030   21.1990 N.am  429  LEU429     -0.1977
    154  CA       124.1100  147.6320   20.2850 C.3   429  LEU429      0.1596
    155  C        122.7030  147.0710   20.1750 C.2   429  LEU429      0.2287
    156  O        122.5280  145.8520   20.0990 O.2   429  LEU429     -0.2864
    157  CB       124.7750  147.5760   18.9090 C.3   429  LEU429      0.0297
    158  CG       126.1150  148.2330   18.5450 C.3   429  LEU429      0.0022
    159  CD1      127.2770  147.6590   19.3220 C.3   429  LEU429      0.0001
    160  CD2      126.3750  148.0040   17.0670 C.3   429  LEU429      0.0001
@<TRIPOS>BOND
     1   113   114    1
     2   115   114    1
     3   115   116    2
     4   114   117    1
     5   117   118    1
     6   118   119   ar
     7   118   120   ar
     8    69    70   ar
     9    69    67   ar
    10   119   121   ar
    11    70    68   ar
    12   105   104    2
    13   120   122   ar
    14   121   123   ar
    15     4     3    2
    16     3     2    1
    17    67    65   ar
    18     1     2    1
    19   104   103    1
    20   122   123   ar
    21   123   124    1
    22   101   100    1
    23     2     5    1
    24    68    66   ar
    25    82    84   ar
    26    82    80   ar
    27    65    66   ar
    28    65    64    1
    29   100    97    1
    30   106   103    1
    31   106   107    1
    32   103   102    1
    33    84    83   ar
    34     5     6    1
    35    63    62    2
    36    12    13    1
    37   102    98   am
    38    79    80   ar
    39    79    77   ar
    40     7     6   ar
    41     7     9   ar
    42     6     8   ar
    43    80    78   ar
    44    98    99    2
    45    98    97    1
    46    21    20    1
    47    17    18    1
    48    17    16    1
    49    62    61    1
    50     9    11   ar
    51    64    61    1
    52    97    96    1
    53   108   107    1
    54   108   109    1
    55     8    10   ar
    56    18    19    1
    57    11    10   ar
    58    83    81   ar
    59    13    16    1
    60    13    14    1
    61    61    60    1
    62    77    76   ar
    63    20    19    2
    64    20    22    1
    65    78    81   ar
    66    78    76   ar
    67   128   127    2
    68    96    87   am
    69   127   126    1
    70   109   110    2
    71    88    87    2
    72    15    14    2
    73    76    75    1
    74   126   125    1
    75   126   129    1
    76    42    40    1
    77    87    86    1
    78    60    53   am
    79   111   110    1
    80   110   112    1
    81   160   158    1
    82    86    85    1
    83    86    89    1
    84   135   137   ar
    85   135   132   ar
    86    53    54    2
    87    53    52    1
    88   129   130    1
    89   137   138   ar
    90    75    72    1
    91    40    41    1
    92    40    39    1
    93    74    73    2
    94    85    73   am
    95    73    72    1
    96   132   130   ar
    97   132   134   ar
    98   130   131   ar
    99   138   136   ar
   100    89    90    1
   101    72    71    1
   102    39    36    1
   103    52    55    1
   104    52    51    1
   105   158   157    1
   106   158   159    1
   107   134   136   ar
   108   134   133   ar
   109   131   133   ar
   110    55    56    1
   111   157   154    1
   112    90    91    1
   113    57    56    1
   114    57    58    1
   115    38    37    2
   116    51    45   am
   117    46    45    2
   118    91    92    1
   119    36    37    1
   120    36    35    1
   121    59    58    1
   122    37    43   am
   123    45    44    1
   124   156   155    2
   125   155   154    1
   126   154   153    1
   127    92    93    2
   128    35    25   am
   129    43    44    1
   130   153   148   am
   131    44    47    1
   132    93    94    1
   133    93    95    1
   134    34    33    1
   135   151   150    1
   136    25    26    2
   137    25    24    1
   138   148   149    2
   139   148   147    1
   140    31    33   ar
   141    31    29   ar
   142    33    32   ar
   143   143   144    1
   144   143   140    1
   145    47    48    1
   146    29    28   ar
   147   146   147    1
   148   146   141   am
   149    24    23    1
   150    24    27    1
   151   144   145    1
   152   140   141    1
   153   140   139    1
   154    32    30   ar
   155    49    48   ar
   156   147   150    1
   157    48    50   ar
   158   150   152    1
   159    28    30   ar
   160    28    27    1
   161   141   142    2
   162   139   145    1
