@<TRIPOS>MOLECULE
tmp/4kztC00.pdb
 153 144 0 0 0
SMALL
GASTEIGER

@<TRIPOS>ATOM
      1  N        131.9850  156.7530   -6.5750 N.3    20  TYR20      -0.1241
      2  CA       133.3200  156.8920   -7.1330 C.3    20  TYR20       0.1605
      3  C        133.2790  157.6580   -8.4340 C.2    20  TYR20       0.2264
      4  O        134.1770  158.4530   -8.7020 O.2    20  TYR20      -0.2867
      5  CB       134.0080  155.5530   -7.2970 C.3    20  TYR20       0.0534
      6  CG       134.5960  155.1180   -6.0000 C.ar   20  TYR20      -0.0201
      7  CD1      135.6660  155.7990   -5.4500 C.ar   20  TYR20      -0.0009
      8  CD2      134.0580  154.0600   -5.2960 C.ar   20  TYR20      -0.0009
      9  CE1      136.1810  155.4320   -4.2400 C.ar   20  TYR20       0.0417
     10  CE2      134.5760  153.6810   -4.0990 C.ar   20  TYR20       0.0417
     11  CZ       135.6410  154.3690   -3.5730 C.ar   20  TYR20       0.1957
     12  OH       136.1570  153.9800   -2.3620 O.3    20  TYR20      -0.2866
     13  N        135.2250  161.5100   -9.4000 N.3    24  PHE24      -0.1241
     14  CA       136.1620  161.6770  -10.4990 C.3    24  PHE24       0.1605
     15  C        135.6030  162.7440  -11.4750 C.2    24  PHE24       0.2264
     16  O        136.3620  163.3580  -12.2320 O.2    24  PHE24      -0.2867
     17  CB       136.4160  160.3430  -11.2030 C.3    24  PHE24       0.0534
     18  CG       136.8970  159.2300  -10.2780 C.ar   24  PHE24      -0.0203
     19  CD1      137.7300  159.4910   -9.1980 C.ar   24  PHE24      -0.0042
     20  CD2      136.5110  157.9200  -10.5020 C.ar   24  PHE24      -0.0042
     21  CE1      138.1530  158.4630   -8.3690 C.ar   24  PHE24      -0.0003
     22  CE2      136.9300  156.9080   -9.6730 C.ar   24  PHE24      -0.0003
     23  CZ       137.7450  157.1750   -8.6120 C.ar   24  PHE24      -0.0000
     24  N        143.9580  163.7150   -8.8660 N.3   197  TYR197     -0.1227
     25  CA       143.3080  163.0640   -7.7370 C.3   197  TYR197      0.1736
     26  C        143.6990  161.5760   -7.6830 C.2   197  TYR197      0.2595
     27  O        143.5530  160.9130   -6.6440 O.2   197  TYR197     -0.2718
     28  CB       141.7980  163.1790   -7.9470 C.3   197  TYR197      0.0548
     29  CG       140.9400  162.6160   -6.8530 C.ar  197  TYR197     -0.0200
     30  CD1      140.6130  163.3620   -5.7340 C.ar  197  TYR197     -0.0009
     31  CD2      140.4750  161.3190   -6.9300 C.ar  197  TYR197     -0.0009
     32  CE1      139.8230  162.8280   -4.7320 C.ar  197  TYR197      0.0417
     33  CE2      139.6990  160.7700   -5.9340 C.ar  197  TYR197      0.0417
     34  CZ       139.3740  161.5240   -4.8410 C.ar  197  TYR197      0.1957
     35  OH       138.6010  160.9490   -3.8620 O.3   197  TYR197     -0.2866
     36  N        144.2230  161.0630   -8.8000 N.am  198  LYS198     -0.1980
     37  CA       144.5240  159.6400   -8.9510 C.3   198  LYS198      0.1596
     38  C        145.7290  159.4630   -9.8540 C.2   198  LYS198      0.2287
     39  O        145.7890  160.0380  -10.9320 O.2   198  LYS198     -0.2864
     40  CB       143.3680  158.9290   -9.6270 C.3   198  LYS198      0.0298
     41  CG       143.1040  157.5750   -9.1120 C.3   198  LYS198      0.0038
     42  CD       142.3250  157.6690   -7.8640 C.3   198  LYS198      0.0206
     43  CE       141.9850  156.3060   -7.3530 C.3   198  LYS198      0.1093
     44  NZ       143.1150  155.4620   -6.9050 N.3   198  LYS198     -0.1314
     45  N        146.7850  144.7590   -0.8370 N.3   217  SER217     -0.1202
     46  CA       145.6570  145.6000   -1.2130 C.3   217  SER217      0.2020
     47  C        145.9470  147.0690   -0.9870 C.2   217  SER217      0.2619
     48  O        146.0710  147.8320   -1.9320 O.2   217  SER217     -0.2717
     49  CB       144.4260  145.1870   -0.4150 C.3   217  SER217      0.2103
     50  OG       143.3570  146.0820   -0.6040 O.3   217  SER217     -0.2182
     51  N        146.1240  147.4490    0.2700 N.am  218  SER218     -0.1951
     52  CA       146.3290  148.8470    0.6340 C.3   218  SER218      0.1924
     53  C        147.7040  149.0180    1.2620 C.2   218  SER218      0.2314
     54  O        148.2160  148.1000    1.9090 O.2   218  SER218     -0.2863
     55  CB       145.2430  149.3030    1.6230 C.3   218  SER218      0.2116
     56  OG       144.6580  148.1960    2.3050 O.3   218  SER218     -0.2180
     57  N        145.6470  159.5110   -4.4130 N.3   257  SER257     -0.1217
     58  CA       146.1000  158.1470   -4.1680 C.3   257  SER257      0.1889
     59  C        146.8200  157.5870   -5.3870 C.2   257  SER257      0.2288
     60  O        146.7630  158.1650   -6.4660 O.2   257  SER257     -0.2866
     61  CB       144.9030  157.2760   -3.8200 C.3   257  SER257      0.2089
     62  OG       143.7530  157.7320   -4.5080 O.3   257  SER257     -0.2183
     63  N        147.1050  153.8640   -7.5510 N.3   259  SER259     -0.1217
     64  CA       146.6680  152.4900   -7.7060 C.3   259  SER259      0.1889
     65  C        147.6870  151.7440   -8.5510 C.2   259  SER259      0.2288
     66  O        148.3240  152.3330   -9.4330 O.2   259  SER259     -0.2866
     67  CB       145.2920  152.4370   -8.3700 C.3   259  SER259      0.2089
     68  OG       144.3150  153.0340   -7.5430 O.3   259  SER259     -0.2183
     69  N        139.1840  148.3950   -9.5700 N.3   269  GLU269     -0.1231
     70  CA       140.0530  149.1960   -8.7100 C.3   269  GLU269      0.1699
     71  C        139.4910  150.5940   -8.4070 C.2   269  GLU269      0.2592
     72  O        139.4600  151.0200   -7.2400 O.2   269  GLU269     -0.2718
     73  CB       141.4640  149.2890   -9.3110 C.3   269  GLU269      0.0402
     74  CG       142.4210  150.2470   -8.6030 C.3   269  GLU269      0.1161
     75  CD       142.7190  149.8640   -7.1380 C.2   269  GLU269      0.3649
     76  OE1      142.4580  148.6910   -6.7460 O.co2 269  GLU269     -0.2457
     77  OE2      143.2470  150.7340   -6.3770 O.co2 269  GLU269     -0.2457
     78  N        139.0090  151.2850   -9.4480 N.am  270  LEU270     -0.1980
     79  CA       138.5910  152.6650   -9.2910 C.3   270  LEU270      0.1596
     80  C        137.1600  152.8100   -8.7950 C.2   270  LEU270      0.2287
     81  O        136.8180  153.8650   -8.2790 O.2   270  LEU270     -0.2864
     82  CB       138.7450  153.4780  -10.5780 C.3   270  LEU270      0.0297
     83  CG       140.0610  153.7410  -11.3200 C.3   270  LEU270      0.0022
     84  CD1      139.8000  154.4310  -12.6620 C.3   270  LEU270      0.0001
     85  CD2      141.0110  154.5730  -10.4780 C.3   270  LEU270      0.0001
     86  N        134.9790  150.4230   -6.8830 N.3   272  THR272     -0.1203
     87  CA       134.5180  149.7810   -5.6520 C.3   272  THR272      0.1994
     88  C        135.4940  150.0920   -4.5420 C.2   272  THR272      0.2618
     89  O        136.6540  150.4200   -4.8100 O.2   272  THR272     -0.2717
     90  CB       134.4150  148.2600   -5.7890 C.3   272  THR272      0.1784
     91  OG1      135.6790  147.7470   -6.2200 O.3   272  THR272     -0.2211
     92  CG2      133.3720  147.8880   -6.8100 C.3   272  THR272      0.0376
     93  N        135.0430  149.9610   -3.2980 N.am  273  HIS273     -0.1961
     94  CA       135.9010  150.2430   -2.1450 C.3   273  HIS273      0.1787
     95  C        137.0270  149.2510   -1.9940 C.2   273  HIS273      0.2620
     96  O        138.1890  149.6530   -1.8310 O.2   273  HIS273     -0.2715
     97  CB       135.0920  150.2380   -0.8610 C.3   273  HIS273      0.0785
     98  CG       134.2000  151.4200   -0.7220 C.ar  273  HIS273      0.0821
     99  ND1      134.6350  152.7020   -0.9730 N.ar  273  HIS273     -0.2267
    100  CD2      132.9100  151.5240   -0.3340 C.ar  273  HIS273      0.1154
    101  CE1      133.6440  153.5470   -0.7600 C.ar  273  HIS273      0.1986
    102  NE2      132.5870  152.8580   -0.3670 N.ar  273  HIS273     -0.2212
    103  N        136.6660  147.9650   -2.0570 N.am  274  ALA274     -0.1963
    104  CA       137.5940  146.8620   -1.8530 C.3   274  ALA274      0.1728
    105  C        138.7590  146.9030   -2.8360 C.2   274  ALA274      0.2616
    106  O        139.8640  146.4690   -2.5160 O.2   274  ALA274     -0.2715
    107  CB       136.8730  145.5720   -1.9410 C.3   274  ALA274      0.0334
    108  N        138.5060  147.4300   -4.0310 N.am  275  GLY275     -0.1955
    109  CA       139.5310  147.5720   -5.0570 C.3   275  GLY275      0.1869
    110  C        139.9300  146.2600   -5.7020 C.2   275  GLY275      0.2309
    111  O        139.3010  145.2230   -5.4730 O.2   275  GLY275     -0.2863
    112  N        143.7450  145.7110   -6.6820 N.3   277  GLY277     -0.1225
    113  CA       145.1470  145.9380   -6.9420 C.3   277  GLY277      0.1811
    114  C        145.7360  146.4790   -5.6610 C.2   277  GLY277      0.2280
    115  O        145.2730  146.1320   -4.5680 O.2   277  GLY277     -0.2866
    116  N        146.5270  149.8170   -3.5080 N.3   279  LEU279     -0.1245
    117  CA       146.2770  151.2310   -3.2340 C.3   279  LEU279      0.1561
    118  C        147.3460  151.7550   -2.2840 C.2   279  LEU279      0.2260
    119  O        147.7170  151.0680   -1.3220 O.2   279  LEU279     -0.2867
    120  CB       144.9180  151.3960   -2.5700 C.3   279  LEU279      0.0270
    121  CG       144.5910  152.8060   -2.1070 C.3   279  LEU279      0.0019
    122  CD1      144.3290  153.6340   -3.3320 C.3   279  LEU279      0.0001
    123  CD2      143.3860  152.7700   -1.2050 C.3   279  LEU279      0.0001
    124  N        148.3230  155.4280   -0.2900 N.3   281  ARG281     -0.1245
    125  CA       148.0640  156.8160    0.0430 C.3   281  ARG281      0.1563
    126  C        149.1200  157.2480    1.0120 C.2   281  ARG281      0.2260
    127  O        149.8880  156.4150    1.4960 O.2   281  ARG281     -0.2867
    128  CB       146.7120  156.9650    0.7350 C.3   281  ARG281      0.0307
    129  CG       145.5280  156.5440   -0.0890 C.3   281  ARG281      0.0489
    130  CD       144.2340  156.7730    0.6730 C.3   281  ARG281      0.2205
    131  NE       143.1410  157.0280   -0.2590 N.pl3 281  ARG281     -0.0865
    132  CZ       142.7740  158.2370   -0.6890 C.cat 281  ARG281      0.5346
    133  NH1      143.3840  159.3410   -0.2530 N.pl3 281  ARG281      0.1354
    134  NH2      141.7690  158.3440   -1.5470 N.pl3 281  ARG281      0.1354
    135  N        137.0390  152.4870    4.7190 N.3   356  ARG356     -0.1231
    136  CA       137.3780  151.1500    4.2120 C.3   356  ARG356      0.1694
    137  C        138.0280  151.1910    2.8240 C.2   356  ARG356      0.2592
    138  O        138.8280  150.3350    2.4780 O.2   356  ARG356     -0.2718
    139  CB       136.1380  150.2410    4.2260 C.3   356  ARG356      0.0321
    140  CG       136.3850  148.7690    3.8910 C.3   356  ARG356      0.0489
    141  CD       135.1590  147.9390    4.2540 C.3   356  ARG356      0.2205
    142  NE       133.9880  148.4440    3.5440 N.pl3 356  ARG356     -0.0865
    143  CZ       133.6660  148.1090    2.2920 C.cat 356  ARG356      0.5346
    144  NH1      134.4280  147.2580    1.6080 N.pl3 356  ARG356      0.1354
    145  NH2      132.5830  148.6230    1.7190 N.pl3 356  ARG356      0.1354
    146  N        137.7060  152.2080    2.0360 N.am  357  GLY357     -0.1957
    147  CA       138.2580  152.2850    0.7010 C.3   357  GLY357      0.1869
    148  C        139.6810  152.7960    0.6890 C.2   357  GLY357      0.2309
    149  O        140.4550  152.5270   -0.2270 O.2   357  GLY357     -0.2863
    150  N        141.8220  151.9300    2.9550 N.3   359  GLY359     -0.1225
    151  CA       142.6620  150.9200    3.5860 C.3   359  GLY359      0.1811
    152  C        142.8970  151.1050    5.0700 C.2   359  GLY359      0.2280
    153  O        143.7540  150.4390    5.6380 O.2   359  GLY359     -0.2866
@<TRIPOS>BOND
     1    84    83    1
     2    16    15    2
     3    15    14    1
     4    83    82    1
     5    83    85    1
     6    17    14    1
     7    17    18    1
     8    39    38    2
     9    82    79    1
    10    20    18   ar
    11    20    22   ar
    12    14    13    1
    13    18    19   ar
    14    38    37    1
    15    22    23   ar
    16    40    41    1
    17    40    37    1
    18    69    70    1
    19    78    79    1
    20    78    71   am
    21    66    65    2
    22    73    70    1
    23    73    74    1
    24    79    80    1
    25    19    21   ar
    26    41    42    1
    27    37    36    1
    28    24    25    1
    29    36    26   am
    30    80    81    2
    31    70    71    1
    32     4     3    2
    33    23    21   ar
    34    74    75    1
    35    65    64    1
    36     3     2    1
    37    71    72    2
    38    67    64    1
    39    67    68    1
    40    28    25    1
    41    28    29    1
    42    42    43    1
    43    25    26    1
    44    64    63    1
    45    26    27    2
    46    43    44    1
    47     5     2    1
    48     5     6    1
    49    75    76   ar
    50    75    77   ar
    51     2     1    1
    52   113   112    1
    53   113   114    1
    54    31    29   ar
    55    31    33   ar
    56    86    87    1
    57    29    30   ar
    58    92    90    1
    59    60    59    2
    60    91    90    1
    61     6     7   ar
    62     6     8   ar
    63    33    34   ar
    64    90    87    1
    65    30    32   ar
    66   110   111    2
    67   110   109    1
    68   114   115    2
    69    87    88    1
    70     7     9   ar
    71    59    58    1
    72     8    10   ar
    73   109   108    1
    74    34    32   ar
    75    34    35    1
    76    89    88    2
    77    88    93   am
    78    62    61    1
    79    57    58    1
    80     9    11   ar
    81    58    61    1
    82    10    11   ar
    83   108   105   am
    84    11    12    1
    85   116   117    1
    86   122   121    1
    87    93    94    1
    88   117   120    1
    89   117   118    1
    90   105   106    2
    91   105   104    1
    92   120   121    1
    93   118   119    2
    94    94    95    1
    95    94    97    1
    96   121   123    1
    97   103    95   am
    98   103   104    1
    99    95    96    2
   100   107   104    1
   101    48    47    2
   102   134   132    1
   103    46    47    1
   104    46    45    1
   105    46    49    1
   106    47    51   am
   107    99   101   ar
   108    99    98   ar
   109    97    98    1
   110   101   102   ar
   111    98   100   ar
   112   132   131    2
   113   132   133    1
   114    50    49    1
   115   102   100   ar
   116   124   125    1
   117   131   130    1
   118   149   148    2
   119   129   130    1
   120   129   128    1
   121   125   128    1
   122   125   126    1
   123    51    52    1
   124    52    53    1
   125    52    55    1
   126   148   147    1
   127   147   146    1
   128   126   127    2
   129    53    54    2
   130   144   143    1
   131    55    56    1
   132   145   143    1
   133   146   137   am
   134   143   142    2
   135   138   137    2
   136   137   136    1
   137   150   151    1
   138   142   141    1
   139   151   152    1
   140   140   139    1
   141   140   141    1
   142   136   139    1
   143   136   135    1
   144   152   153    2
