@<TRIPOS>MOLECULE
tmp/4kzuA00.pdb
 139 142 0 0 0
SMALL
GASTEIGER

@<TRIPOS>ATOM
      1  N         -8.6570   41.7490  -20.6810 N.3    79  PHE79      -0.1227
      2  CA        -9.6480   41.6170  -19.6420 C.3    79  PHE79       0.1736
      3  C         -9.0210   41.3780  -18.2860 C.2    79  PHE79       0.2595
      4  O         -7.9250   40.7880  -18.1710 O.2    79  PHE79      -0.2718
      5  CB       -10.6030   40.4720  -19.9590 C.3    79  PHE79       0.0547
      6  CG       -11.3930   40.7030  -21.1860 C.ar   79  PHE79      -0.0202
      7  CD1      -12.5190   41.5290  -21.1460 C.ar   79  PHE79      -0.0042
      8  CD2      -11.0130   40.1410  -22.3960 C.ar   79  PHE79      -0.0042
      9  CE1      -13.2380   41.7910  -22.3080 C.ar   79  PHE79      -0.0003
     10  CE2      -11.7370   40.3910  -23.5350 C.ar   79  PHE79      -0.0003
     11  CZ       -12.8410   41.2340  -23.4970 C.ar   79  PHE79      -0.0000
     12  N         -9.7310   41.8450  -17.2620 N.am   80  HIS80      -0.1961
     13  CA        -9.3490   41.5960  -15.8950 C.3    80  HIS80       0.1787
     14  C        -10.6290   41.4040  -15.1160 C.2    80  HIS80       0.2621
     15  O        -11.5770   42.2310  -15.2140 O.2    80  HIS80      -0.2715
     16  CB        -8.5630   42.7500  -15.3310 C.3    80  HIS80       0.0785
     17  CG        -8.0220   42.4990  -13.9620 C.ar   80  HIS80       0.0821
     18  ND1       -6.8750   41.7620  -13.7390 N.ar   80  HIS80      -0.2267
     19  CD2       -8.4310   42.9490  -12.7390 C.ar   80  HIS80       0.1154
     20  CE1       -6.6230   41.7450  -12.4390 C.ar   80  HIS80       0.1986
     21  NE2       -7.5420   42.4660  -11.8140 N.ar   80  HIS80      -0.2212
     22  N        -10.6680   40.3050  -14.3800 N.am   81  GLY81      -0.1940
     23  CA       -11.7930   40.0200  -13.4620 C.3    81  GLY81       0.2014
     24  C        -11.3030   39.9300  -12.0380 C.2    81  GLY81       0.2640
     25  O        -10.3040   39.2590  -11.7790 O.2    81  GLY81      -0.2714
     26  N        -11.9910   40.5800  -11.1000 N.am   82  SER82      -0.1936
     27  CA       -11.4770   40.7130   -9.7280 C.3    82  SER82       0.2040
     28  C        -12.5460   41.0300   -8.7000 C.2    82  SER82       0.2485
     29  O        -13.4340   41.8380   -8.9810 O.2    82  SER82      -0.2729
     30  CB       -10.4520   41.8410   -9.6430 C.3    82  SER82       0.2129
     31  OG        -9.8240   41.8960   -8.3490 O.3    82  SER82      -0.2179
     32  N        -12.4330   40.4410   -7.4830 N.am   83  PRO83      -0.2715
     33  CA       -13.2860   40.9750   -6.4300 C.3    83  PRO83       0.1536
     34  C        -13.0310   42.4450   -6.1450 C.2    83  PRO83       0.2598
     35  O        -13.8660   43.0630   -5.5200 O.2    83  PRO83      -0.2715
     36  CB       -12.8850   40.1730   -5.1850 C.3    83  PRO83       0.0310
     37  CG       -12.0410   39.0490   -5.6640 C.3    83  PRO83       0.0237
     38  CD       -11.4590   39.4670   -6.9670 C.3    83  PRO83       0.0939
     39  N        -11.8730   42.9840   -6.5350 N.am   84  PHE84      -0.1974
     40  CA       -11.4890   44.3490   -6.1560 C.3    84  PHE84       0.1639
     41  C        -11.8280   45.3910   -7.2180 C.2    84  PHE84       0.2290
     42  O        -11.2960   46.5230   -7.2140 O.2    84  PHE84      -0.2864
     43  CB        -9.9930   44.3970   -5.8250 C.3    84  PHE84       0.0560
     44  CG        -9.5460   43.3080   -4.8870 C.ar   84  PHE84      -0.0200
     45  CD1      -10.2610   43.0370   -3.7270 C.ar   84  PHE84      -0.0042
     46  CD2       -8.4500   42.5280   -5.1840 C.ar   84  PHE84      -0.0042
     47  CE1       -9.8730   42.0060   -2.8720 C.ar   84  PHE84      -0.0003
     48  CE2       -8.0510   41.5020   -4.3330 C.ar   84  PHE84      -0.0003
     49  CZ        -8.7640   41.2420   -3.1810 C.ar   84  PHE84      -0.0000
     50  N         -3.8100   44.3040   -5.6850 N.3    97  HIS97      -0.1226
     51  CA        -4.6510   43.6160   -6.7070 C.3    97  HIS97       0.1752
     52  C         -3.9430   42.4510   -7.4330 C.2    97  HIS97       0.2596
     53  O         -4.5320   41.8040   -8.3230 O.2    97  HIS97      -0.2718
     54  CB        -5.2140   44.6450   -7.6920 C.3    97  HIS97       0.0759
     55  CG        -5.8700   45.8050   -7.0070 C.ar   97  HIS97       0.0818
     56  ND1       -5.5520   47.1070   -7.2960 N.ar   97  HIS97      -0.2268
     57  CD2       -6.7650   45.8560   -5.9890 C.ar   97  HIS97       0.1154
     58  CE1       -6.2610   47.9200   -6.5280 C.ar   97  HIS97       0.1986
     59  NE2       -6.9940   47.1860   -5.7140 N.ar   97  HIS97      -0.2212
     60  N         -2.7240   42.1620   -6.9690 N.am   98  ALA98      -0.1966
     61  CA        -1.8560   41.1130   -7.4980 C.3    98  ALA98       0.1728
     62  C         -2.3650   39.7220   -7.1620 C.2    98  ALA98       0.2616
     63  O         -2.9950   39.5380   -6.1420 O.2    98  ALA98      -0.2715
     64  CB        -0.4330   41.2930   -6.9660 C.3    98  ALA98       0.0334
     65  N         -2.0920   38.7610   -8.0440 N.am   99  TYR99      -0.1974
     66  CA        -2.3380   37.3520   -7.8010 C.3    99  TYR99       0.1639
     67  C         -1.0550   36.7800   -7.2200 C.2    99  TYR99       0.2290
     68  O         -0.1190   36.4030   -7.9470 O.2    99  TYR99      -0.2864
     69  CB        -2.7350   36.6830   -9.1280 C.3    99  TYR99       0.0560
     70  CG        -3.1040   35.2380   -9.0700 C.ar   99  TYR99      -0.0198
     71  CD1       -3.2400   34.5070  -10.2390 C.ar   99  TYR99      -0.0009
     72  CD2       -3.3320   34.5790   -7.8540 C.ar   99  TYR99      -0.0009
     73  CE1       -3.6050   33.1710  -10.2130 C.ar   99  TYR99       0.0417
     74  CE2       -3.6700   33.2420   -7.8240 C.ar   99  TYR99       0.0417
     75  CZ        -3.8030   32.5490   -9.0050 C.ar   99  TYR99       0.1957
     76  OH        -4.1270   31.2200   -8.9610 O.3    99  TYR99      -0.2866
     77  N         -2.5870   40.1010  -13.2790 N.3   109  TYR109     -0.1227
     78  CA        -2.8150   39.1920  -14.3950 C.3   109  TYR109      0.1736
     79  C         -3.9420   39.7040  -15.2970 C.2   109  TYR109      0.2595
     80  O         -4.9340   40.2720  -14.8180 O.2   109  TYR109     -0.2718
     81  CB        -3.1760   37.8100  -13.8260 C.3   109  TYR109      0.0548
     82  CG        -1.9540   37.0410  -13.3380 C.ar  109  TYR109     -0.0200
     83  CD1       -1.5440   35.8380  -13.9620 C.ar  109  TYR109     -0.0009
     84  CD2       -1.1730   37.5400  -12.3180 C.ar  109  TYR109     -0.0009
     85  CE1       -0.4090   35.1410  -13.5120 C.ar  109  TYR109      0.0417
     86  CE2       -0.0530   36.8710  -11.8800 C.ar  109  TYR109      0.0417
     87  CZ         0.3440   35.6870  -12.4850 C.ar  109  TYR109      0.1957
     88  OH         1.4810   35.0600  -12.0130 O.3   109  TYR109     -0.2866
     89  N         -3.7700   39.5000  -16.6000 N.am  110  PHE110     -0.1962
     90  CA        -4.7490   39.9030  -17.6140 C.3   110  PHE110      0.1771
     91  C         -4.9030   38.8060  -18.6500 C.2   110  PHE110      0.2619
     92  O         -3.9350   38.0560  -18.8970 O.2   110  PHE110     -0.2715
     93  CB        -4.2680   41.1720  -18.3140 C.3   110  PHE110      0.0574
     94  CG        -4.1890   42.3710  -17.4200 C.ar  110  PHE110     -0.0200
     95  CD1       -5.2890   43.2270  -17.2740 C.ar  110  PHE110     -0.0042
     96  CD2       -3.0540   42.6240  -16.7080 C.ar  110  PHE110     -0.0042
     97  CE1       -5.2220   44.3410  -16.4770 C.ar  110  PHE110     -0.0003
     98  CE2       -2.9910   43.6980  -15.8420 C.ar  110  PHE110     -0.0003
     99  CZ        -4.0720   44.5700  -15.7250 C.ar  110  PHE110     -0.0000
    100  N         -6.0830   38.7140  -19.2700 N.am  111  ALA111     -0.1977
    101  CA        -6.3640   37.6730  -20.2670 C.3   111  ALA111      0.1597
    102  C         -6.9150   38.1920  -21.5810 C.2   111  ALA111      0.2287
    103  O         -7.6850   39.1860  -21.6340 O.2   111  ALA111     -0.2864
    104  CB        -7.3260   36.6310  -19.7110 C.3   111  ALA111      0.0319
    105  N        -11.7170   33.5570  -19.2410 N.3   116  LYS116     -0.1231
    106  CA       -10.6690   33.3250  -18.2450 C.3   116  LYS116      0.1693
    107  C        -10.7040   34.3440  -17.1230 C.2   116  LYS116      0.2592
    108  O        -10.6510   33.9550  -15.9420 O.2   116  LYS116     -0.2718
    109  CB        -9.2960   33.3280  -18.8900 C.3   116  LYS116      0.0285
    110  CG        -8.1180   33.4720  -17.9670 C.3   116  LYS116      0.0035
    111  CD        -7.9910   32.3810  -16.9050 C.3   116  LYS116      0.0206
    112  CE        -7.8500   31.0160  -17.4980 C.3   116  LYS116      0.1093
    113  NZ        -7.5030   30.0110  -16.4580 N.3   116  LYS116     -0.1314
    114  N        -10.8000   35.6270  -17.4680 N.am  117  SER117     -0.1952
    115  CA       -11.0080   36.6580  -16.4450 C.3   117  SER117      0.1924
    116  C        -12.3110   36.4570  -15.6790 C.2   117  SER117      0.2314
    117  O        -12.3690   36.7850  -14.5090 O.2   117  SER117     -0.2863
    118  CB       -11.0250   38.0690  -17.0190 C.3   117  SER117      0.2116
    119  OG        -9.7620   38.4920  -17.4600 O.3   117  SER117     -0.2180
    120  N        -12.1930   34.7310  -12.2140 N.3   120  TYR120     -0.1241
    121  CA       -11.6630   35.3850  -11.0170 C.3   120  TYR120      0.1605
    122  C        -12.6130   36.4680  -10.4060 C.2   120  TYR120      0.2264
    123  O        -12.2940   37.0890   -9.3860 O.2   120  TYR120     -0.2867
    124  CB       -10.2860   35.9960  -11.3030 C.3   120  TYR120      0.0534
    125  CG        -9.2670   34.9410  -11.6330 C.ar  120  TYR120     -0.0201
    126  CD1       -8.4710   34.4000  -10.6530 C.ar  120  TYR120     -0.0009
    127  CD2       -9.1450   34.4530  -12.9260 C.ar  120  TYR120     -0.0009
    128  CE1       -7.5450   33.4050  -10.9460 C.ar  120  TYR120      0.0417
    129  CE2       -8.2380   33.4530  -13.2300 C.ar  120  TYR120      0.0417
    130  CZ        -7.4480   32.9430  -12.2280 C.ar  120  TYR120      0.1957
    131  OH        -6.5470   31.9870  -12.5220 O.3   120  TYR120     -0.2866
    132  N        -10.2240   33.9150   -6.4720 N.3   124  ILE124     -0.1245
    133  CA        -9.3890   32.8570   -7.0370 C.3   124  ILE124      0.1561
    134  C        -10.1830   31.5290   -7.0700 C.2   124  ILE124      0.2260
    135  O        -10.8620   31.1720   -6.1340 O.2   124  ILE124     -0.2867
    136  CB        -8.0650   32.7530   -6.2670 C.3   124  ILE124      0.0252
    137  CG1       -7.2950   34.0870   -6.3940 C.3   124  ILE124      0.0019
    138  CG2       -7.2190   31.5620   -6.7760 C.3   124  ILE124      0.0019
    139  CD1       -6.3190   34.3510   -5.2630 C.3   124  ILE124      0.0001
@<TRIPOS>BOND
     1    10    11   ar
     2    10     8   ar
     3    11     9   ar
     4     8     6   ar
     5     9     7   ar
     6   103   102    2
     7   102   101    1
     8     6     7   ar
     9     6     5    1
    10     1     2    1
    11   101   104    1
    12   101   100    1
    13     5     2    1
    14     2     3    1
    15   100    91   am
    16   105   106    1
    17    92    91    2
    18   109   106    1
    19   109   110    1
    20    91    90    1
    21    93    90    1
    22    93    94    1
    23     3     4    2
    24     3    12   am
    25   106   107    1
    26   110   111    1
    27    90    89    1
    28   112   111    1
    29   112   113    1
    30   114   107   am
    31   114   115    1
    32   119   118    1
    33    94    95   ar
    34    94    96   ar
    35    95    97   ar
    36    12    13    1
    37   107   108    2
    38   118   115    1
    39    96    98   ar
    40    89    79   am
    41    97    99   ar
    42   115   116    1
    43    13    16    1
    44    13    14    1
    45    98    99   ar
    46   116   117    2
    47    16    17    1
    48    79    80    2
    49    79    78    1
    50    15    14    2
    51    14    22   am
    52    78    81    1
    53    78    77    1
    54    22    23    1
    55    83    85   ar
    56    83    82   ar
    57    17    18   ar
    58    17    19   ar
    59    81    82    1
    60    18    20   ar
    61    85    87   ar
    62    23    24    1
    63    82    84   ar
    64   129   127   ar
    65   129   130   ar
    66   127   125   ar
    67    19    21   ar
    68   131   130    1
    69    87    88    1
    70    87    86   ar
    71    20    21   ar
    72    84    86   ar
    73   130   128   ar
    74   120   121    1
    75    24    25    2
    76    24    26   am
    77   125   124    1
    78   125   126   ar
    79   124   121    1
    80    26    27    1
    81   121   122    1
    82   128   126   ar
    83   122   123    2
    84    71    73   ar
    85    71    70   ar
    86    73    75   ar
    87    27    30    1
    88    27    28    1
    89    30    31    1
    90    69    70    1
    91    69    66    1
    92    70    72   ar
    93    75    76    1
    94    75    74   ar
    95    29    28    2
    96    28    32   am
    97    53    52    2
    98    65    66    1
    99    65    62   am
   100    68    67    2
   101    72    74   ar
   102    66    67    1
   103    54    55    1
   104    54    51    1
   105    61    62    1
   106    61    60    1
   107    61    64    1
   108    32    38    1
   109    32    33    1
   110    52    60   am
   111    52    51    1
   112    56    55   ar
   113    56    58   ar
   114    41    42    2
   115    41    40    1
   116    62    63    2
   117   134   133    1
   118   134   135    2
   119   133   132    1
   120   133   136    1
   121    55    57   ar
   122    38    37    1
   123   138   136    1
   124    51    50    1
   125    39    40    1
   126    39    34   am
   127    58    59   ar
   128    33    34    1
   129    33    36    1
   130   137   136    1
   131   137   139    1
   132    40    43    1
   133    34    35    2
   134    57    59   ar
   135    43    44    1
   136    37    36    1
   137    46    44   ar
   138    46    48   ar
   139    44    45   ar
   140    48    49   ar
   141    45    47   ar
   142    49    47   ar
