@<TRIPOS>MOLECULE
tmp/4l04C00.pdb
 128 120 0 0 0
SMALL
GASTEIGER

@<TRIPOS>ATOM
      1  N        -33.1870  -52.2280 -107.1150 N.3    72  THR72      -0.1218
      2  CA       -34.0480  -52.5130 -105.9570 C.3    72  THR72       0.1862
      3  C        -34.6730  -51.2610 -105.3400 C.2    72  THR72       0.2287
      4  O        -34.0530  -50.1940 -105.3270 O.2    72  THR72      -0.2866
      5  CB       -33.2470  -53.2930 -104.8960 C.3    72  THR72       0.1770
      6  OG1      -32.0290  -52.5990 -104.6270 O.3    72  THR72      -0.2211
      7  CG2      -32.9110  -54.7020 -105.3310 C.3    72  THR72       0.0375
      8  N        -35.5880  -48.6690 -102.5950 N.3    74  THR74      -0.1218
      9  CA       -35.0630  -48.1330 -101.3420 C.3    74  THR74       0.1862
     10  C        -36.3060  -47.5210 -100.6730 C.2    74  THR74       0.2287
     11  O        -36.8610  -46.5360 -101.1940 O.2    74  THR74      -0.2866
     12  CB       -33.8500  -47.2250 -101.5330 C.3    74  THR74       0.1770
     13  OG1      -32.7820  -48.0260 -102.0290 O.3    74  THR74      -0.2211
     14  CG2      -33.4110  -46.5660 -100.2420 C.3    74  THR74       0.0375
     15  N        -30.9130  -48.7300  -98.2260 N.3    91  SER91      -0.1203
     16  CA       -30.6300  -49.0450  -99.6170 C.3    91  SER91       0.2005
     17  C        -29.7490  -50.2860  -99.6770 C.2    91  SER91       0.2461
     18  O        -28.6940  -50.3200  -99.0170 O.2    91  SER91      -0.2732
     19  CB       -29.8750  -47.8830 -100.2640 C.3    91  SER91       0.2103
     20  OG       -29.1270  -48.2400 -101.4180 O.3    91  SER91      -0.2182
     21  N        -30.1470  -51.3020 -100.4840 N.am   92  PRO92      -0.2717
     22  CA       -29.2990  -52.4940 -100.6430 C.3    92  PRO92       0.1535
     23  C        -27.9530  -52.1120 -101.2740 C.2    92  PRO92       0.2599
     24  O        -26.9060  -52.6620 -100.9210 O.2    92  PRO92      -0.2715
     25  CB       -30.1390  -53.3840 -101.5510 C.3    92  PRO92       0.0310
     26  CG       -31.5220  -52.8780 -101.3770 C.3    92  PRO92       0.0237
     27  CD       -31.3580  -51.4180 -101.3080 C.3    92  PRO92       0.0939
     28  N        -27.9880  -51.0850 -102.1330 N.am   93  ASN93      -0.1959
     29  CA       -26.8320  -50.5140 -102.8030 C.3    93  ASN93       0.1819
     30  C        -25.8160  -49.9240 -101.8210 C.2    93  ASN93       0.2621
     31  O        -24.6530  -50.3110 -101.8590 O.2    93  ASN93      -0.2715
     32  CB       -27.2770  -49.5240 -103.8660 C.3    93  ASN93       0.1195
     33  CG       -27.9690  -50.2320 -105.0030 C.2    93  ASN93       0.2630
     34  OD1      -29.1900  -50.1810 -105.1100 O.2    93  ASN93      -0.2716
     35  ND2      -27.2120  -50.9910 -105.8230 N.am   93  ASN93      -0.0877
     36  N        -26.2660  -49.0840 -100.8860 N.am   94  ASN94      -0.1972
     37  CA       -25.3930  -48.5280  -99.8540 C.3    94  ASN94       0.1688
     38  C        -24.7650  -49.6810  -99.0440 C.2    94  ASN94       0.2292
     39  O        -23.5420  -49.7200  -98.9250 O.2    94  ASN94      -0.2864
     40  CB       -26.1620  -47.5630  -98.9570 C.3    94  ASN94       0.1181
     41  CG       -26.6430  -46.3010  -99.6330 C.2    94  ASN94       0.2629
     42  OD1      -26.5550  -46.1140 -100.8630 O.2    94  ASN94      -0.2716
     43  ND2      -27.1550  -45.3870  -98.8220 N.am   94  ASN94      -0.0877
     44  N        -22.2210  -51.7860 -101.1580 N.3    97  ARG97      -0.1245
     45  CA       -21.0750  -50.9340 -101.4270 C.3    97  ARG97       0.1563
     46  C        -20.2610  -50.6040 -100.2030 C.2    97  ARG97       0.2260
     47  O        -19.0490  -50.4570 -100.3140 O.2    97  ARG97      -0.2867
     48  CB       -21.4740  -49.6730 -102.1650 C.3    97  ARG97       0.0307
     49  CG       -21.9670  -49.9310 -103.5660 C.3    97  ARG97       0.0489
     50  CD       -22.3970  -48.6260 -104.2020 C.3    97  ARG97       0.2205
     51  NE       -23.3530  -48.8330 -105.2860 N.pl3  97  ARG97      -0.0865
     52  CZ       -24.3670  -48.0200 -105.5490 C.cat  97  ARG97       0.5346
     53  NH1      -24.5820  -46.9460 -104.7950 N.pl3  97  ARG97       0.1354
     54  NH2      -25.1930  -48.2870 -106.5490 N.pl3  97  ARG97       0.1354
     55  N        -19.1010  -45.6100 -114.1380 N.3   106  ARG106     -0.1245
     56  CA       -20.3040  -45.3680 -114.9240 C.3   106  ARG106      0.1563
     57  C        -20.0170  -44.6410 -116.2180 C.2   106  ARG106      0.2260
     58  O        -19.3040  -43.6430 -116.2250 O.2   106  ARG106     -0.2867
     59  CB       -21.3620  -44.6620 -114.0750 C.3   106  ARG106      0.0307
     60  CG       -21.8590  -45.5520 -112.9480 C.3   106  ARG106      0.0489
     61  CD       -22.8650  -44.8520 -112.0750 C.3   106  ARG106      0.2205
     62  NE       -23.6370  -45.8110 -111.2900 N.pl3 106  ARG106     -0.0865
     63  CZ       -24.5900  -45.4810 -110.4280 C.cat 106  ARG106      0.5346
     64  NH1      -24.9020  -44.2040 -110.2250 N.pl3 106  ARG106      0.1354
     65  NH2      -25.2400  -46.4260 -109.7580 N.pl3 106  ARG106      0.1354
     66  N        -17.2010  -42.8830 -109.6280 N.3   129  ARG129     -0.1245
     67  CA       -17.8850  -42.5010 -108.3950 C.3   129  ARG129      0.1563
     68  C        -17.2490  -43.2430 -107.2170 C.2   129  ARG129      0.2260
     69  O        -17.1150  -44.4690 -107.2640 O.2   129  ARG129     -0.2867
     70  CB       -19.3860  -42.8290 -108.5150 C.3   129  ARG129      0.0307
     71  CG       -20.1500  -42.7510 -107.2250 C.3   129  ARG129      0.0489
     72  CD       -21.5810  -43.1630 -107.4120 C.3   129  ARG129      0.2205
     73  NE       -22.2720  -43.2950 -106.1270 N.pl3 129  ARG129     -0.0865
     74  CZ       -23.5440  -43.6540 -106.0070 C.cat 129  ARG129      0.5346
     75  NH1      -24.2800  -43.8830 -107.0860 N.pl3 129  ARG129      0.1354
     76  NH2      -24.1000  -43.7530 -104.8080 N.pl3 129  ARG129      0.1354
     77  N        -23.8890  -41.9220  -97.9500 N.3   136  TYR136     -0.1241
     78  CA       -24.3120  -43.3080  -98.1460 C.3   136  TYR136      0.1605
     79  C        -23.9160  -44.2450  -96.9680 C.2   136  TYR136      0.2264
     80  O        -24.1010  -45.4570  -97.0610 O.2   136  TYR136     -0.2867
     81  CB       -23.8260  -43.7840  -99.5210 C.3   136  TYR136      0.0534
     82  CG       -24.2980  -42.8480 -100.6220 C.ar  136  TYR136     -0.0201
     83  CD1      -23.6310  -41.6520 -100.8830 C.ar  136  TYR136     -0.0009
     84  CD2      -25.4570  -43.1170 -101.3460 C.ar  136  TYR136     -0.0009
     85  CE1      -24.0850  -40.7700 -101.8630 C.ar  136  TYR136      0.0417
     86  CE2      -25.9240  -42.2360 -102.3230 C.ar  136  TYR136      0.0417
     87  CZ       -25.2320  -41.0680 -102.5810 C.ar  136  TYR136      0.1957
     88  OH       -25.6900  -40.1950 -103.5400 O.3   136  TYR136     -0.2866
     89  N        -23.1210  -39.9950 -108.1570 N.3   272  ASP272     -0.1239
     90  CA       -24.4730  -40.5380 -108.1760 C.3   272  ASP272      0.1674
     91  C        -25.3920  -39.6600 -109.0400 C.2   272  ASP272      0.2266
     92  O        -26.0250  -40.1630 -109.9710 O.2   272  ASP272     -0.2867
     93  CB       -25.0150  -40.6060 -106.7420 C.3   272  ASP272      0.1410
     94  CG       -26.3500  -41.2920 -106.5770 C.2   272  ASP272      0.3668
     95  OD1      -27.1610  -41.2530 -107.5200 O.co2 272  ASP272     -0.2456
     96  OD2      -26.5980  -41.8400 -105.4940 O.co2 272  ASP272     -0.2456
     97  N        -26.5330  -39.8020 -113.7250 N.3   276  ASP276     -0.1239
     98  CA       -27.8810  -39.8210 -114.2900 C.3   276  ASP276      0.1674
     99  C        -28.0330  -38.6900 -115.3170 C.2   276  ASP276      0.2266
    100  O        -28.5450  -38.9390 -116.4210 O.2   276  ASP276     -0.2867
    101  CB       -28.9540  -39.7580 -113.1770 C.3   276  ASP276      0.1410
    102  CG       -28.8850  -40.9000 -112.1480 C.2   276  ASP276      0.3668
    103  OD1      -28.8110  -42.0870 -112.5670 O.co2 276  ASP276     -0.2456
    104  OD2      -28.9120  -40.6080 -110.9360 O.co2 276  ASP276     -0.2456
    105  N        -23.9550  -53.6460 -112.3710 N.3   303  GLU303     -0.1245
    106  CA       -25.3560  -53.2910 -112.1330 C.3   303  GLU303      0.1567
    107  C        -25.8620  -52.2570 -113.1360 C.2   303  GLU303      0.2260
    108  O        -25.0760  -51.7450 -113.9400 O.2   303  GLU303     -0.2867
    109  CB       -25.4770  -52.7050 -110.7080 C.3   303  GLU303      0.0388
    110  CG       -24.6080  -51.4720 -110.4660 C.3   303  GLU303      0.1160
    111  CD       -24.8150  -50.7170 -109.1680 C.2   303  GLU303      0.3649
    112  OE1      -25.8360  -50.9460 -108.4750 O.co2 303  GLU303     -0.2457
    113  OE2      -23.9430  -49.8750 -108.8500 O.co2 303  GLU303     -0.2457
    114  N        -27.4970  -48.4000 -113.7310 N.3   305  ALA305     -0.1231
    115  CA       -27.3890  -47.1070 -113.0410 C.3   305  ALA305      0.1694
    116  C        -28.7510  -46.5900 -112.5590 C.2   305  ALA305      0.2592
    117  O        -28.8410  -46.0040 -111.4630 O.2   305  ALA305     -0.2718
    118  CB       -26.7120  -46.0770 -113.9330 C.3   305  ALA305      0.0304
    119  N        -29.8000  -46.8060 -113.3830 N.am  306  HIS306     -0.1976
    120  CA       -31.1730  -46.3800 -113.1220 C.3   306  HIS306      0.1656
    121  C        -31.8720  -47.2580 -112.0460 C.2   306  HIS306      0.2291
    122  O        -31.3380  -48.2940 -111.6100 O.2   306  HIS306     -0.2864
    123  CB       -31.9660  -46.3860 -114.4350 C.3   306  HIS306      0.0771
    124  CG       -31.9850  -47.7330 -115.0870 C.ar  306  HIS306      0.0820
    125  ND1      -32.9380  -48.6800 -114.7560 N.ar  306  HIS306     -0.2267
    126  CD2      -31.1130  -48.2820 -115.9590 C.ar  306  HIS306      0.1154
    127  CE1      -32.6280  -49.7610 -115.4460 C.ar  306  HIS306      0.1986
    128  NE2      -31.5500  -49.5630 -116.2010 N.ar  306  HIS306     -0.2212
@<TRIPOS>BOND
     1   100    99    2
     2    58    57    2
     3    57    56    1
     4   128   126   ar
     5   128   127   ar
     6   126   124   ar
     7   127   125   ar
     8    99    98    1
     9   124   125   ar
    10   124   123    1
    11    56    55    1
    12    56    59    1
    13   123   120    1
    14    98    97    1
    15    98   101    1
    16    59    60    1
    17   108   107    2
    18   118   115    1
    19   114   115    1
    20   119   120    1
    21   119   116   am
    22   101   102    1
    23   107   106    1
    24   120   121    1
    25   115   116    1
    26    60    61    1
    27   103   102   ar
    28   116   117    2
    29   105   106    1
    30   102   104   ar
    31   106   109    1
    32    61    62    1
    33   121   122    2
    34    62    63    2
    35   109   110    1
    36   110   111    1
    37    63    64    1
    38    63    65    1
    39    92    91    2
    40    66    67    1
    41   111   113   ar
    42   111   112   ar
    43    91    90    1
    44    70    67    1
    45    70    71    1
    46    67    68    1
    47    90    89    1
    48    90    93    1
    49    95    94   ar
    50    72    71    1
    51    72    73    1
    52    69    68    2
    53     1     2    1
    54    75    74    1
    55    93    94    1
    56    94    96   ar
    57    54    52    1
    58    73    74    2
    59    74    76    1
    60     2     3    1
    61     2     5    1
    62    35    33   am
    63    52    51    2
    64    52    53    1
    65     3     4    2
    66     7     5    1
    67    51    50    1
    68    34    33    2
    69    33    32    1
    70     5     6    1
    71    50    49    1
    72    32    29    1
    73    49    48    1
    74    88    87    1
    75    29    28    1
    76    29    30    1
    77     8     9    1
    78    87    86   ar
    79    87    85   ar
    80    86    84   ar
    81    48    45    1
    82    28    23   am
    83    13    12    1
    84    85    83   ar
    85    31    30    2
    86    30    36   am
    87    25    26    1
    88    25    22    1
    89    12     9    1
    90    12    14    1
    91    45    44    1
    92    45    46    1
    93    20    19    1
    94    26    27    1
    95    84    82   ar
    96     9    10    1
    97    27    21    1
    98    23    24    2
    99    23    22    1
   100    11    10    2
   101    36    37    1
   102    83    82   ar
   103    42    41    2
   104    22    21    1
   105    82    81    1
   106    21    17   am
   107    47    46    2
   108    19    16    1
   109    37    38    1
   110    37    40    1
   111    17    16    1
   112    17    18    2
   113    41    40    1
   114    41    43   am
   115    16    15    1
   116    81    78    1
   117    38    39    2
   118    78    77    1
   119    78    79    1
   120    80    79    2
