@<TRIPOS>MOLECULE
tmp/4l08F00.pdb
 98 91 0 0 0
SMALL
GASTEIGER

@<TRIPOS>ATOM
      1  N        -46.6170   -2.4140  -57.7740 N.3    26  ASP26      -0.1239
      2  CA       -46.0330   -1.4110  -58.6730 C.3    26  ASP26       0.1674
      3  C        -45.4440   -1.9400  -59.9830 C.2    26  ASP26       0.2266
      4  O        -44.3700   -1.5000  -60.4070 O.2    26  ASP26      -0.2867
      5  CB       -44.9950   -0.5600  -57.9290 C.3    26  ASP26       0.1410
      6  CG       -45.6260    0.3920  -56.9340 C.2    26  ASP26       0.3668
      7  OD1      -46.5560    1.1360  -57.3220 O.co2  26  ASP26      -0.2456
      8  OD2      -45.1810    0.4030  -55.7660 O.co2  26  ASP26      -0.2456
      9  N        -42.3990    1.8590  -63.6800 N.3    31  PHE31      -0.1241
     10  CA       -41.3550    1.0270  -63.0810 C.3    31  PHE31       0.1605
     11  C        -40.9090   -0.1220  -63.9890 C.2    31  PHE31       0.2264
     12  O        -39.9560   -0.8350  -63.6620 O.2    31  PHE31      -0.2867
     13  CB       -41.8080    0.4820  -61.7210 C.3    31  PHE31       0.0534
     14  CG       -42.1210    1.5500  -60.7120 C.ar   31  PHE31      -0.0203
     15  CD1      -41.1060    2.1430  -59.9660 C.ar   31  PHE31      -0.0042
     16  CD2      -43.4340    1.9660  -60.5020 C.ar   31  PHE31      -0.0042
     17  CE1      -41.3940    3.1310  -59.0340 C.ar   31  PHE31      -0.0003
     18  CE2      -43.7290    2.9530  -59.5720 C.ar   31  PHE31      -0.0003
     19  CZ       -42.7070    3.5360  -58.8380 C.ar   31  PHE31      -0.0000
     20  N        -48.5560    3.3750  -57.5270 N.3    68  ILE68      -0.1245
     21  CA       -48.3180    4.7020  -56.9730 C.3    68  ILE68       0.1561
     22  C        -48.8290    5.7460  -57.9660 C.2    68  ILE68       0.2260
     23  O        -48.4970    5.7010  -59.1520 O.2    68  ILE68      -0.2867
     24  CB       -46.8210    4.9380  -56.6640 C.3    68  ILE68       0.0252
     25  CG1      -46.3160    3.9370  -55.6180 C.3    68  ILE68       0.0019
     26  CG2      -46.5920    6.3570  -56.1650 C.3    68  ILE68       0.0019
     27  CD1      -44.8070    3.7970  -55.5640 C.3    68  ILE68       0.0001
     28  N        -41.6620   12.4260  -48.8060 N.3    80  TRP80      -0.1241
     29  CA       -41.0150   11.3430  -49.5400 C.3    80  TRP80       0.1605
     30  C        -40.6640   11.7720  -50.9410 C.2    80  TRP80       0.2264
     31  O        -39.6960   11.2790  -51.5270 O.2    80  TRP80      -0.2867
     32  CB       -41.8910   10.0910  -49.5480 C.3    80  TRP80       0.0550
     33  CG       -41.2080    8.8730  -50.1300 C.ar   80  TRP80       0.0003
     34  CD1      -39.9330    8.3900  -49.8350 C.ar   80  TRP80       0.0946
     35  CD2      -41.7490    7.9300  -51.1200 C.ar   80  TRP80       0.0152
     36  NE1      -39.6560    7.2590  -50.5580 N.ar   80  TRP80      -0.2442
     37  CE2      -40.6990    6.9260  -51.3460 C.ar   80  TRP80       0.0810
     38  CE3      -42.9490    7.8200  -51.8160 C.ar   80  TRP80       0.0012
     39  CZ2      -40.8680    5.8730  -52.2320 C.ar   80  TRP80       0.0191
     40  CZ3      -43.1050    6.7530  -52.7090 C.ar   80  TRP80       0.0001
     41  CH2      -42.0870    5.8040  -52.9100 C.ar   80  TRP80       0.0015
     42  N        -37.1660   11.1170  -52.7960 N.3    84  SER84      -0.1217
     43  CA       -37.2640   10.4210  -54.0700 C.3    84  SER84       0.1889
     44  C        -38.1050   11.2720  -55.0140 C.2    84  SER84       0.2288
     45  O        -39.3200   11.0840  -55.1290 O.2    84  SER84      -0.2866
     46  CB       -37.9030    9.0440  -53.8730 C.3    84  SER84       0.2089
     47  OG       -37.2490    8.3120  -52.8510 O.3    84  SER84      -0.2183
     48  N        -40.3920   10.0340  -58.1830 N.3    87  MET87      -0.1245
     49  CA       -41.7530    9.5420  -57.9670 C.3    87  MET87       0.1570
     50  C        -42.7950   10.6010  -58.3100 C.2    87  MET87       0.2261
     51  O        -43.9680   10.2820  -58.5160 O.2    87  MET87      -0.2867
     52  CB       -41.9480    9.0940  -56.5160 C.3    87  MET87       0.0387
     53  CG       -40.9230    8.1060  -55.9790 C.3    87  MET87       0.0595
     54  SD       -41.0300    6.4610  -56.7100 S.3    87  MET87      -0.1393
     55  CE       -39.6390    6.4930  -57.8430 C.3    87  MET87       0.0692
     56  N        -44.2600    3.6940  -50.2970 N.3   117  ALA117     -0.1245
     57  CA       -43.6470    2.4280  -50.6790 C.3   117  ALA117      0.1562
     58  C        -44.5670    1.2390  -50.3790 C.2   117  ALA117      0.2260
     59  O        -44.9350    0.4920  -51.2880 O.2   117  ALA117     -0.2867
     60  CB       -42.3010    2.2600  -49.9900 C.3   117  ALA117      0.0290
     61  N        -42.1970   -4.6760  -58.0290 N.3   142  ALA142     -0.1231
     62  CA       -41.0250   -3.8050  -58.0600 C.3   142  ALA142      0.1694
     63  C        -41.2190   -2.5810  -57.1550 C.2   142  ALA142      0.2592
     64  O        -42.3280   -2.0570  -57.0580 O.2   142  ALA142     -0.2718
     65  CB       -40.7390   -3.3680  -59.4900 C.3   142  ALA142      0.0304
     66  N        -40.1590   -2.1260  -56.4850 N.am  143  THR143     -0.1953
     67  CA       -38.8420   -2.7700  -56.5040 C.3   143  THR143      0.1897
     68  C        -38.6650   -3.6000  -55.2450 C.2   143  THR143      0.2313
     69  O        -39.2850   -3.3160  -54.2170 O.2   143  THR143     -0.2863
     70  CB       -37.6890   -1.7480  -56.6150 C.3   143  THR143      0.1794
     71  OG1      -37.7620   -0.8110  -55.5330 O.3   143  THR143     -0.2208
     72  CG2      -37.7490   -0.9930  -57.9440 C.3   143  THR143      0.0378
     73  N        -36.2240   -4.0350  -53.0680 N.3   145  SER145     -0.1202
     74  CA       -35.6950   -3.3100  -51.9120 C.3   145  SER145      0.2020
     75  C        -36.5500   -2.0860  -51.5840 C.2   145  SER145      0.2619
     76  O        -36.3390   -1.4230  -50.5660 O.2   145  SER145     -0.2717
     77  CB       -34.2340   -2.9070  -52.1390 C.3   145  SER145      0.2103
     78  OG       -34.1150   -1.9280  -53.1590 O.3   145  SER145     -0.2182
     79  N        -37.5120   -1.7910  -52.4520 N.am  146  GLY146     -0.1942
     80  CA       -38.4140   -0.6710  -52.2420 C.3   146  GLY146      0.2014
     81  C        -39.7690   -1.1340  -51.7570 C.2   146  GLY146      0.2638
     82  O        -39.8940   -1.6690  -50.6560 O.2   146  GLY146     -0.2714
     83  N        -40.7760   -0.9430  -52.6060 N.am  147  ALA147     -0.1977
     84  CA       -42.1730   -1.2340  -52.2810 C.3   147  ALA147      0.1597
     85  C        -42.4570   -2.6910  -51.9040 C.2   147  ALA147      0.2287
     86  O        -43.3590   -2.9560  -51.1100 O.2   147  ALA147     -0.2864
     87  CB       -43.0720   -0.8010  -53.4270 C.3   147  ALA147      0.0319
     88  N        -33.5170   -2.2990  -59.7100 N.3   172  ARG172     -0.1245
     89  CA       -32.5460   -1.6130  -60.5640 C.3   172  ARG172      0.1563
     90  C        -31.0850   -1.9950  -60.2810 C.2   172  ARG172      0.2260
     91  O        -30.2040   -1.7100  -61.0920 O.2   172  ARG172     -0.2867
     92  CB       -32.7400   -0.0920  -60.4850 C.3   172  ARG172      0.0307
     93  CG       -32.9270    0.4550  -59.0760 C.3   172  ARG172      0.0489
     94  CD       -33.2470    1.9430  -59.0810 C.3   172  ARG172      0.2205
     95  NE       -34.5980    2.2330  -59.5670 N.pl3 172  ARG172     -0.0865
     96  CZ       -35.6900    2.2630  -58.8050 C.cat 172  ARG172      0.5346
     97  NH1      -35.6160    2.0120  -57.5020 N.pl3 172  ARG172      0.1354
     98  NH2      -36.8650    2.5420  -59.3520 N.pl3 172  ARG172      0.1354
@<TRIPOS>BOND
     1    11    12    2
     2    11    10    1
     3     9    10    1
     4    10    13    1
     5    13    14    1
     6    91    90    2
     7    14    16   ar
     8    14    15   ar
     9    89    92    1
    10    89    90    1
    11    89    88    1
    12    16    18   ar
    13    92    93    1
    14     4     3    2
    15     3     2    1
    16    15    17   ar
    17    18    19   ar
    18    95    94    1
    19    95    96    2
    20    65    62    1
    21    98    96    1
    22    23    22    2
    23    94    93    1
    24    17    19   ar
    25    96    97    1
    26     2     5    1
    27     2     1    1
    28    51    50    2
    29    50    49    1
    30    48    49    1
    31    62    61    1
    32    62    63    1
    33    49    52    1
    34    22    21    1
    35    72    70    1
    36     5     6    1
    37    55    54    1
    38    20    21    1
    39     7     6   ar
    40    63    64    2
    41    63    66   am
    42    21    24    1
    43     6     8   ar
    44    54    53    1
    45    24    26    1
    46    24    25    1
    47    70    67    1
    48    70    71    1
    49    52    53    1
    50    67    66    1
    51    67    68    1
    52    25    27    1
    53    68    69    2
    54    45    44    2
    55    44    43    1
    56    43    46    1
    57    43    42    1
    58    46    47    1
    59    87    84    1
    60    78    77    1
    61    73    74    1
    62    41    40   ar
    63    41    39   ar
    64    40    38   ar
    65    83    84    1
    66    83    81   am
    67    79    80    1
    68    79    75   am
    69    84    85    1
    70    80    81    1
    71    39    37   ar
    72    77    74    1
    73    74    75    1
    74    85    86    2
    75    38    35   ar
    76    81    82    2
    77    75    76    2
    78    31    30    2
    79    37    35   ar
    80    37    36   ar
    81    59    58    2
    82    35    33   ar
    83    30    29    1
    84    57    58    1
    85    57    56    1
    86    57    60    1
    87    36    34   ar
    88    33    34   ar
    89    33    32    1
    90    32    29    1
    91    29    28    1
