@<TRIPOS>MOLECULE
tmp/4l09C00.pdb
 151 153 0 0 0
SMALL
GASTEIGER

@<TRIPOS>ATOM
      1  N          4.8050   -9.5170   12.0210 N.3    80  HIS80      -0.1226
      2  CA         5.0600   -9.1440   13.4220 C.3    80  HIS80       0.1752
      3  C          5.3550  -10.3880   14.2480 C.2    80  HIS80       0.2597
      4  O          4.5520  -11.3300   14.2530 O.2    80  HIS80      -0.2718
      5  CB         3.8720   -8.4080   14.0260 C.3    80  HIS80       0.0759
      6  CG         4.0850   -7.9130   15.4250 C.ar   80  HIS80       0.0818
      7  ND1        4.6420   -6.6780   15.7090 N.ar   80  HIS80      -0.2268
      8  CD2        3.7700   -8.4670   16.6220 C.ar   80  HIS80       0.1154
      9  CE1        4.6980   -6.5160   17.0220 C.ar   80  HIS80       0.1986
     10  NE2        4.1730   -7.5820   17.5970 N.ar   80  HIS80      -0.2212
     11  N          6.5020  -10.3950   14.9270 N.am   81  GLY81      -0.1942
     12  CA         6.9140  -11.5170   15.7650 C.3    81  GLY81       0.2014
     13  C          7.0050  -11.0770   17.2120 C.2    81  GLY81       0.2640
     14  O          7.6640  -10.0840   17.5190 O.2    81  GLY81      -0.2714
     15  N          6.3850  -11.8230   18.1140 N.am   82  SER82      -0.1936
     16  CA         6.3120  -11.4220   19.5130 C.3    82  SER82       0.2040
     17  C          5.9890  -12.5860   20.4280 C.2    82  SER82       0.2485
     18  O          5.1640  -13.4380   20.0790 O.2    82  SER82      -0.2729
     19  CB         5.2110  -10.3860   19.6760 C.3    82  SER82       0.2129
     20  OG         4.9380  -10.1250   21.0320 O.3    82  SER82      -0.2179
     21  N          6.5460  -12.5800   21.6370 N.am   83  PRO83      -0.2715
     22  CA         6.0220  -13.5550   22.6220 C.3    83  PRO83       0.1536
     23  C          4.5350  -13.3250   23.0020 C.2    83  PRO83       0.2598
     24  O          3.9340  -14.1970   23.6000 O.2    83  PRO83      -0.2715
     25  CB         6.9170  -13.3290   23.8610 C.3    83  PRO83       0.0310
     26  CG         8.0980  -12.5570   23.3860 C.3    83  PRO83       0.0237
     27  CD         7.6200  -11.7460   22.2100 C.3    83  PRO83       0.0939
     28  N          3.9390  -12.1890   22.6620 N.am   84  PHE84      -0.1974
     29  CA         2.5330  -11.9170   23.0470 C.3    84  PHE84       0.1639
     30  C          1.5260  -12.2240   21.9260 C.2    84  PHE84       0.2290
     31  O          0.3510  -11.8080   21.9800 O.2    84  PHE84      -0.2864
     32  CB         2.4170  -10.4730   23.5500 C.3    84  PHE84       0.0560
     33  CG         3.5010  -10.0950   24.5430 C.ar   84  PHE84      -0.0200
     34  CD1        3.7800  -10.9170   25.6400 C.ar   84  PHE84      -0.0042
     35  CD2        4.2590   -8.9420   24.3780 C.ar   84  PHE84      -0.0042
     36  CE1        4.7910  -10.5970   26.5440 C.ar   84  PHE84      -0.0003
     37  CE2        5.2680   -8.6140   25.2840 C.ar   84  PHE84      -0.0003
     38  CZ         5.5340   -9.4420   26.3640 C.ar   84  PHE84      -0.0000
     39  N          0.5960   -2.0880   25.1080 N.3    96  ARG96      -0.1231
     40  CA         1.3450   -3.1900   25.7540 C.3    96  ARG96       0.1694
     41  C          2.3280   -3.8750   24.7970 C.2    96  ARG96       0.2592
     42  O          3.2300   -4.5970   25.2430 O.2    96  ARG96      -0.2718
     43  CB         0.4080   -4.2970   26.2830 C.3    96  ARG96       0.0321
     44  CG        -0.7080   -3.9060   27.2410 C.3    96  ARG96       0.0489
     45  CD        -1.6120   -5.1140   27.5070 C.3    96  ARG96       0.2205
     46  NE        -2.3830   -4.9920   28.7580 N.pl3  96  ARG96      -0.0865
     47  CZ        -2.7400   -6.0030   29.5650 C.cat  96  ARG96       0.5346
     48  NH1       -2.4070   -7.2600   29.2880 N.pl3  96  ARG96       0.1354
     49  NH2       -3.4330   -5.7580   30.6780 N.pl3  96  ARG96       0.1354
     50  N          2.1180   -3.6930   23.4870 N.am   97  HIS97      -0.1962
     51  CA         2.8940   -4.4010   22.4400 C.3    97  HIS97       0.1787
     52  C          3.9440   -3.4950   21.7490 C.2    97  HIS97       0.2620
     53  O          4.5770   -3.9040   20.7600 O.2    97  HIS97      -0.2715
     54  CB         1.9130   -5.0960   21.4620 C.3    97  HIS97       0.0785
     55  CG         0.8640   -5.9080   22.1730 C.ar   97  HIS97       0.0821
     56  ND1       -0.4830   -5.7980   21.9050 N.ar   97  HIS97      -0.2267
     57  CD2        0.9620   -6.7800   23.2080 C.ar   97  HIS97       0.1154
     58  CE1       -1.1670   -6.5910   22.7140 C.ar   97  HIS97       0.1986
     59  NE2       -0.3140   -7.1910   23.5240 N.ar   97  HIS97      -0.2212
     60  N          4.1510   -2.3060   22.3410 N.am   98  ALA98      -0.1963
     61  CA         5.0880   -1.2790   21.8600 C.3    98  ALA98       0.1728
     62  C          6.5260   -1.5820   22.2510 C.2    98  ALA98       0.2616
     63  O          6.7890   -2.0890   23.3490 O.2    98  ALA98      -0.2715
     64  CB         4.7140    0.0910   22.4050 C.3    98  ALA98       0.0334
     65  N          7.4440   -1.2380   21.3510 N.am   99  TYR99      -0.1960
     66  CA         8.8610   -1.4740   21.5440 C.3    99  TYR99       0.1771
     67  C          9.4200   -0.1600   22.0580 C.2    99  TYR99       0.2619
     68  O          9.7320    0.7660   21.2800 O.2    99  TYR99      -0.2715
     69  CB         9.5060   -1.9180   20.2310 C.3    99  TYR99       0.0574
     70  CG        10.9980   -2.2140   20.2660 C.ar   99  TYR99      -0.0198
     71  CD1       11.6900   -2.3840   21.4750 C.ar   99  TYR99      -0.0009
     72  CD2       11.7120   -2.3680   19.0770 C.ar   99  TYR99      -0.0009
     73  CE1       13.0520   -2.6710   21.4850 C.ar   99  TYR99       0.0417
     74  CE2       13.0700   -2.6710   19.0820 C.ar   99  TYR99       0.0417
     75  CZ        13.7280   -2.8070   20.2960 C.ar   99  TYR99       0.1957
     76  OH        15.0620   -3.0740   20.3130 O.3    99  TYR99      -0.2866
     77  N          9.5220   -0.0710   23.3790 N.am  100  ILE100     -0.1977
     78  CA         9.8040    1.2100   24.0070 C.3   100  ILE100      0.1596
     79  C         11.1900    1.6890   23.6030 C.2   100  ILE100      0.2287
     80  O         11.3920    2.8690   23.4290 O.2   100  ILE100     -0.2864
     81  CB         9.6400    1.2010   25.5550 C.3   100  ILE100      0.0276
     82  CG1        8.2820    0.5940   25.9930 C.3   100  ILE100      0.0022
     83  CG2        9.7420    2.6240   26.1030 C.3   100  ILE100      0.0022
     84  CD1        7.0460    1.2850   25.4390 C.3   100  ILE100      0.0001
     85  N          6.0800   -2.2280   15.9430 N.3   109  TYR109     -0.1227
     86  CA         6.9830   -2.4660   14.8260 C.3   109  TYR109      0.1736
     87  C          6.5410   -3.6570   13.9740 C.2   109  TYR109      0.2595
     88  O          6.0940   -4.6750   14.5130 O.2   109  TYR109     -0.2718
     89  CB         8.4060   -2.7210   15.3440 C.3   109  TYR109      0.0548
     90  CG         9.1260   -1.4640   15.7760 C.ar  109  TYR109     -0.0200
     91  CD1       10.3210   -1.0740   15.1820 C.ar  109  TYR109     -0.0009
     92  CD2        8.5950   -0.6540   16.7720 C.ar  109  TYR109     -0.0009
     93  CE1       10.9930    0.0860   15.5930 C.ar  109  TYR109      0.0417
     94  CE2        9.2470    0.5150   17.1880 C.ar  109  TYR109      0.0417
     95  CZ        10.4300    0.8930   16.5930 C.ar  109  TYR109      0.1957
     96  OH        11.0450    2.0710   17.0170 O.3   109  TYR109     -0.2866
     97  N          6.6370   -3.4950   12.6510 N.am  110  PHE110     -0.1962
     98  CA         6.3530   -4.5120   11.6570 C.3   110  PHE110      0.1771
     99  C          7.4600   -4.5520   10.6320 C.2   110  PHE110      0.2619
    100  O          8.1070   -3.5210   10.3650 O.2   110  PHE110     -0.2715
    101  CB         5.0460   -4.1970   10.9270 C.3   110  PHE110      0.0574
    102  CG         3.8550   -4.1960   11.8200 C.ar  110  PHE110     -0.0200
    103  CD1        3.1240   -5.3460   12.0090 C.ar  110  PHE110     -0.0042
    104  CD2        3.5430   -3.0700   12.5530 C.ar  110  PHE110     -0.0042
    105  CE1        2.0380   -5.3750   12.8660 C.ar  110  PHE110     -0.0003
    106  CE2        2.4590   -3.0740   13.4050 C.ar  110  PHE110     -0.0003
    107  CZ         1.7000   -4.2410   13.5630 C.ar  110  PHE110     -0.0000
    108  N          7.6770   -5.7140   10.0130 N.am  111  ALA111     -0.1977
    109  CA         8.7730   -5.8820    9.0660 C.3   111  ALA111      0.1597
    110  C          8.2830   -6.4320    7.7220 C.2   111  ALA111      0.2287
    111  O          7.3900   -7.2910    7.6760 O.2   111  ALA111     -0.2864
    112  CB         9.7810   -6.8410    9.6400 C.3   111  ALA111      0.0319
    113  N         13.3020  -10.8010    9.8800 N.3   116  LYS116     -0.1231
    114  CA        13.4740   -9.7170   10.8630 C.3   116  LYS116      0.1693
    115  C         12.4670   -9.9180   12.0290 C.2   116  LYS116      0.2592
    116  O         12.8560   -9.9220   13.1950 O.2   116  LYS116     -0.2718
    117  CB        13.3270   -8.3470   10.1670 C.3   116  LYS116      0.0285
    118  CG        13.0690   -7.1420   11.0860 C.3   116  LYS116      0.0035
    119  CD        14.1430   -6.9010   12.1150 C.3   116  LYS116      0.0206
    120  CE        15.5160   -6.8270   11.5130 C.3   116  LYS116      0.1093
    121  NZ        16.4350   -6.3250   12.5620 N.3   116  LYS116     -0.1314
    122  N         11.1810  -10.1230   11.7100 N.am  117  SER117     -0.1952
    123  CA        10.1920  -10.4510   12.7650 C.3   117  SER117      0.1924
    124  C         10.5320  -11.7360   13.5230 C.2   117  SER117      0.2314
    125  O         10.2510  -11.8200   14.7200 O.2   117  SER117     -0.2863
    126  CB         8.7670  -10.5120   12.1900 C.3   117  SER117      0.2116
    127  OG         8.3770   -9.2430   11.7460 O.3   117  SER117     -0.2180
    128  N         12.3430  -11.5150   16.9200 N.3   120  TYR120     -0.1241
    129  CA        11.5890  -11.0650   18.1000 C.3   120  TYR120      0.1605
    130  C         10.5920  -12.1020   18.6640 C.2   120  TYR120      0.2264
    131  O          9.9510  -11.8640   19.6820 O.2   120  TYR120     -0.2867
    132  CB        10.8620   -9.7390   17.7980 C.3   120  TYR120      0.0534
    133  CG        11.8080   -8.5540   17.5740 C.ar  120  TYR120     -0.0201
    134  CD1       12.1990   -7.7330   18.6360 C.ar  120  TYR120     -0.0009
    135  CD2       12.3390   -8.2830   16.2950 C.ar  120  TYR120     -0.0009
    136  CE1       13.0680   -6.6660   18.4180 C.ar  120  TYR120      0.0417
    137  CE2       13.2220   -7.2600   16.0880 C.ar  120  TYR120      0.0417
    138  CZ        13.5620   -6.4440   17.1540 C.ar  120  TYR120      0.1957
    139  OH        14.4120   -5.4410   16.9330 O.3   120  TYR120     -0.2866
    140  N         11.3080  -12.6900   22.0330 N.3   123  GLY123     -0.1210
    141  CA        11.6110  -11.4650   22.8020 C.3   123  GLY123      0.1956
    142  C         12.6810  -10.6090   22.1320 C.2   123  GLY123      0.2611
    143  O         13.2280  -10.9990   21.0990 O.2   123  GLY123     -0.2717
    144  N         12.9830   -9.4470   22.7080 N.am  124  ILE124     -0.1979
    145  CA        13.9820   -8.5380   22.1370 C.3   124  ILE124      0.1595
    146  C         15.3350   -9.2210   22.1150 C.2   124  ILE124      0.2287
    147  O         15.7500   -9.8360   23.0870 O.2   124  ILE124     -0.2864
    148  CB        14.0920   -7.2520   22.9480 C.3   124  ILE124      0.0276
    149  CG1       12.8140   -6.4280   22.7700 C.3   124  ILE124      0.0022
    150  CG2       15.3360   -6.4710   22.5270 C.3   124  ILE124      0.0022
    151  CD1       12.5500   -5.4760   23.9190 C.3   124  ILE124      0.0001
@<TRIPOS>BOND
     1   111   110    2
     2   110   109    1
     3   109   112    1
     4   109   108    1
     5   113   114    1
     6   108    99   am
     7   117   114    1
     8   117   118    1
     9   100    99    2
    10    99    98    1
    11   114   115    1
    12   101    98    1
    13   101   102    1
    14   118   119    1
    15   120   119    1
    16   120   121    1
    17    98    97    1
    18   122   115   am
    19   122   123    1
    20   127   126    1
    21   102   103   ar
    22   102   104   ar
    23   103   105   ar
    24     1     2    1
    25   115   116    2
    26   126   123    1
    27   104   106   ar
    28    97    87   am
    29   123   124    1
    30   105   107   ar
    31   106   107   ar
    32     2     5    1
    33     2     3    1
    34   124   125    2
    35    87    88    2
    36    87    86    1
    37     5     6    1
    38     3     4    2
    39     3    11   am
    40    86    89    1
    41    86    85    1
    42    11    12    1
    43    91    93   ar
    44    91    90   ar
    45    89    90    1
    46     6     7   ar
    47     6     8   ar
    48    93    95   ar
    49     7     9   ar
    50    12    13    1
    51    90    92   ar
    52   137   135   ar
    53   137   138   ar
    54   135   133   ar
    55    95    96    1
    56    95    94   ar
    57     8    10   ar
    58    92    94   ar
    59   128   129    1
    60   139   138    1
    61     9    10   ar
    62   138   136   ar
    63    13    14    2
    64    13    15   am
    65   133   132    1
    66   133   134   ar
    67   132   129    1
    68   129   130    1
    69    15    16    1
    70   136   134   ar
    71   130   131    2
    72    72    74   ar
    73    72    70   ar
    74    74    75   ar
    75    16    19    1
    76    16    17    1
    77    19    20    1
    78    18    17    2
    79    69    70    1
    80    69    66    1
    81    70    71   ar
    82    75    76    1
    83    75    73   ar
    84    17    21   am
    85    53    52    2
    86   143   142    2
    87    68    67    2
    88    65    66    1
    89    65    62   am
    90    54    55    1
    91    54    51    1
    92    71    73   ar
    93    66    67    1
    94    21    27    1
    95    21    22    1
    96    52    60   am
    97    52    51    1
    98    61    62    1
    99    61    60    1
   100    61    64    1
   101    56    55   ar
   102    56    58   ar
   103    30    31    2
   104    30    29    1
   105   140   141    1
   106    67    77   am
   107   146   145    1
   108   146   147    2
   109   142   144   am
   110   142   141    1
   111   145   144    1
   112   145   148    1
   113    55    57   ar
   114    27    26    1
   115    62    63    2
   116    51    50    1
   117   150   148    1
   118    22    23    1
   119    22    25    1
   120    28    23   am
   121    28    29    1
   122    58    59   ar
   123   149   148    1
   124   149   151    1
   125    23    24    2
   126    29    32    1
   127    57    59   ar
   128    77    78    1
   129    26    25    1
   130    80    79    2
   131    50    41   am
   132    32    33    1
   133    79    78    1
   134    78    81    1
   135    35    33   ar
   136    35    37   ar
   137    33    34   ar
   138    41    42    2
   139    41    40    1
   140    39    40    1
   141    37    38   ar
   142    84    82    1
   143    81    82    1
   144    81    83    1
   145    34    36   ar
   146    40    43    1
   147    43    44    1
   148    38    36   ar
   149    44    45    1
   150    45    46    1
   151    46    47    2
   152    48    47    1
   153    47    49    1
