@<TRIPOS>MOLECULE
tmp/4l0bA00.pdb
 151 153 0 0 0
SMALL
GASTEIGER

@<TRIPOS>ATOM
      1  N          9.5140    7.3500  -17.1900 N.3    80  HIS80      -0.1226
      2  CA         9.1140    7.5970  -15.8300 C.3    80  HIS80       0.1752
      3  C         10.4010    7.7910  -15.0270 C.2    80  HIS80       0.2597
      4  O         11.2940    6.9220  -15.0440 O.2    80  HIS80      -0.2718
      5  CB         8.3050    6.4140  -15.2750 C.3    80  HIS80       0.0759
      6  CG         7.7880    6.6370  -13.8800 C.ar   80  HIS80       0.0818
      7  ND1        6.6340    7.3390  -13.6110 N.ar   80  HIS80      -0.2268
      8  CD2        8.2800    6.2500  -12.6690 C.ar   80  HIS80       0.1154
      9  CE1        6.4350    7.3700  -12.2980 C.ar   80  HIS80       0.1986
     10  NE2        7.4160    6.7240  -11.7100 N.ar   80  HIS80      -0.2212
     11  N         10.4610    8.9080  -14.3130 N.am   81  GLY81      -0.1942
     12  CA        11.5590    9.2040  -13.3980 C.3    81  GLY81       0.2014
     13  C         11.0850    9.2120  -11.9670 C.2    81  GLY81       0.2640
     14  O         10.1080    9.8950  -11.6360 O.2    81  GLY81      -0.2714
     15  N         11.7900    8.5030  -11.0790 N.am   82  SER82      -0.1936
     16  CA        11.3230    8.4140   -9.6960 C.3    82  SER82       0.2040
     17  C         12.4530    8.0240   -8.7570 C.2    82  SER82       0.2485
     18  O         13.3150    7.2500   -9.1290 O.2    82  SER82      -0.2729
     19  CB        10.2680    7.3160   -9.5850 C.3    82  SER82       0.2129
     20  OG         9.7450    7.2160   -8.2730 O.3    82  SER82      -0.2179
     21  N         12.4130    8.5310   -7.5370 N.am   83  PRO83      -0.2715
     22  CA        13.2940    8.0240   -6.4740 C.3    83  PRO83       0.1536
     23  C         13.0350    6.5680   -6.1850 C.2    83  PRO83       0.2598
     24  O         13.8680    5.9430   -5.5760 O.2    83  PRO83      -0.2715
     25  CB        12.8500    8.8340   -5.2500 C.3    83  PRO83       0.0310
     26  CG        12.2940   10.0660   -5.8370 C.3    83  PRO83       0.0237
     27  CD        11.5490    9.6030   -7.0400 C.3    83  PRO83       0.0939
     28  N         11.8880    6.0340   -6.6000 N.am   84  PHE84      -0.1974
     29  CA        11.5440    4.6440   -6.3070 C.3    84  PHE84       0.1639
     30  C         11.7480    3.6420   -7.4420 C.2    84  PHE84       0.2290
     31  O         11.1600    2.5590   -7.4300 O.2    84  PHE84      -0.2864
     32  CB        10.1170    4.6160   -5.7530 C.3    84  PHE84       0.0560
     33  CG         9.9200    5.6280   -4.6450 C.ar   84  PHE84      -0.0200
     34  CD1       10.8600    5.7100   -3.5900 C.ar   84  PHE84      -0.0042
     35  CD2        8.8900    6.5440   -4.6800 C.ar   84  PHE84      -0.0042
     36  CE1       10.7350    6.6660   -2.5730 C.ar   84  PHE84      -0.0003
     37  CE2        8.7450    7.4960   -3.6660 C.ar   84  PHE84      -0.0003
     38  CZ         9.6670    7.5630   -2.6160 C.ar   84  PHE84      -0.0000
     39  N          1.7210    3.6890   -4.2730 N.3    96  ARG96      -0.1231
     40  CA         2.8350    4.3810   -3.6400 C.3    96  ARG96       0.1694
     41  C          3.7070    5.1490   -4.6340 C.2    96  ARG96       0.2592
     42  O          4.5920    5.9110   -4.2360 O.2    96  ARG96      -0.2718
     43  CB         3.7410    3.3720   -2.9350 C.3    96  ARG96       0.0321
     44  CG         3.0890    2.6130   -1.7820 C.3    96  ARG96       0.0489
     45  CD         4.0110    1.4750   -1.3580 C.3    96  ARG96       0.2205
     46  NE         3.9830    0.3520   -2.3000 N.pl3  96  ARG96      -0.0865
     47  CZ         4.8120   -0.6970   -2.2730 C.cat  96  ARG96       0.5346
     48  NH1        5.7720   -0.7990   -1.3530 N.pl3  96  ARG96       0.1354
     49  NH2        4.6810   -1.6650   -3.1700 N.pl3  96  ARG96       0.1354
     50  N          3.5180    4.8710   -5.9200 N.am   97  HIS97      -0.1962
     51  CA         4.2900    5.5390   -6.9860 C.3    97  HIS97       0.1787
     52  C          3.5190    6.6830   -7.6530 C.2    97  HIS97       0.2620
     53  O          4.0370    7.3020   -8.6050 O.2    97  HIS97      -0.2715
     54  CB         4.7600    4.4880   -8.0070 C.3    97  HIS97       0.0785
     55  CG         5.5620    3.4170   -7.3620 C.ar   97  HIS97       0.0821
     56  ND1        5.1580    2.1020   -7.3260 N.ar   97  HIS97      -0.2267
     57  CD2        6.6460    3.4920   -6.5610 C.ar   97  HIS97       0.1154
     58  CE1        6.0080    1.3950   -6.5970 C.ar   97  HIS97       0.1986
     59  NE2        6.9090    2.2180   -6.1120 N.ar   97  HIS97      -0.2212
     60  N          2.3480    7.0020   -7.0980 N.am   98  ALA98      -0.1963
     61  CA         1.4420    8.0120   -7.6600 C.3    98  ALA98       0.1728
     62  C          1.8800    9.4150   -7.2940 C.2    98  ALA98       0.2616
     63  O          2.5070    9.6170   -6.2610 O.2    98  ALA98      -0.2715
     64  CB         0.0350    7.7840   -7.1790 C.3    98  ALA98       0.0334
     65  N          1.5560   10.3600   -8.1640 N.am   99  TYR99      -0.1960
     66  CA         1.8030   11.7700   -7.9180 C.3    99  TYR99       0.1771
     67  C          0.4950   12.3710   -7.3720 C.2    99  TYR99       0.2619
     68  O         -0.4470   12.7140   -8.1200 O.2    99  TYR99      -0.2715
     69  CB         2.3170   12.4120   -9.1870 C.3    99  TYR99       0.0574
     70  CG         2.6930   13.8580   -9.0790 C.ar   99  TYR99      -0.0198
     71  CD1        2.9610   14.5920  -10.2220 C.ar   99  TYR99      -0.0009
     72  CD2        2.7560   14.5110   -7.8450 C.ar   99  TYR99      -0.0009
     73  CE1        3.3150   15.9150  -10.1480 C.ar   99  TYR99       0.0417
     74  CE2        3.0920   15.8480   -7.7700 C.ar   99  TYR99       0.0417
     75  CZ         3.3510   16.5430   -8.9280 C.ar   99  TYR99       0.1957
     76  OH         3.6840   17.8880   -8.8560 O.3    99  TYR99      -0.2866
     77  N          0.4100   12.4110   -6.0380 N.am  100  ILE100     -0.1977
     78  CA        -0.8440   12.7330   -5.3660 C.3   100  ILE100      0.1596
     79  C         -1.2270   14.1370   -5.7930 C.2   100  ILE100      0.2287
     80  O         -2.3610   14.3870   -6.1490 O.2   100  ILE100     -0.2864
     81  CB        -0.7850   12.6310   -3.8050 C.3   100  ILE100      0.0276
     82  CG1       -0.1870   11.2910   -3.3240 C.3   100  ILE100      0.0022
     83  CG2       -2.1740   12.8340   -3.2220 C.3   100  ILE100      0.0022
     84  CD1       -0.8890   10.0390   -3.8130 C.3   100  ILE100      0.0001
     85  N          2.3850    8.9390  -13.3410 N.3   109  TYR109     -0.1227
     86  CA         2.6030    9.8720  -14.4390 C.3   109  TYR109      0.1736
     87  C          3.7730    9.3890  -15.3320 C.2   109  TYR109      0.2595
     88  O          4.8270    8.9070  -14.8530 O.2   109  TYR109     -0.2718
     89  CB         2.9500   11.2590  -13.8860 C.3   109  TYR109      0.0548
     90  CG         1.7740   12.0360  -13.4350 C.ar  109  TYR109     -0.0200
     91  CD1        1.3980   13.2120  -14.0860 C.ar  109  TYR109     -0.0009
     92  CD2        1.0150   11.5980  -12.3560 C.ar  109  TYR109     -0.0009
     93  CE1        0.3140   13.9240  -13.6600 C.ar  109  TYR109      0.0417
     94  CE2       -0.1160   12.2850  -11.9760 C.ar  109  TYR109      0.0417
     95  CZ        -0.4620   13.4330  -12.6190 C.ar  109  TYR109      0.1957
     96  OH        -1.6010   14.1030  -12.2160 O.3   109  TYR109     -0.2866
     97  N          3.5890    9.5700  -16.6150 N.am  110  PHE110     -0.1962
     98  CA         4.6320    9.2380  -17.6320 C.3   110  PHE110      0.1771
     99  C          4.7970   10.3610  -18.6530 C.2   110  PHE110      0.2619
    100  O          3.8520   11.1230  -18.8760 O.2   110  PHE110     -0.2715
    101  CB         4.2360    7.9800  -18.3590 C.3   110  PHE110      0.0574
    102  CG         4.1030    6.7840  -17.4770 C.ar  110  PHE110     -0.0200
    103  CD1        5.1570    5.9070  -17.3390 C.ar  110  PHE110     -0.0042
    104  CD2        2.9550    6.5670  -16.7570 C.ar  110  PHE110     -0.0042
    105  CE1        5.0530    4.7990  -16.5290 C.ar  110  PHE110     -0.0003
    106  CE2        2.8500    5.4840  -15.8880 C.ar  110  PHE110     -0.0003
    107  CZ         3.9210    4.5920  -15.7940 C.ar  110  PHE110     -0.0000
    108  N          5.9500   10.4470  -19.3150 N.am  111  ALA111     -0.1977
    109  CA         6.2300   11.5230  -20.2840 C.3   111  ALA111      0.1597
    110  C          6.8410   11.0100  -21.5580 C.2   111  ALA111      0.2287
    111  O          7.6170   10.0350  -21.5430 O.2   111  ALA111     -0.2864
    112  CB         7.1890   12.5490  -19.6900 C.3   111  ALA111      0.0319
    113  N         11.4650   15.6570  -19.3050 N.3   116  LYS116     -0.1231
    114  CA        10.3820   15.8380  -18.3310 C.3   116  LYS116      0.1693
    115  C         10.4830   14.8250  -17.1770 C.2   116  LYS116      0.2592
    116  O         10.4980   15.1970  -16.0000 O.2   116  LYS116     -0.2718
    117  CB         9.0230   15.7760  -19.0220 C.3   116  LYS116      0.0285
    118  CG         7.8170   15.8100  -18.0550 C.3   116  LYS116      0.0035
    119  CD         7.8360   16.9440  -17.0500 C.3   116  LYS116      0.0206
    120  CE         7.5290   18.2820  -17.5860 C.3   116  LYS116      0.1093
    121  NZ         7.3070   19.2370  -16.4420 N.3   116  LYS116     -0.1314
    122  N         10.6070   13.5420  -17.4920 N.am  117  SER117     -0.1952
    123  CA        10.8030   12.4930  -16.4350 C.3   117  SER117      0.1924
    124  C         12.0910   12.7140  -15.6440 C.2   117  SER117      0.2314
    125  O         12.1370   12.4760  -14.4110 O.2   117  SER117     -0.2863
    126  CB        10.7430   11.1220  -17.0690 C.3   117  SER117      0.2116
    127  OG         9.4200   10.8390  -17.5000 O.3   117  SER117     -0.2180
    128  N         11.9600   14.4560  -12.2820 N.3   120  TYR120     -0.1241
    129  CA        11.3840   13.7580  -11.1330 C.3   120  TYR120      0.1605
    130  C         12.2930   12.6980  -10.5070 C.2   120  TYR120      0.2264
    131  O         11.8880   12.0520   -9.5440 O.2   120  TYR120     -0.2867
    132  CB        10.0220   13.1370  -11.5280 C.3   120  TYR120      0.0534
    133  CG         8.9750   14.2170  -11.7310 C.ar  120  TYR120     -0.0201
    134  CD1        8.1630   14.6170  -10.6970 C.ar  120  TYR120     -0.0009
    135  CD2        8.8250   14.8440  -12.9570 C.ar  120  TYR120     -0.0009
    136  CE1        7.1930   15.6070  -10.8840 C.ar  120  TYR120      0.0417
    137  CE2        7.8830   15.8240  -13.1390 C.ar  120  TYR120      0.0417
    138  CZ         7.0750   16.1960  -12.1100 C.ar  120  TYR120      0.1957
    139  OH         6.1650   17.2010  -12.3610 O.3   120  TYR120     -0.2866
    140  N         12.9360   13.5520   -7.0380 N.3   123  GLY123     -0.1210
    141  CA        11.7310   13.9080   -6.3310 C.3   123  GLY123      0.1956
    142  C         10.9380   14.9380   -7.1360 C.2   123  GLY123      0.2611
    143  O         11.3700   15.3560   -8.1840 O.2   123  GLY123     -0.2717
    144  N          9.7950   15.3290   -6.5950 N.am  124  ILE124     -0.1979
    145  CA         8.9310   16.3490   -7.1790 C.3   124  ILE124      0.1595
    146  C          9.7320   17.6310   -7.2210 C.2   124  ILE124      0.2287
    147  O         10.4010   17.9920   -6.2420 O.2   124  ILE124     -0.2864
    148  CB         7.6590   16.5470   -6.3420 C.3   124  ILE124      0.0276
    149  CG1        6.8170   15.2610   -6.3200 C.3   124  ILE124      0.0022
    150  CG2        6.8460   17.7260   -6.9010 C.3   124  ILE124      0.0022
    151  CD1        5.8040   15.2320   -5.2070 C.3   124  ILE124      0.0001
@<TRIPOS>BOND
     1   110   111    2
     2   110   109    1
     3   109   112    1
     4   109   108    1
     5   108    99   am
     6   113   114    1
     7   117   114    1
     8   117   118    1
     9   100    99    2
    10    99    98    1
    11   101    98    1
    12   101   102    1
    13   114   115    1
    14   118   119    1
    15    98    97    1
    16   120   119    1
    17   120   121    1
    18   127   126    1
    19   122   115   am
    20   122   123    1
    21   102   103   ar
    22   102   104   ar
    23   103   105   ar
    24     1     2    1
    25   115   116    2
    26   126   123    1
    27   104   106   ar
    28    97    87   am
    29   105   107   ar
    30   123   124    1
    31   106   107   ar
    32     2     5    1
    33     2     3    1
    34   124   125    2
    35    87    88    2
    36    87    86    1
    37     5     6    1
    38     4     3    2
    39     3    11   am
    40    86    89    1
    41    86    85    1
    42    11    12    1
    43    91    93   ar
    44    91    90   ar
    45    89    90    1
    46     6     7   ar
    47     6     8   ar
    48    93    95   ar
    49     7     9   ar
    50    90    92   ar
    51    12    13    1
    52   137   135   ar
    53   137   138   ar
    54   135   133   ar
    55     8    10   ar
    56    95    96    1
    57    95    94   ar
    58   139   138    1
    59    92    94   ar
    60     9    10   ar
    61   128   129    1
    62   138   136   ar
    63    13    14    2
    64    13    15   am
    65   133   132    1
    66   133   134   ar
    67   132   129    1
    68   129   130    1
    69    15    16    1
    70   136   134   ar
    71   130   131    2
    72    71    73   ar
    73    71    70   ar
    74    73    75   ar
    75    16    19    1
    76    16    17    1
    77    19    20    1
    78    69    70    1
    79    69    66    1
    80    18    17    2
    81    70    72   ar
    82    75    76    1
    83    75    74   ar
    84    17    21   am
    85    53    52    2
    86   143   142    2
    87    65    66    1
    88    65    62   am
    89    68    67    2
    90    54    55    1
    91    54    51    1
    92    66    67    1
    93    72    74   ar
    94    61    62    1
    95    61    64    1
    96    61    60    1
    97    52    60   am
    98    52    51    1
    99    21    27    1
   100    21    22    1
   101    30    31    2
   102    30    29    1
   103    67    77   am
   104    55    56   ar
   105    55    57   ar
   106    56    58   ar
   107    62    63    2
   108   146   145    1
   109   146   147    2
   110   145   144    1
   111   145   148    1
   112   142   144   am
   113   142   141    1
   114    27    26    1
   115   140   141    1
   116    51    50    1
   117   150   148    1
   118    28    29    1
   119    28    23   am
   120    58    59   ar
   121    57    59   ar
   122    22    23    1
   123    22    25    1
   124   148   149    1
   125   149   151    1
   126    29    32    1
   127    23    24    2
   128    80    79    2
   129    77    78    1
   130    50    41   am
   131    26    25    1
   132    79    78    1
   133    32    33    1
   134    78    81    1
   135    35    33   ar
   136    35    37   ar
   137    33    34   ar
   138    41    42    2
   139    41    40    1
   140    39    40    1
   141    84    82    1
   142    81    82    1
   143    81    83    1
   144    37    38   ar
   145    40    43    1
   146    34    36   ar
   147    49    47    1
   148    43    44    1
   149    38    36   ar
   150    46    47    2
   151    46    45    1
   152    47    48    1
   153    44    45    1
