@<TRIPOS>MOLECULE
tmp/4l0fA01.pdb
 109 100 0 0 0
SMALL
GASTEIGER

@<TRIPOS>ATOM
      1  N         18.6640   -5.0810    8.9100 N.3    93  ASN93      -0.1225
      2  CA        17.5350   -5.7070    9.6250 C.3    93  ASN93       0.1785
      3  C         17.9410   -6.8020   10.6150 C.2    93  ASN93       0.2597
      4  O         17.0670   -7.4590   11.1930 O.2    93  ASN93      -0.2718
      5  CB        16.4240   -6.2020    8.6640 C.3    93  ASN93       0.1169
      6  CG        16.8010   -7.4900    7.9040 C.2    93  ASN93       0.2627
      7  OD1       17.9740   -7.7380    7.6100 O.2    93  ASN93      -0.2716
      8  ND2       15.8060   -8.3020    7.5920 N.am   93  ASN93      -0.0877
      9  N         19.2560   -6.9730   10.8100 N.am   94  VAL94      -0.1980
     10  CA        19.8010   -7.8880   11.8230 C.3    94  VAL94       0.1595
     11  C         20.9880   -7.2400   12.5560 C.2    94  VAL94       0.2287
     12  O         21.5350   -6.2450   12.0900 O.2    94  VAL94      -0.2864
     13  CB        20.2570   -9.2300   11.1980 C.3    94  VAL94       0.0276
     14  CG1       19.0580   -9.9860   10.5810 C.3    94  VAL94       0.0022
     15  CG2       21.3640   -8.9970   10.1640 C.3    94  VAL94       0.0022
     16  N         23.7240   -1.6100    5.5780 N.3   103  ASP103     -0.1239
     17  CA        23.7060   -2.7940    4.7260 C.3   103  ASP103      0.1674
     18  C         23.7870   -2.2480    3.3130 C.2   103  ASP103      0.2266
     19  O         23.0030   -1.3680    2.9490 O.2   103  ASP103     -0.2867
     20  CB        22.4070   -3.5780    4.9570 C.3   103  ASP103      0.1410
     21  CG        22.3190   -4.8880    4.1520 C.2   103  ASP103      0.3668
     22  OD1       22.7200   -4.9360    2.9540 O.co2 103  ASP103     -0.2456
     23  OD2       21.7820   -5.8660    4.7240 O.co2 103  ASP103     -0.2456
     24  N         17.1990   -4.3050   -1.9160 N.3   109  MET109     -0.1245
     25  CA        16.6910   -5.6120   -1.5410 C.3   109  MET109      0.1570
     26  C         15.5130   -5.4420   -0.5870 C.2   109  MET109      0.2261
     27  O         15.5610   -4.5990    0.3150 O.2   109  MET109     -0.2867
     28  CB        17.8150   -6.3890   -0.8490 C.3   109  MET109      0.0387
     29  CG        17.5190   -7.8520   -0.6520 C.3   109  MET109      0.0595
     30  SD        18.8940   -8.7990    0.0570 S.3   109  MET109     -0.1393
     31  CE        20.2340   -8.3800   -1.0070 C.3   109  MET109      0.0692
     32  N         14.2910   -6.7310    2.1490 N.3   111  ALA111     -0.1231
     33  CA        14.3920   -6.7790    3.6030 C.3   111  ALA111      0.1694
     34  C         15.0990   -5.5720    4.2000 C.2   111  ALA111      0.2591
     35  O         15.0410   -5.3560    5.4270 O.2   111  ALA111     -0.2718
     36  CB        15.0700   -8.0730    4.0480 C.3   111  ALA111      0.0304
     37  N         15.7820   -4.8050    3.3510 N.am  112  VAL112     -0.1980
     38  CA        16.4590   -3.5710    3.7950 C.3   112  VAL112      0.1595
     39  C         15.9890   -2.3300    3.0010 C.2   112  VAL112      0.2287
     40  O         16.7550   -1.3980    2.7640 O.2   112  VAL112     -0.2864
     41  CB        18.0150   -3.7190    3.8170 C.3   112  VAL112      0.0276
     42  CG1       18.4470   -4.5760    5.0350 C.3   112  VAL112      0.0022
     43  CG2       18.5340   -4.3280    2.5270 C.3   112  VAL112      0.0022
     44  N         17.8030  -12.8470   -2.4950 N.3   257  SER257     -0.1217
     45  CA        17.1800  -12.6980   -1.1880 C.3   257  SER257      0.1889
     46  C         16.2090  -13.8330   -0.8850 C.2   257  SER257      0.2288
     47  O         15.9800  -14.1440    0.2620 O.2   257  SER257     -0.2866
     48  CB        16.4660  -11.3620   -1.0920 C.3   257  SER257      0.2089
     49  OG        15.1300  -11.4630   -1.5230 O.3   257  SER257     -0.2183
     50  N         18.5730  -16.3120    0.4390 N.3   260  LEU260     -0.1231
     51  CA        18.9970  -15.8260    1.7410 C.3   260  LEU260      0.1693
     52  C         17.9110  -16.0090    2.7940 C.2   260  LEU260      0.2592
     53  O         18.1810  -16.4830    3.9040 O.2   260  LEU260     -0.2718
     54  CB        19.3600  -14.3520    1.6450 C.3   260  LEU260      0.0284
     55  CG        20.4340  -13.8000    2.5820 C.3   260  LEU260      0.0019
     56  CD1       21.7500  -14.5850    2.4680 C.3   260  LEU260      0.0001
     57  CD2       20.6410  -12.3390    2.2590 C.3   260  LEU260      0.0001
     58  N         16.6920  -15.6320    2.4450 N.am  261  GLY261     -0.1957
     59  CA        15.5860  -15.6680    3.3990 C.3   261  GLY261      0.1869
     60  C         14.9750  -17.0450    3.6040 C.2   261  GLY261      0.2309
     61  O         14.4700  -17.3520    4.6820 O.2   261  GLY261     -0.2863
     62  N         16.5820  -20.9120    7.0350 N.3   265  THR265     -0.1218
     63  CA        15.4610  -20.9210    7.9870 C.3   265  THR265      0.1862
     64  C         14.5340  -22.1270    7.7730 C.2   265  THR265      0.2287
     65  O         14.0830  -22.7340    8.7340 O.2   265  THR265     -0.2866
     66  CB        14.6150  -19.6820    7.8440 C.3   265  THR265      0.1770
     67  OG1       14.2990  -19.5030    6.4450 O.3   265  THR265     -0.2211
     68  CG2       15.3580  -18.4550    8.3760 C.3   265  THR265      0.0375
     69  N         14.6970  -17.8310   13.1270 N.3   308  ALA308     -0.1245
     70  CA        15.2060  -16.4590   13.1550 C.3   308  ALA308      0.1562
     71  C         14.8930  -15.8660   14.5200 C.2   308  ALA308      0.2260
     72  O         13.7420  -15.5410   14.8030 O.2   308  ALA308     -0.2867
     73  CB        14.5690  -15.6280   12.0500 C.3   308  ALA308      0.0290
     74  N         14.9650   -9.8850   14.5980 N.3   311  PHE311     -0.1241
     75  CA        15.1380   -8.9430   13.4910 C.3   311  PHE311      0.1605
     76  C         15.2360   -7.5710   14.1260 C.2   311  PHE311      0.2264
     77  O         14.9240   -7.4040   15.3100 O.2   311  PHE311     -0.2867
     78  CB        14.0360   -9.0700   12.4400 C.3   311  PHE311      0.0534
     79  CG        14.2610  -10.2220   11.5110 C.ar  311  PHE311     -0.0203
     80  CD1       15.2370  -10.1400   10.5320 C.ar  311  PHE311     -0.0042
     81  CD2       13.5650  -11.4220   11.6830 C.ar  311  PHE311     -0.0042
     82  CE1       15.4830  -11.2110    9.6770 C.ar  311  PHE311     -0.0003
     83  CE2       13.8150  -12.5070   10.8600 C.ar  311  PHE311     -0.0003
     84  CZ        14.7760  -12.3940    9.8360 C.ar  311  PHE311     -0.0000
     85  N          7.2750  -12.1160    6.3190 N.3   371  CYS371     -0.1235
     86  CA         7.8800  -13.1220    5.4490 C.3   371  CYS371      0.1677
     87  C          7.1850  -13.3530    4.1140 C.2   371  CYS371      0.2270
     88  O          6.0710  -13.8930    4.0590 O.2   371  CYS371     -0.2867
     89  CB         8.0300  -14.4730    6.1760 C.3   371  CYS371      0.0956
     90  SG         8.9500  -15.6500    5.1700 S.3   371  CYS371     -0.0801
     91  N         21.8110  -14.5270   15.1510 N.3   408  PHE408     -0.1227
     92  CA        20.6430  -14.2030   14.3630 C.3   408  PHE408      0.1736
     93  C         19.8030  -15.4690   14.2250 C.2   408  PHE408      0.2595
     94  O         18.6330  -15.4930   14.6430 O.2   408  PHE408     -0.2718
     95  CB        21.0800  -13.6250   12.9900 C.3   408  PHE408      0.0547
     96  CG        20.0190  -13.6450   11.9200 C.ar  408  PHE408     -0.0202
     97  CD1       18.7250  -13.2320   12.1840 C.ar  408  PHE408     -0.0042
     98  CD2       20.3390  -14.0470   10.6240 C.ar  408  PHE408     -0.0042
     99  CE1       17.7590  -13.2420   11.2300 C.ar  408  PHE408     -0.0003
    100  CE2       19.3570  -14.0470    9.6100 C.ar  408  PHE408     -0.0003
    101  CZ        18.0670  -13.6480    9.9040 C.ar  408  PHE408     -0.0000
    102  N         20.3980  -16.5190   13.6630 N.am  409  LEU409     -0.1980
    103  CA        19.6540  -17.7620   13.4700 C.3   409  LEU409      0.1596
    104  C         20.0330  -18.7400   14.5510 C.2   409  LEU409      0.2287
    105  O         21.0870  -18.6090   15.1680 O.2   409  LEU409     -0.2864
    106  CB        19.9150  -18.3770   12.0960 C.3   409  LEU409      0.0297
    107  CG        19.4800  -17.5440   10.8830 C.3   409  LEU409      0.0022
    108  CD1       19.8720  -18.2940    9.6290 C.3   409  LEU409      0.0001
    109  CD2       17.9690  -17.2100   10.8930 C.3   409  LEU409      0.0001
@<TRIPOS>BOND
     1    44    45    1
     2    24    25    1
     3    25    28    1
     4    25    26    1
     5    49    48    1
     6    45    48    1
     7    45    46    1
     8    31    30    1
     9    46    47    2
    10    28    29    1
    11    29    30    1
    12    26    27    2
    13    50    51    1
    14    54    51    1
    15    54    55    1
    16    51    52    1
    17    32    33    1
    18    57    55    1
    19    58    52   am
    20    58    59    1
    21    56    55    1
    22    43    41    1
    23    40    39    2
    24    52    53    2
    25    19    18    2
    26    22    21   ar
    27    39    38    1
    28    18    17    1
    29    37    38    1
    30    37    34   am
    31    59    60    1
    32    33    36    1
    33    33    34    1
    34    60    61    2
    35    38    41    1
    36    41    42    1
    37    88    87    2
    38    87    86    1
    39    21    23   ar
    40    21    20    1
    41    34    35    2
    42    17    20    1
    43    17    16    1
    44    90    89    1
    45    86    89    1
    46    86    85    1
    47    67    66    1
    48    62    63    1
    49     8     6   am
    50     7     6    2
    51    64    63    1
    52    64    65    2
    53    66    63    1
    54    66    68    1
    55     6     5    1
    56     5     2    1
    57     1     2    1
    58   100   101   ar
    59   100    98   ar
    60     2     3    1
    61   108   107    1
    62    82    84   ar
    63    82    80   ar
    64    84    83   ar
    65   101    99   ar
    66    15    13    1
    67    80    79   ar
    68    14    13    1
    69     3     9   am
    70     3     4    2
    71    98    96   ar
    72     9    10    1
    73    83    81   ar
    74   107   109    1
    75   107   106    1
    76    13    10    1
    77    99    97   ar
    78    79    81   ar
    79    79    78    1
    80    10    11    1
    81    96    97   ar
    82    96    95    1
    83    73    70    1
    84    12    11    2
    85   106   103    1
    86    78    75    1
    87    95    92    1
    88    69    70    1
    89    70    71    1
    90   103   102    1
    91   103   104    1
    92    75    76    1
    93    75    74    1
    94   102    93   am
    95    76    77    2
    96    93    92    1
    97    93    94    2
    98    92    91    1
    99    71    72    2
   100   104   105    2
