@<TRIPOS>MOLECULE
tmp/4l0gA00.pdb
 145 141 0 0 0
SMALL
GASTEIGER

@<TRIPOS>ATOM
      1  N          5.9020   -5.0950   37.6350 N.3    31  HIS31      -0.1241
      2  CA         6.8320   -4.3420   36.7980 C.3    31  HIS31       0.1621
      3  C          8.2690   -4.7430   37.0500 C.2    31  HIS31       0.2264
      4  O          9.0570   -4.8710   36.1110 O.2    31  HIS31      -0.2867
      5  CB         6.6540   -2.8430   37.0210 C.3    31  HIS31       0.0745
      6  CG         7.6730   -1.9980   36.2970 C.ar   31  HIS31       0.0817
      7  ND1        7.6280   -1.7900   34.9670 N.ar   31  HIS31      -0.2268
      8  CD2        8.7900   -1.3080   36.7660 C.ar   31  HIS31       0.1154
      9  CE1        8.6610   -1.0060   34.6020 C.ar   31  HIS31       0.1986
     10  NE2        9.3700   -0.7120   35.7040 N.ar   31  HIS31      -0.2212
     11  N          9.3540    5.2850   36.7920 N.3    39  GLU39      -0.1231
     12  CA         9.7790    5.5670   35.4120 C.3    39  GLU39       0.1699
     13  C          8.6180    5.6940   34.4200 C.2    39  GLU39       0.2592
     14  O          8.5600    6.6500   33.6450 O.2    39  GLU39      -0.2718
     15  CB        10.8240    4.5470   34.9250 C.3    39  GLU39       0.0402
     16  CG        10.4960    3.0900   35.2260 C.3    39  GLU39       0.1161
     17  CD        11.7080    2.1770   35.1410 C.2    39  GLU39       0.3649
     18  OE1       11.5230    0.9790   34.8510 O.co2  39  GLU39      -0.2457
     19  OE2       12.8440    2.6490   35.3730 O.co2  39  GLU39      -0.2457
     20  N          7.7170    4.7160   34.4310 N.am   40  ALA40      -0.1966
     21  CA         6.4460    4.8140   33.7150 C.3    40  ALA40       0.1713
     22  C          5.3280    4.4110   34.6800 C.2    40  ALA40       0.2458
     23  O          4.4160    5.2020   34.9180 O.2    40  ALA40      -0.2730
     24  CB         6.4510    3.9690   32.4460 C.3    40  ALA40       0.0333
     25  N          5.4030    3.1890   35.2590 N.am   41  PRO41      -0.2727
     26  CA         4.6960    3.0160   36.5230 C.3    41  PRO41       0.1402
     27  C          5.4920    3.7610   37.5980 C.2    41  PRO41       0.2269
     28  O          6.7010    3.9570   37.4350 O.2    41  PRO41      -0.2865
     29  CB         4.7510    1.5050   36.7550 C.3    41  PRO41       0.0296
     30  CG         5.9710    1.0580   36.0260 C.3    41  PRO41       0.0237
     31  CD         6.0350    1.9330   34.8080 C.3    41  PRO41       0.0939
     32  N          1.9390   -3.5210   34.1060 N.3    48  THR48      -0.1218
     33  CA         1.4860   -2.9410   32.8550 C.3    48  THR48       0.1862
     34  C          1.0520   -4.0400   31.8980 C.2    48  THR48       0.2287
     35  O          1.3720   -5.2150   32.1020 O.2    48  THR48      -0.2866
     36  CB         2.6120   -2.1280   32.1870 C.3    48  THR48       0.1770
     37  OG1        3.7630   -2.9660   32.0130 O.3    48  THR48      -0.2211
     38  CG2        2.9960   -0.9250   33.0400 C.3    48  THR48       0.0375
     39  N          2.2590   -4.0440   29.0740 N.3    50  GLU50      -0.1245
     40  CA         3.6160   -4.2930   28.5870 C.3    50  GLU50       0.1567
     41  C          4.2340   -5.5150   29.2710 C.2    50  GLU50       0.2260
     42  O          4.7140   -6.4260   28.5960 O.2    50  GLU50      -0.2867
     43  CB         4.4840   -3.0430   28.7930 C.3    50  GLU50       0.0388
     44  CG         5.9870   -3.2780   28.8170 C.3    50  GLU50       0.1160
     45  CD         6.7520   -2.0450   29.2540 C.2    50  GLU50       0.3649
     46  OE1        6.8510   -1.0920   28.4520 O.co2  50  GLU50      -0.2457
     47  OE2        7.2530   -2.0280   30.3990 O.co2  50  GLU50      -0.2457
     48  N         14.5930    8.6110   24.2990 N.3   407  TRP407     -0.1241
     49  CA        14.9410    7.2990   24.8260 C.3   407  TRP407      0.1605
     50  C         15.3110    6.3800   23.7010 C.2   407  TRP407      0.2264
     51  O         14.4870    6.0910   22.8300 O.2   407  TRP407     -0.2867
     52  CB        13.7640    6.7380   25.6150 C.3   407  TRP407      0.0550
     53  CG        14.0300    5.4380   26.3390 C.ar  407  TRP407      0.0003
     54  CD1       15.0150    5.1740   27.2890 C.ar  407  TRP407      0.0946
     55  CD2       13.2680    4.1850   26.2250 C.ar  407  TRP407      0.0152
     56  NE1       14.9290    3.8790   27.7400 N.ar  407  TRP407     -0.2442
     57  CE2       13.9030    3.2330   27.1450 C.ar  407  TRP407      0.0810
     58  CE3       12.1730    3.7700   25.4720 C.ar  407  TRP407      0.0012
     59  CZ2       13.4420    1.9330   27.2890 C.ar  407  TRP407      0.0191
     60  CZ3       11.7190    2.4540   25.6250 C.ar  407  TRP407      0.0001
     61  CH2       12.3390    1.5610   26.5130 C.ar  407  TRP407      0.0015
     62  N         13.2670    2.7100   22.3120 N.3   410  PHE410     -0.1241
     63  CA        12.2910    2.5300   21.2350 C.3   410  PHE410      0.1605
     64  C         12.9180    2.0590   19.9270 C.2   410  PHE410      0.2264
     65  O         12.2760    1.3400   19.1610 O.2   410  PHE410     -0.2867
     66  CB        11.4840    3.8080   20.9910 C.3   410  PHE410      0.0534
     67  CG        10.3830    4.0340   21.9890 C.ar  410  PHE410     -0.0203
     68  CD1       10.2620    5.2580   22.6350 C.ar  410  PHE410     -0.0042
     69  CD2        9.4640    3.0270   22.2830 C.ar  410  PHE410     -0.0042
     70  CE1        9.2470    5.4780   23.5540 C.ar  410  PHE410     -0.0003
     71  CE2        8.4480    3.2400   23.2030 C.ar  410  PHE410     -0.0003
     72  CZ         8.3390    4.4680   23.8390 C.ar  410  PHE410     -0.0000
     73  N         13.2570   -1.8830   20.5680 N.3   413  TRP413     -0.1241
     74  CA        11.9260   -2.4820   20.6790 C.3   413  TRP413      0.1605
     75  C         11.1990   -2.5540   19.3670 C.2   413  TRP413      0.2264
     76  O         10.6940   -3.6110   18.9840 O.2   413  TRP413     -0.2867
     77  CB        11.0840   -1.6900   21.6660 C.3   413  TRP413      0.0550
     78  CG        11.2850   -2.0600   23.1140 C.ar  413  TRP413      0.0003
     79  CD1       12.2370   -2.9220   23.6590 C.ar  413  TRP413      0.0946
     80  CD2       10.5300   -1.5510   24.2610 C.ar  413  TRP413      0.0152
     81  NE1       12.1090   -2.9910   25.0230 N.ar  413  TRP413     -0.2442
     82  CE2       11.1060   -2.1920   25.4500 C.ar  413  TRP413      0.0810
     83  CE3        9.4670   -0.6670   24.4180 C.ar  413  TRP413      0.0012
     84  CZ2       10.6210   -1.9420   26.7240 C.ar  413  TRP413      0.0191
     85  CZ3        8.9870   -0.4230   25.7100 C.ar  413  TRP413      0.0001
     86  CH2        9.5530   -1.0470   26.8330 C.ar  413  TRP413      0.0015
     87  N         21.9060    5.8240   25.3920 N.3   457  SER457     -0.1217
     88  CA        20.8470    5.9350   26.3860 C.3   457  SER457      0.1889
     89  C         19.8700    7.0310   25.9770 C.2   457  SER457      0.2288
     90  O         18.6650    6.7940   25.8700 O.2   457  SER457     -0.2866
     91  CB        21.4360    6.2250   27.7680 C.3   457  SER457      0.2089
     92  OG        20.4160    6.5360   28.6990 O.3   457  SER457     -0.2183
     93  N         21.7720   -0.2970   29.7930 N.3   488  ASP488     -0.1239
     94  CA        20.4090   -0.7890   29.9460 C.3   488  ASP488      0.1674
     95  C         20.3350   -2.1950   29.3590 C.2   488  ASP488      0.2266
     96  O         20.4000   -2.3710   28.1390 O.2   488  ASP488     -0.2867
     97  CB        19.4260    0.1450   29.2400 C.3   488  ASP488      0.1410
     98  CG        17.9790   -0.2250   29.4930 C.2   488  ASP488      0.3668
     99  OD1       17.6230   -1.4180   29.3920 O.co2 488  ASP488     -0.2456
    100  OD2       17.1900    0.6920   29.7770 O.co2 488  ASP488     -0.2456
    101  N         22.6730    1.2990   38.0790 N.3   541  GLU541     -0.1245
    102  CA        22.2380    2.5600   37.4940 C.3   541  GLU541      0.1567
    103  C         22.0370    3.5910   38.5970 C.2   541  GLU541      0.2260
    104  O         21.4270    3.2990   39.6310 O.2   541  GLU541     -0.2867
    105  CB        20.9640    2.3810   36.6430 C.3   541  GLU541      0.0388
    106  CG        19.6900    2.0250   37.4060 C.3   541  GLU541      0.1160
    107  CD        18.5200    1.7000   36.4920 C.2   541  GLU541      0.3649
    108  OE1       18.5170    0.6070   35.8860 O.co2 541  GLU541     -0.2457
    109  OE2       17.5910    2.5280   36.3870 O.co2 541  GLU541     -0.2457
    110  N         20.2020    6.9570   39.8420 N.3   543  ARG543     -0.1245
    111  CA        18.9270    7.5980   39.5920 C.3   543  ARG543      0.1563
    112  C         18.8770    8.9280   40.3310 C.2   543  ARG543      0.2260
    113  O         18.2200    9.0560   41.3670 O.2   543  ARG543     -0.2867
    114  CB        17.7670    6.6790   40.0030 C.3   543  ARG543      0.0307
    115  CG        17.6900    5.3510   39.2500 C.3   543  ARG543      0.0489
    116  CD        17.5100    5.5330   37.7460 C.3   543  ARG543      0.2205
    117  NE        16.2750    6.2440   37.4170 N.pl3 543  ARG543     -0.0865
    118  CZ        15.1300    5.6620   37.0680 C.cat 543  ARG543      0.5346
    119  NH1       15.0380    4.3400   36.9870 N.pl3 543  ARG543      0.1354
    120  NH2       14.0680    6.4100   36.7950 N.pl3 543  ARG543      0.1354
    121  N         13.8070   -5.6170   36.3060 N.3   608  ARG608     -0.1245
    122  CA        12.5530   -5.3240   35.6170 C.3   608  ARG608      0.1563
    123  C         12.1050   -6.5840   34.8830 C.2   608  ARG608      0.2260
    124  O         12.9130   -7.2310   34.2130 O.2   608  ARG608     -0.2867
    125  CB        12.7410   -4.1740   34.6200 C.3   608  ARG608      0.0307
    126  CG        13.1640   -2.8440   35.2320 C.3   608  ARG608      0.0489
    127  CD        13.5870   -1.8650   34.1450 C.3   608  ARG608      0.2205
    128  NE        13.8590   -0.5220   34.6620 N.pl3 608  ARG608     -0.0865
    129  CZ        15.0590   -0.0740   35.0220 C.cat 608  ARG608      0.5346
    130  NH1       16.1280   -0.8580   34.9340 N.pl3 608  ARG608      0.1354
    131  NH2       15.1910    1.1650   35.4760 N.pl3 608  ARG608      0.1354
    132  N         10.2190   -7.1130   32.2130 N.3   610  TRP610     -0.1241
    133  CA        10.3690   -7.0810   30.7570 C.3   610  TRP610      0.1605
    134  C         11.8100   -7.1780   30.3270 C.2   610  TRP610      0.2264
    135  O         12.1120   -7.7590   29.2820 O.2   610  TRP610     -0.2867
    136  CB         9.6780   -5.8610   30.1460 C.3   610  TRP610      0.0550
    137  CG        10.3690   -4.5390   30.3820 C.ar  610  TRP610      0.0003
    138  CD1       10.0520   -3.5730   31.3330 C.ar  610  TRP610      0.0946
    139  CD2       11.5170   -3.9850   29.6460 C.ar  610  TRP610      0.0152
    140  NE1       10.9010   -2.4990   31.2430 N.ar  610  TRP610     -0.2442
    141  CE2       11.8010   -2.6810   30.2530 C.ar  610  TRP610      0.0810
    142  CE3       12.3100   -4.4240   28.5890 C.ar  610  TRP610      0.0012
    143  CZ2       12.8340   -1.8720   29.8050 C.ar  610  TRP610      0.0191
    144  CZ3       13.3510   -3.5980   28.1480 C.ar  610  TRP610      0.0001
    145  CH2       13.6030   -2.3530   28.7430 C.ar  610  TRP610      0.0015
@<TRIPOS>BOND
     1    76    75    2
     2    65    64    2
     3    75    74    1
     4    64    63    1
     5    73    74    1
     6    74    77    1
     7    66    63    1
     8    66    67    1
     9    63    62    1
    10    77    78    1
    11    67    69   ar
    12    67    68   ar
    13    69    71   ar
    14    68    70   ar
    15    51    50    2
    16    78    79   ar
    17    78    80   ar
    18    71    72   ar
    19    70    72   ar
    20    79    81   ar
    21    50    49    1
    22    80    83   ar
    23    80    82   ar
    24    48    49    1
    25    83    85   ar
    26    49    52    1
    27    81    82   ar
    28    87    88    1
    29    82    84   ar
    30    58    60   ar
    31    58    55   ar
    32    52    53    1
    33    60    61   ar
    34    85    86   ar
    35    90    89    2
    36    89    88    1
    37    55    53   ar
    38    55    57   ar
    39    53    54   ar
    40    88    91    1
    41    61    59   ar
    42    84    86   ar
    43    57    59   ar
    44    57    56   ar
    45    54    56   ar
    46    91    92    1
    47    96    95    2
    48   144   142   ar
    49   144   145   ar
    50    46    45   ar
    51    40    43    1
    52    40    39    1
    53    40    41    1
    54   142   139   ar
    55    42    41    2
    56   145   143   ar
    57    43    44    1
    58    44    45    1
    59    97    98    1
    60    97    94    1
    61    45    47   ar
    62   135   134    2
    63    95    94    1
    64    99    98   ar
    65    98   100   ar
    66   139   141   ar
    67   139   137   ar
    68    93    94    1
    69   143   141   ar
    70   136   137    1
    71   136   133    1
    72   141   140   ar
    73   134   133    1
    74   137   138   ar
    75   133   132    1
    76   140   138   ar
    77    34    35    2
    78    34    33    1
    79    37    36    1
    80    36    33    1
    81    36    38    1
    82    24    21    1
    83    33    32    1
    84    14    13    2
    85    21    20    1
    86    21    22    1
    87   127   128    1
    88   127   126    1
    89   124   123    2
    90    13    20   am
    91    13    12    1
    92     9     7   ar
    93     9    10   ar
    94   125   126    1
    95   125   122    1
    96   128   129    2
    97    22    23    2
    98    22    25   am
    99    31    25    1
   100    31    30    1
   101    18    17   ar
   102   123   122    1
   103    15    16    1
   104    15    12    1
   105   130   129    1
   106     7     6   ar
   107   129   131    1
   108    17    16    1
   109    17    19   ar
   110    25    26    1
   111    12    11    1
   112   122   121    1
   113    10     8   ar
   114   108   107   ar
   115    30    29    1
   116     4     3    2
   117     6     8   ar
   118     6     5    1
   119   109   107   ar
   120   107   106    1
   121    26    29    1
   122    26    27    1
   123   105   106    1
   124   105   102    1
   125   120   118    1
   126     2     5    1
   127     2     3    1
   128     2     1    1
   129   119   118    1
   130   118   117    2
   131   117   116    1
   132    28    27    2
   133   102   101    1
   134   102   103    1
   135   116   115    1
   136   103   104    2
   137   115   114    1
   138   111   110    1
   139   111   114    1
   140   111   112    1
   141   112   113    2
