@<TRIPOS>MOLECULE
tmp/4l0gA01.pdb
 140 140 0 0 0
SMALL
GASTEIGER

@<TRIPOS>ATOM
      1  N          7.7170    4.7160   34.4310 N.3    40  ALA40      -0.1231
      2  CA         6.4460    4.8140   33.7150 C.3    40  ALA40       0.1679
      3  C          5.3280    4.4110   34.6800 C.2    40  ALA40       0.2434
      4  O          4.4160    5.2020   34.9180 O.2    40  ALA40      -0.2733
      5  CB         6.4510    3.9690   32.4460 C.3    40  ALA40       0.0304
      6  N          5.4030    3.1890   35.2590 N.am   41  PRO41      -0.2729
      7  CA         4.6960    3.0160   36.5230 C.3    41  PRO41       0.1401
      8  C          5.4920    3.7610   37.5980 C.2    41  PRO41       0.2269
      9  O          6.7010    3.9570   37.4350 O.2    41  PRO41      -0.2865
     10  CB         4.7510    1.5050   36.7550 C.3    41  PRO41       0.0296
     11  CG         5.9710    1.0580   36.0260 C.3    41  PRO41       0.0237
     12  CD         6.0350    1.9330   34.8080 C.3    41  PRO41       0.0939
     13  N          1.9390   -3.5210   34.1060 N.3    48  THR48      -0.1203
     14  CA         1.4860   -2.9410   32.8550 C.3    48  THR48       0.1994
     15  C          1.0520   -4.0400   31.8980 C.2    48  THR48       0.2619
     16  O          1.3720   -5.2150   32.1020 O.2    48  THR48      -0.2717
     17  CB         2.6120   -2.1280   32.1870 C.3    48  THR48       0.1784
     18  OG1        3.7630   -2.9660   32.0130 O.3    48  THR48      -0.2211
     19  CG2        2.9960   -0.9250   33.0400 C.3    48  THR48       0.0376
     20  N          0.3150   -3.6550   30.8580 N.am   49  SER49      -0.1937
     21  CA        -0.0020   -4.5760   29.7720 C.3    49  SER49       0.2055
     22  C          1.2840   -4.9540   29.0380 C.2    49  SER49       0.2642
     23  O          1.3850   -6.0390   28.4650 O.2    49  SER49      -0.2714
     24  CB        -1.0260   -3.9630   28.8140 C.3    49  SER49       0.2130
     25  OG        -0.6800   -2.6400   28.4480 O.3    49  SER49      -0.2179
     26  N          2.2590   -4.0440   29.0740 N.am   50  GLU50      -0.1976
     27  CA         3.6160   -4.2930   28.5870 C.3    50  GLU50       0.1602
     28  C          4.2340   -5.5150   29.2710 C.2    50  GLU50       0.2287
     29  O          4.7140   -6.4260   28.5960 O.2    50  GLU50      -0.2864
     30  CB         4.4840   -3.0430   28.7930 C.3    50  GLU50       0.0415
     31  CG         5.9870   -3.2780   28.8170 C.3    50  GLU50       0.1163
     32  CD         6.7520   -2.0450   29.2540 C.2    50  GLU50       0.3649
     33  OE1        6.8510   -1.0920   28.4520 O.co2  50  GLU50      -0.2457
     34  OE2        7.2530   -2.0280   30.3990 O.co2  50  GLU50      -0.2457
     35  N         -3.9890   -0.6790   30.5370 N.3   146  TRP146     -0.1241
     36  CA        -2.5230   -0.5990   30.5520 C.3   146  TRP146      0.1605
     37  C         -1.8620   -0.6580   31.9080 C.2   146  TRP146      0.2264
     38  O         -0.7010   -1.0530   32.0030 O.2   146  TRP146     -0.2867
     39  CB        -2.0340    0.6270   29.7770 C.3   146  TRP146      0.0550
     40  CG        -1.8320    1.8630   30.6240 C.ar  146  TRP146      0.0003
     41  CD1       -2.7820    2.8180   30.9770 C.ar  146  TRP146      0.0946
     42  CD2       -0.5810    2.3230   31.2530 C.ar  146  TRP146      0.0152
     43  NE1       -2.2240    3.8000   31.7570 N.ar  146  TRP146     -0.2442
     44  CE2       -0.9110    3.5670   31.9600 C.ar  146  TRP146      0.0810
     45  CE3        0.7260    1.8460   31.3020 C.ar  146  TRP146      0.0012
     46  CZ2        0.0410    4.2820   32.6750 C.ar  146  TRP146      0.0191
     47  CZ3        1.6750    2.5760   32.0290 C.ar  146  TRP146      0.0001
     48  CH2        1.3390    3.7650   32.6960 C.ar  146  TRP146      0.0015
     49  N         -1.4640    9.0120   34.0050 N.3   172  PHE172     -0.1241
     50  CA        -1.3320   10.0460   32.9730 C.3   172  PHE172      0.1605
     51  C         -2.6670   10.5040   32.3850 C.2   172  PHE172      0.2264
     52  O         -3.3720    9.7210   31.7450 O.2   172  PHE172     -0.2867
     53  CB        -0.4080    9.5720   31.8460 C.3   172  PHE172      0.0534
     54  CG         0.9930    9.2660   32.2940 C.ar  172  PHE172     -0.0203
     55  CD1        1.8650   10.2900   32.6510 C.ar  172  PHE172     -0.0042
     56  CD2        1.4470    7.9510   32.3450 C.ar  172  PHE172     -0.0042
     57  CE1        3.1570   10.0080   33.0620 C.ar  172  PHE172     -0.0003
     58  CE2        2.7410    7.6640   32.7560 C.ar  172  PHE172     -0.0003
     59  CZ         3.5970    8.6940   33.1140 C.ar  172  PHE172     -0.0000
     60  N         -2.8320    0.2770   25.8160 N.3   219  ALA219     -0.1245
     61  CA        -1.5370    0.6390   25.2530 C.3   219  ALA219      0.1562
     62  C         -1.3100   -0.2500   24.0360 C.2   219  ALA219      0.2260
     63  O         -0.9620   -1.4250   24.1850 O.2   219  ALA219     -0.2867
     64  CB        -0.4320    0.4540   26.2780 C.3   219  ALA219      0.0290
     65  N          0.9290   -0.7550   21.7850 N.3   221  ASP221     -0.1225
     66  CA         2.2060   -1.4510   21.6000 C.3   221  ASP221      0.1805
     67  C          2.2620   -2.7870   22.3520 C.2   221  ASP221      0.2597
     68  O          2.8280   -3.7610   21.8500 O.2   221  ASP221     -0.2718
     69  CB         3.4070   -0.5500   21.9490 C.3   221  ASP221      0.1424
     70  CG         3.4750   -0.1790   23.4260 C.2   221  ASP221      0.3668
     71  OD1        2.4160   -0.0700   24.0820 O.co2 221  ASP221     -0.2456
     72  OD2        4.6020    0.0200   23.9290 O.co2 221  ASP221     -0.2456
     73  N          1.6520   -2.8280   23.5360 N.am  222  ALA222     -0.1979
     74  CA         1.6200   -4.0340   24.3650 C.3   222  ALA222      0.1597
     75  C          0.6930   -5.1110   23.8060 C.2   222  ALA222      0.2287
     76  O          1.0570   -6.2870   23.7720 O.2   222  ALA222     -0.2864
     77  CB         1.2280   -3.6830   25.7900 C.3   222  ALA222      0.0319
     78  N         -1.0220    6.1300   20.3210 N.3   294  TRP294     -0.1241
     79  CA        -0.5760    6.1000   21.7170 C.3   294  TRP294      0.1605
     80  C         -1.5060    5.3470   22.6260 C.2   294  TRP294      0.2264
     81  O         -1.0730    4.7720   23.6280 O.2   294  TRP294     -0.2867
     82  CB        -0.3600    7.5100   22.2450 C.3   294  TRP294      0.0550
     83  CG         0.5620    7.5570   23.4380 C.ar  294  TRP294      0.0003
     84  CD1        0.2160    7.7190   24.7780 C.ar  294  TRP294      0.0946
     85  CD2        2.0260    7.4280   23.4360 C.ar  294  TRP294      0.0152
     86  NE1        1.3310    7.7070   25.5780 N.ar  294  TRP294     -0.2442
     87  CE2        2.4500    7.5380   24.8370 C.ar  294  TRP294      0.0810
     88  CE3        2.9920    7.2460   22.4500 C.ar  294  TRP294      0.0012
     89  CZ2        3.7860    7.4670   25.2090 C.ar  294  TRP294      0.0191
     90  CZ3        4.3360    7.1770   22.8380 C.ar  294  TRP294      0.0001
     91  CH2        4.7220    7.2810   24.1850 C.ar  294  TRP294      0.0015
     92  N          5.8490    2.3800   18.7920 N.3   319  TYR319     -0.1241
     93  CA         4.6670    1.5570   19.0380 C.3   319  TYR319      0.1605
     94  C          4.3760    0.5440   17.9290 C.2   319  TYR319      0.2264
     95  O          3.6760   -0.4430   18.1630 O.2   319  TYR319     -0.2867
     96  CB         3.4370    2.4510   19.2440 C.3   319  TYR319      0.0534
     97  CG         3.1650    2.8600   20.6800 C.ar  319  TYR319     -0.0201
     98  CD1        4.1830    3.3490   21.5020 C.ar  319  TYR319     -0.0009
     99  CD2        1.8750    2.7840   21.2060 C.ar  319  TYR319     -0.0009
    100  CE1        3.9250    3.7290   22.8100 C.ar  319  TYR319      0.0417
    101  CE2        1.6080    3.1620   22.5100 C.ar  319  TYR319      0.0417
    102  CZ         2.6340    3.6370   23.3060 C.ar  319  TYR319      0.1957
    103  OH         2.3640    4.0140   24.5990 O.3   319  TYR319     -0.2866
    104  N          4.7950   13.2190   24.6140 N.3   399  TYR399     -0.1241
    105  CA         5.5200   13.7680   25.7710 C.3   399  TYR399      0.1605
    106  C          6.7370   14.5990   25.3860 C.2   399  TYR399      0.2264
    107  O          7.5160   14.2070   24.5160 O.2   399  TYR399     -0.2867
    108  CB         5.8940   12.6620   26.7650 C.3   399  TYR399      0.0534
    109  CG         4.6840   12.0860   27.4590 C.ar  399  TYR399     -0.0201
    110  CD1        4.0530   12.7830   28.4900 C.ar  399  TYR399     -0.0009
    111  CD2        4.1510   10.8590   27.0700 C.ar  399  TYR399     -0.0009
    112  CE1        2.9320   12.2680   29.1200 C.ar  399  TYR399      0.0417
    113  CE2        3.0310   10.3350   27.6960 C.ar  399  TYR399      0.0417
    114  CZ         2.4270   11.0440   28.7180 C.ar  399  TYR399      0.1957
    115  OH         1.3150   10.5290   29.3380 O.3   399  TYR399     -0.2866
    116  N         13.2670    2.7100   22.3120 N.3   410  PHE410     -0.1241
    117  CA        12.2910    2.5300   21.2350 C.3   410  PHE410      0.1605
    118  C         12.9180    2.0590   19.9270 C.2   410  PHE410      0.2264
    119  O         12.2760    1.3400   19.1610 O.2   410  PHE410     -0.2867
    120  CB        11.4840    3.8080   20.9910 C.3   410  PHE410      0.0534
    121  CG        10.3830    4.0340   21.9890 C.ar  410  PHE410     -0.0203
    122  CD1       10.2620    5.2580   22.6350 C.ar  410  PHE410     -0.0042
    123  CD2        9.4640    3.0270   22.2830 C.ar  410  PHE410     -0.0042
    124  CE1        9.2470    5.4780   23.5540 C.ar  410  PHE410     -0.0003
    125  CE2        8.4480    3.2400   23.2030 C.ar  410  PHE410     -0.0003
    126  CZ         8.3390    4.4680   23.8390 C.ar  410  PHE410     -0.0000
    127  N         13.2570   -1.8830   20.5680 N.3   413  TRP413     -0.1241
    128  CA        11.9260   -2.4820   20.6790 C.3   413  TRP413      0.1605
    129  C         11.1990   -2.5540   19.3670 C.2   413  TRP413      0.2264
    130  O         10.6940   -3.6110   18.9840 O.2   413  TRP413     -0.2867
    131  CB        11.0840   -1.6900   21.6660 C.3   413  TRP413      0.0550
    132  CG        11.2850   -2.0600   23.1140 C.ar  413  TRP413      0.0003
    133  CD1       12.2370   -2.9220   23.6590 C.ar  413  TRP413      0.0946
    134  CD2       10.5300   -1.5510   24.2610 C.ar  413  TRP413      0.0152
    135  NE1       12.1090   -2.9910   25.0230 N.ar  413  TRP413     -0.2442
    136  CE2       11.1060   -2.1920   25.4500 C.ar  413  TRP413      0.0810
    137  CE3        9.4670   -0.6670   24.4180 C.ar  413  TRP413      0.0012
    138  CZ2       10.6210   -1.9420   26.7240 C.ar  413  TRP413      0.0191
    139  CZ3        8.9870   -0.4230   25.7100 C.ar  413  TRP413      0.0001
    140  CH2        9.5530   -1.0470   26.8330 C.ar  413  TRP413      0.0015
@<TRIPOS>BOND
     1    94    95    2
     2    94    93    1
     3    92    93    1
     4   130   129    2
     5    93    96    1
     6   119   118    2
     7    96    97    1
     8   129   128    1
     9   118   117    1
    10    78    79    1
    11   127   128    1
    12   128   131    1
    13    97    99   ar
    14    97    98   ar
    15   120   117    1
    16   120   121    1
    17    99   101   ar
    18   117   116    1
    19    98   100   ar
    20    66    65    1
    21    66    69    1
    22    66    67    1
    23   131   132    1
    24    79    82    1
    25    79    80    1
    26    68    67    2
    27    69    70    1
    28   121   123   ar
    29   121   122   ar
    30    82    83    1
    31   123   125   ar
    32    67    73   am
    33    88    90   ar
    34    88    85   ar
    35   101   102   ar
    36    80    81    2
    37   122   124   ar
    38   100   102   ar
    39    90    91   ar
    40   132   133   ar
    41   132   134   ar
    42   125   126   ar
    43   102   103    1
    44    70    72   ar
    45    70    71   ar
    46    85    83   ar
    47    85    87   ar
    48    83    84   ar
    49    73    74    1
    50   124   126   ar
    51   133   135   ar
    52    76    75    2
    53    75    74    1
    54    62    63    2
    55    62    61    1
    56    91    89   ar
    57   134   137   ar
    58   134   136   ar
    59    74    77    1
    60   137   139   ar
    61   107   106    2
    62   104   105    1
    63    84    86   ar
    64    87    89   ar
    65    87    86   ar
    66   135   136   ar
    67    61    60    1
    68    61    64    1
    69   106   105    1
    70   136   138   ar
    71   139   140   ar
    72   105   108    1
    73   138   140   ar
    74   108   109    1
    75   111   109   ar
    76   111   113   ar
    77   109   110   ar
    78   113   114   ar
    79    25    24    1
    80    33    32   ar
    81    23    22    2
    82   110   112   ar
    83    27    30    1
    84    27    26    1
    85    27    28    1
    86    29    28    2
    87   114   112   ar
    88   114   115    1
    89    30    31    1
    90    24    21    1
    91    31    32    1
    92    22    26   am
    93    22    21    1
    94    32    34   ar
    95    21    20    1
    96    39    36    1
    97    39    40    1
    98    35    36    1
    99    36    37    1
   100    40    41   ar
   101    40    42   ar
   102    20    15   am
   103    41    43   ar
   104    42    45   ar
   105    42    44   ar
   106    45    47   ar
   107    52    51    2
   108    43    44   ar
   109    53    54    1
   110    53    50    1
   111    15    16    2
   112    15    14    1
   113    37    38    2
   114    44    46   ar
   115    18    17    1
   116    47    48   ar
   117    17    14    1
   118    17    19    1
   119    54    56   ar
   120    54    55   ar
   121    56    58   ar
   122    51    50    1
   123     5     2    1
   124    55    57   ar
   125    46    48   ar
   126    58    59   ar
   127    14    13    1
   128    50    49    1
   129    57    59   ar
   130     2     1    1
   131     2     3    1
   132     3     4    2
   133     3     6   am
   134    12     6    1
   135    12    11    1
   136     6     7    1
   137    11    10    1
   138     7    10    1
   139     7     8    1
   140     9     8    2
