@<TRIPOS>MOLECULE
tmp/4l0iC00.pdb
 151 153 0 0 0
SMALL
GASTEIGER

@<TRIPOS>ATOM
      1  N          5.5410    9.5700  -11.9930 N.3    80  HIS80      -0.1226
      2  CA         5.7730    9.2050  -13.3870 C.3    80  HIS80       0.1752
      3  C          6.0760   10.4410  -14.2290 C.2    80  HIS80       0.2597
      4  O          5.3110   11.4180  -14.2110 O.2    80  HIS80      -0.2718
      5  CB         4.5510    8.4870  -13.9850 C.3    80  HIS80       0.0759
      6  CG         4.7860    7.9470  -15.3520 C.ar   80  HIS80       0.0818
      7  ND1        5.4000    6.7320  -15.5780 N.ar   80  HIS80      -0.2268
      8  CD2        4.4760    8.4390  -16.5720 C.ar   80  HIS80       0.1154
      9  CE1        5.4700    6.5080  -16.8780 C.ar   80  HIS80       0.1986
     10  NE2        4.9250    7.5320  -17.5040 N.ar   80  HIS80      -0.2212
     11  N          7.1610   10.3800  -14.9910 N.am   81  GLY81      -0.1942
     12  CA         7.5800   11.4880  -15.8500 C.3    81  GLY81       0.2014
     13  C          7.6280   10.9950  -17.2680 C.2    81  GLY81       0.2640
     14  O          8.2540    9.9840  -17.5510 O.2    81  GLY81      -0.2714
     15  N          6.9780   11.7100  -18.1760 N.am   82  SER82      -0.1936
     16  CA         6.9020   11.2900  -19.5600 C.3    82  SER82       0.2040
     17  C          6.6500   12.4620  -20.5040 C.2    82  SER82       0.2485
     18  O          5.8990   13.3680  -20.1920 O.2    82  SER82      -0.2729
     19  CB         5.7800   10.2790  -19.7100 C.3    82  SER82       0.2129
     20  OG         5.6370    9.8030  -21.0560 O.3    82  SER82      -0.2179
     21  N          7.2360   12.4110  -21.6990 N.am   83  PRO83      -0.2715
     22  CA         6.7050   13.2320  -22.8000 C.3    83  PRO83       0.1536
     23  C          5.1850   13.0550  -23.0300 C.2    83  PRO83       0.2598
     24  O          4.5470   13.9640  -23.4590 O.2    83  PRO83      -0.2715
     25  CB         7.4790   12.7250  -24.0240 C.3    83  PRO83       0.0310
     26  CG         8.6800   12.0300  -23.4650 C.3    83  PRO83       0.0237
     27  CD         8.2270   11.4310  -22.1710 C.3    83  PRO83       0.0939
     28  N          4.6130   11.9010  -22.7020 N.am   84  PHE84      -0.1974
     29  CA         3.1940   11.6300  -22.9960 C.3    84  PHE84       0.1639
     30  C          2.1820   12.0920  -21.9200 C.2    84  PHE84       0.2290
     31  O          1.0000   11.7160  -21.9720 O.2    84  PHE84      -0.2864
     32  CB         3.0400   10.1200  -23.2900 C.3    84  PHE84       0.0560
     33  CG         3.9650    9.6330  -24.3770 C.ar   84  PHE84      -0.0200
     34  CD1        3.8540   10.1380  -25.6660 C.ar   84  PHE84      -0.0042
     35  CD2        4.9690    8.7130  -24.1060 C.ar   84  PHE84      -0.0042
     36  CE1        4.7160    9.7100  -26.6710 C.ar   84  PHE84      -0.0003
     37  CE2        5.8220    8.2740  -25.1000 C.ar   84  PHE84      -0.0003
     38  CZ         5.7030    8.7760  -26.3870 C.ar   84  PHE84      -0.0000
     39  N          1.6540    2.4250  -25.1150 N.3    96  ARG96      -0.1231
     40  CA         2.4330    3.4790  -25.8000 C.3    96  ARG96       0.1694
     41  C          3.3550    4.1890  -24.8180 C.2    96  ARG96       0.2592
     42  O          4.2530    4.9350  -25.2390 O.2    96  ARG96      -0.2718
     43  CB         1.5680    4.5790  -26.4520 C.3    96  ARG96       0.0321
     44  CG         0.1520    4.2220  -26.8670 C.3    96  ARG96       0.0489
     45  CD        -0.5220    5.4090  -27.5600 C.3    96  ARG96       0.2205
     46  NE        -1.9380    5.5620  -27.2030 N.pl3  96  ARG96      -0.0865
     47  CZ        -2.7980    6.3760  -27.8210 C.cat  96  ARG96       0.5346
     48  NH1       -2.4160    7.1270  -28.8580 N.pl3  96  ARG96       0.1354
     49  NH2       -4.0590    6.4360  -27.4030 N.pl3  96  ARG96       0.1354
     50  N          3.0740    3.9940  -23.5190 N.am   97  HIS97      -0.1962
     51  CA         3.7900    4.6470  -22.4180 C.3    97  HIS97       0.1787
     52  C          4.7710    3.6780  -21.7480 C.2    97  HIS97       0.2620
     53  O          5.3630    4.0230  -20.7240 O.2    97  HIS97      -0.2715
     54  CB         2.7740    5.2370  -21.4180 C.3    97  HIS97       0.0785
     55  CG         1.6270    5.9380  -22.0850 C.ar   97  HIS97       0.0821
     56  ND1        0.3160    5.6530  -21.7940 N.ar   97  HIS97      -0.2267
     57  CD2        1.5910    6.8510  -23.0890 C.ar   97  HIS97       0.1154
     58  CE1       -0.4820    6.3860  -22.5540 C.ar   97  HIS97       0.1986
     59  NE2        0.2680    7.1210  -23.3520 N.ar   97  HIS97      -0.2212
     60  N          4.9490    2.5050  -22.3830 N.am   98  ALA98      -0.1963
     61  CA         5.8510    1.4310  -21.9390 C.3    98  ALA98       0.1728
     62  C          7.2940    1.7090  -22.3200 C.2    98  ALA98       0.2616
     63  O          7.5720    2.1870  -23.4270 O.2    98  ALA98      -0.2715
     64  CB         5.4480    0.0890  -22.5450 C.3    98  ALA98       0.0334
     65  N          8.1960    1.3510  -21.4080 N.am   99  TYR99      -0.1960
     66  CA         9.6110    1.5870  -21.5600 C.3    99  TYR99       0.1771
     67  C         10.1930    0.3180  -22.1270 C.2    99  TYR99       0.2619
     68  O         10.6390   -0.5540  -21.3830 O.2    99  TYR99      -0.2715
     69  CB        10.2060    1.9370  -20.1940 C.3    99  TYR99       0.0574
     70  CG        11.6690    2.3200  -20.1540 C.ar   99  TYR99      -0.0198
     71  CD1       12.4200    2.5480  -21.3170 C.ar   99  TYR99      -0.0009
     72  CD2       12.2950    2.4930  -18.9260 C.ar   99  TYR99      -0.0009
     73  CE1       13.7640    2.8990  -21.2310 C.ar   99  TYR99       0.0417
     74  CE2       13.6190    2.8600  -18.8410 C.ar   99  TYR99       0.0417
     75  CZ        14.3440    3.0550  -19.9930 C.ar   99  TYR99       0.1957
     76  OH        15.6460    3.4400  -19.8620 O.3    99  TYR99      -0.2866
     77  N         10.1630    0.2050  -23.4490 N.am  100  ILE100     -0.1977
     78  CA        10.5430   -1.0540  -24.1210 C.3   100  ILE100      0.1596
     79  C         11.8800   -1.6070  -23.6150 C.2   100  ILE100      0.2287
     80  O         11.9490   -2.7640  -23.2580 O.2   100  ILE100     -0.2864
     81  CB        10.6070   -0.9330  -25.6710 C.3   100  ILE100      0.0276
     82  CG1        9.3240   -0.2890  -26.2590 C.3   100  ILE100      0.0022
     83  CG2       10.8590   -2.3080  -26.2830 C.3   100  ILE100      0.0022
     84  CD1        8.0130   -0.9590  -25.8730 C.3   100  ILE100      0.0001
     85  N          6.8360    2.3240  -16.0080 N.3   109  TYR109     -0.1227
     86  CA         7.7520    2.5250  -14.8860 C.3   109  TYR109      0.1736
     87  C          7.3190    3.6990  -14.0020 C.2   109  TYR109      0.2595
     88  O          6.8370    4.6970  -14.5030 O.2   109  TYR109     -0.2718
     89  CB         9.1620    2.7670  -15.3870 C.3   109  TYR109      0.0548
     90  CG         9.8770    1.5240  -15.8110 C.ar  109  TYR109     -0.0200
     91  CD1       11.0860    1.1540  -15.2400 C.ar  109  TYR109     -0.0009
     92  CD2        9.3430    0.7130  -16.7980 C.ar  109  TYR109     -0.0009
     93  CE1       11.7370   -0.0120  -15.6380 C.ar  109  TYR109      0.0417
     94  CE2        9.9780   -0.4330  -17.2270 C.ar  109  TYR109      0.0417
     95  CZ        11.1520   -0.8200  -16.6350 C.ar  109  TYR109      0.1957
     96  OH        11.7330   -1.9880  -17.0720 O.3   109  TYR109     -0.2866
     97  N          7.4790    3.5350  -12.6880 N.am  110  PHE110     -0.1962
     98  CA         7.1380    4.5180  -11.6530 C.3   110  PHE110      0.1771
     99  C          8.2620    4.5980  -10.6230 C.2   110  PHE110      0.2619
    100  O          8.9860    3.6260  -10.3780 O.2   110  PHE110     -0.2715
    101  CB         5.8380    4.1260  -10.9590 C.3   110  PHE110      0.0574
    102  CG         4.6090    4.1820  -11.8680 C.ar  110  PHE110     -0.0200
    103  CD1        3.8700    5.3510  -11.9980 C.ar  110  PHE110     -0.0042
    104  CD2        4.2170    3.0760  -12.5850 C.ar  110  PHE110     -0.0042
    105  CE1        2.7650    5.4290  -12.8590 C.ar  110  PHE110     -0.0003
    106  CE2        3.1080    3.1110  -13.4280 C.ar  110  PHE110     -0.0003
    107  CZ         2.3800    4.3050  -13.5670 C.ar  110  PHE110     -0.0000
    108  N          8.4020    5.7580   -9.9920 N.am  111  ALA111     -0.1977
    109  CA         9.4550    5.9830   -9.0210 C.3   111  ALA111      0.1597
    110  C          8.9740    6.5340   -7.6840 C.2   111  ALA111      0.2287
    111  O          8.0060    7.3270   -7.6100 O.2   111  ALA111     -0.2864
    112  CB        10.4730    6.9330   -9.6090 C.3   111  ALA111      0.0319
    113  N         13.8480   10.9070   -9.8580 N.3   116  LYS116     -0.1231
    114  CA        13.9910    9.8140  -10.8670 C.3   116  LYS116      0.1693
    115  C         13.0270   10.0030  -12.0260 C.2   116  LYS116      0.2592
    116  O         13.3990    9.9440  -13.1620 O.2   116  LYS116     -0.2718
    117  CB        13.8120    8.4230  -10.2240 C.3   116  LYS116      0.0285
    118  CG        13.8060    7.2590  -11.2010 C.3   116  LYS116      0.0035
    119  CD        14.9500    7.2730  -12.2020 C.3   116  LYS116      0.0206
    120  CE        16.1070    6.4460  -11.7200 C.3   116  LYS116      0.1093
    121  NZ        17.2690    6.5270  -12.6370 N.3   116  LYS116     -0.1314
    122  N         11.7640   10.2810  -11.7070 N.am  117  SER117     -0.1952
    123  CA        10.7780   10.5110  -12.7390 C.3   117  SER117      0.1924
    124  C         11.1340   11.7860  -13.5530 C.2   117  SER117      0.2314
    125  O         10.9450   11.8290  -14.7690 O.2   117  SER117     -0.2863
    126  CB         9.3730   10.5340  -12.1380 C.3   117  SER117      0.2116
    127  OG         8.9900    9.2440  -11.6660 O.3   117  SER117     -0.2180
    128  N         12.9840   11.5020  -16.9460 N.3   120  TYR120     -0.1241
    129  CA        12.2150   11.0500  -18.1240 C.3   120  TYR120      0.1605
    130  C         11.2450   12.0710  -18.7110 C.2   120  TYR120      0.2264
    131  O         10.5670   11.8090  -19.7170 O.2   120  TYR120     -0.2867
    132  CB        11.4610    9.7760  -17.7870 C.3   120  TYR120      0.0534
    133  CG        12.4180    8.6450  -17.5870 C.ar  120  TYR120     -0.0201
    134  CD1       12.7200    7.7900  -18.6140 C.ar  120  TYR120     -0.0009
    135  CD2       13.0710    8.4890  -16.3910 C.ar  120  TYR120     -0.0009
    136  CE1       13.6440    6.7710  -18.4400 C.ar  120  TYR120      0.0417
    137  CE2       13.9910    7.4870  -16.1910 C.ar  120  TYR120      0.0417
    138  CZ        14.2860    6.6320  -17.2220 C.ar  120  TYR120      0.1957
    139  OH        15.1970    5.6380  -17.0330 O.3   120  TYR120     -0.2866
    140  N         11.8610   12.7280  -22.0680 N.3   123  GLY123     -0.1210
    141  CA        12.2120   11.5090  -22.7750 C.3   123  GLY123      0.1956
    142  C         13.3150   10.7310  -22.0820 C.2   123  GLY123      0.2611
    143  O         13.9430   11.2150  -21.1080 O.2   123  GLY123     -0.2717
    144  N         13.5670    9.5360  -22.6170 N.am  124  ILE124     -0.1979
    145  CA        14.6290    8.6350  -22.1440 C.3   124  ILE124      0.1595
    146  C         15.9640    9.3660  -22.1490 C.2   124  ILE124      0.2287
    147  O         16.3360    9.9680  -23.1280 O.2   124  ILE124     -0.2864
    148  CB        14.7020    7.3480  -23.0060 C.3   124  ILE124      0.0276
    149  CG1       13.3700    6.5990  -22.8930 C.3   124  ILE124      0.0022
    150  CG2       15.8580    6.4510  -22.5420 C.3   124  ILE124      0.0022
    151  CD1       13.2470    5.3440  -23.7440 C.3   124  ILE124      0.0001
@<TRIPOS>BOND
     1    48    47    1
     2    47    49    1
     3    47    46    2
     4    45    46    1
     5    45    44    1
     6    44    43    1
     7    36    38   ar
     8    36    34   ar
     9    43    40    1
    10    38    37   ar
    11    83    81    1
    12    82    84    1
    13    82    81    1
    14    40    39    1
    15    40    41    1
    16    81    78    1
    17    34    33   ar
    18    42    41    2
    19    37    35   ar
    20    41    50   am
    21    33    35   ar
    22    33    32    1
    23    78    79    1
    24    78    77    1
    25    25    26    1
    26    25    22    1
    27   151   149    1
    28    79    80    2
    29    50    51    1
    30    26    27    1
    31    24    23    2
    32    77    67   am
    33    63    62    2
    34    59    57   ar
    35    59    58   ar
    36    32    29    1
    37   147   146    2
    38    57    55   ar
    39    23    22    1
    40    23    28   am
    41   148   149    1
    42   148   150    1
    43   148   145    1
    44    29    28    1
    45    29    30    1
    46    22    21    1
    47   141   142    1
    48   141   140    1
    49   144   145    1
    50   144   142   am
    51    58    56   ar
    52    64    61    1
    53    51    52    1
    54    51    54    1
    55    60    61    1
    56    60    52   am
    57    62    61    1
    58    62    65   am
    59    27    21    1
    60   146   145    1
    61    67    66    1
    62    67    68    2
    63    55    56   ar
    64    55    54    1
    65   142   143    2
    66    31    30    2
    67    52    53    2
    68    21    17   am
    69    66    65    1
    70    66    69    1
    71    71    73   ar
    72    71    70   ar
    73    73    75   ar
    74    20    19    1
    75    17    18    2
    76    17    16    1
    77    69    70    1
    78    70    72   ar
    79    75    76    1
    80    75    74   ar
    81   131   130    2
    82    19    16    1
    83    16    15    1
    84    72    74   ar
    85   130   129    1
    86   134   136   ar
    87   134   133   ar
    88   136   138   ar
    89    15    13   am
    90   129   132    1
    91   129   128    1
    92   132   133    1
    93   133   135   ar
    94    14    13    2
    95    10     9   ar
    96    10     8   ar
    97    13    12    1
    98    94    92   ar
    99    94    95   ar
   100   138   139    1
   101   138   137   ar
   102    96    95    1
   103     9     7   ar
   104    92    90   ar
   105    95    93   ar
   106     8     6   ar
   107   135   137   ar
   108    85    86    1
   109    12    11    1
   110    90    89    1
   111    90    91   ar
   112    93    91   ar
   113     7     6   ar
   114    89    86    1
   115     6     5    1
   116    11     3   am
   117    86    87    1
   118   125   124    2
   119    88    87    2
   120     3     4    2
   121     3     2    1
   122    87    97   am
   123     5     2    1
   124   107   106   ar
   125   107   105   ar
   126   124   123    1
   127   106   104   ar
   128     2     1    1
   129   116   115    2
   130   105   103   ar
   131   123   126    1
   132   123   122    1
   133    97    98    1
   134   121   120    1
   135   104   102   ar
   136   119   120    1
   137   119   118    1
   138   126   127    1
   139   115   122   am
   140   115   114    1
   141   103   102   ar
   142   102   101    1
   143    98   101    1
   144    98    99    1
   145   118   117    1
   146   114   117    1
   147   114   113    1
   148    99   100    2
   149    99   108   am
   150   108   109    1
   151   112   109    1
   152   109   110    1
   153   110   111    2
