@<TRIPOS>MOLECULE
tmp/4l0lA00.pdb
 176 172 0 0 0
SMALL
GASTEIGER

@<TRIPOS>ATOM
      1  N        -11.6700   -8.0680   -8.6890 N.3   239  GLU239     -0.1245
      2  CA       -11.7920   -8.0190  -10.1400 C.3   239  GLU239      0.1567
      3  C        -10.4490   -8.4200  -10.7140 C.2   239  GLU239      0.2260
      4  O         -9.4420   -7.7860  -10.3940 O.2   239  GLU239     -0.2867
      5  CB       -12.1960   -6.6340  -10.6290 C.3   239  GLU239      0.0388
      6  CG       -13.5440   -6.1830  -10.1180 C.3   239  GLU239      0.1160
      7  CD       -13.8550   -4.7770  -10.5710 C.2   239  GLU239      0.3649
      8  OE1      -13.7590   -3.8470   -9.7390 O.co2 239  GLU239     -0.2457
      9  OE2      -14.0820   -4.5930  -11.7860 O.co2 239  GLU239     -0.2457
     10  N         -9.4370   -8.2280  -13.7020 N.3   241  GLY241     -0.1210
     11  CA        -9.0270   -7.2830  -14.7370 C.3   241  GLY241      0.1956
     12  C         -8.2870   -7.9370  -15.8870 C.2   241  GLY241      0.2612
     13  O         -8.6910   -9.0120  -16.3390 O.2   241  GLY241     -0.2717
     14  N         -7.1750   -7.3150  -16.3350 N.am  242  SER242     -0.1952
     15  CA        -6.3540   -7.7720  -17.4790 C.3   242  SER242      0.1924
     16  C         -5.7730   -9.1900  -17.3950 C.2   242  SER242      0.2314
     17  O         -5.3380   -9.7170  -18.4180 O.2   242  SER242     -0.2863
     18  CB        -5.2330   -6.7880  -17.7820 C.3   242  SER242      0.2116
     19  OG        -5.7110   -5.4560  -17.8570 O.3   242  SER242     -0.2180
     20  N         -5.0000    2.9180  -21.3220 N.3   281  VAL281     -0.1231
     21  CA        -4.1500    3.7980  -20.5170 C.3   281  VAL281      0.1692
     22  C         -3.1560    4.5220  -21.4230 C.2   281  VAL281      0.2592
     23  O         -3.1430    5.7490  -21.4460 O.2   281  VAL281     -0.2718
     24  CB        -3.4660    3.0230  -19.3530 C.3   281  VAL281      0.0266
     25  CG1       -2.3600    3.8530  -18.6950 C.3   281  VAL281      0.0020
     26  CG2       -4.5050    2.5890  -18.3230 C.3   281  VAL281      0.0020
     27  N         -2.3170    3.7500  -22.1420 N.am  282  SER282     -0.1952
     28  CA        -1.3540    4.2660  -23.1000 C.3   282  SER282      0.1924
     29  C         -2.1200    4.2830  -24.4230 C.2   282  SER282      0.2314
     30  O         -2.4920    3.2240  -24.9320 O.2   282  SER282     -0.2863
     31  CB        -0.1290    3.3560  -23.1750 C.3   282  SER282      0.2116
     32  OG         0.8620    3.8960  -24.0350 O.3   282  SER282     -0.2180
     33  N          0.7400   -7.1180  -24.5400 N.3   295  ILE295     -0.1231
     34  CA         1.9230   -6.3600  -24.0450 C.3   295  ILE295      0.1692
     35  C          1.4760   -4.9810  -23.5800 C.2   295  ILE295      0.2592
     36  O          1.7800   -4.5810  -22.4580 O.2   295  ILE295     -0.2718
     37  CB         3.0650   -6.2860  -25.1120 C.3   295  ILE295      0.0266
     38  CG1        3.8800   -7.5790  -25.1520 C.3   295  ILE295      0.0019
     39  CG2        3.9910   -5.0650  -24.9070 C.3   295  ILE295      0.0020
     40  CD1        4.5830   -7.8620  -26.5170 C.3   295  ILE295      0.0001
     41  N          0.7000   -4.2940  -24.4230 N.am  296  LYS296     -0.1966
     42  CA         0.1770   -2.9450  -24.1770 C.3   296  LYS296      0.1728
     43  C         -1.0560   -2.9730  -23.2800 C.2   296  LYS296      0.2616
     44  O         -1.4880   -1.9310  -22.7970 O.2   296  LYS296     -0.2715
     45  CB        -0.1700   -2.2740  -25.5230 C.3   296  LYS296      0.0311
     46  CG         1.0400   -2.0390  -26.4310 C.3   296  LYS296      0.0038
     47  CD         1.7570   -0.7360  -26.1150 C.3   296  LYS296      0.0206
     48  CE         2.6430   -0.2950  -27.2550 C.3   296  LYS296      0.1093
     49  NZ         3.8680   -1.1330  -27.3750 N.3   296  LYS296     -0.1314
     50  N         -1.6040   -4.1680  -23.0490 N.am  297  SER297     -0.1950
     51  CA        -2.8150   -4.4180  -22.2720 C.3   297  SER297      0.1924
     52  C         -3.9380   -3.4920  -22.6950 C.2   297  SER297      0.2314
     53  O         -4.4470   -2.6930  -21.9040 O.2   297  SER297     -0.2863
     54  CB        -2.5650   -4.4230  -20.7680 C.3   297  SER297      0.2116
     55  OG        -3.5520   -5.2670  -20.1960 O.3   297  SER297     -0.2180
     56  N         -7.5170   -2.6210  -23.5950 N.3   299  ASN299     -0.1240
     57  CA        -8.9150   -2.9510  -23.3300 C.3   299  ASN299      0.1653
     58  C         -9.7080   -2.8210  -24.6150 C.2   299  ASN299      0.2266
     59  O        -10.5700   -3.6520  -24.8940 O.2   299  ASN299     -0.2867
     60  CB        -9.4880   -2.0630  -22.2110 C.3   299  ASN299      0.1155
     61  CG        -8.8470   -2.3470  -20.8610 C.2   299  ASN299      0.2627
     62  OD1       -8.3300   -3.4380  -20.6030 O.2   299  ASN299     -0.2716
     63  ND2       -8.7840   -1.3560  -20.0030 N.am  299  ASN299     -0.0877
     64  N        -12.1570   -7.9470  -20.8360 N.3   355  TYR355     -0.1227
     65  CA       -11.0460   -7.3500  -20.1090 C.3   355  TYR355      0.1736
     66  C        -11.1130   -7.4650  -18.5610 C.2   355  TYR355      0.2596
     67  O        -10.3310   -6.8180  -17.8440 O.2   355  TYR355     -0.2718
     68  CB       -10.6350   -5.9670  -20.6340 C.3   355  TYR355      0.0548
     69  CG       -11.6730   -4.8810  -20.5540 C.ar  355  TYR355     -0.0200
     70  CD1      -12.3220   -4.4280  -21.7010 C.ar  355  TYR355     -0.0009
     71  CD2      -11.9190   -4.2090  -19.3590 C.ar  355  TYR355     -0.0009
     72  CE1      -13.2260   -3.3680  -21.6510 C.ar  355  TYR355      0.0417
     73  CE2      -12.8040   -3.1250  -19.3040 C.ar  355  TYR355      0.0417
     74  CZ       -13.4420   -2.7010  -20.4590 C.ar  355  TYR355      0.1957
     75  OH       -14.3350   -1.6590  -20.4270 O.3   355  TYR355     -0.2866
     76  N        -12.0200   -8.3150  -18.0800 N.am  356  GLY356     -0.1942
     77  CA       -12.1300   -8.6480  -16.6630 C.3   356  GLY356      0.2014
     78  C        -12.6800   -7.6170  -15.7150 C.2   356  GLY356      0.2638
     79  O        -12.4540   -7.7180  -14.5040 O.2   356  GLY356     -0.2714
     80  N        -13.4530   -6.6630  -16.2330 N.am  357  TYR357     -0.1973
     81  CA       -14.0710   -5.6450  -15.3880 C.3   357  TYR357      0.1639
     82  C        -15.3230   -6.1660  -14.6690 C.2   357  TYR357      0.2290
     83  O        -15.4990   -5.9150  -13.4810 O.2   357  TYR357     -0.2864
     84  CB       -14.3790   -4.3690  -16.1810 C.3   357  TYR357      0.0560
     85  CG       -15.1310   -3.3180  -15.3920 C.ar  357  TYR357     -0.0198
     86  CD1      -14.4530   -2.3980  -14.5970 C.ar  357  TYR357     -0.0009
     87  CD2      -16.5200   -3.2190  -15.4690 C.ar  357  TYR357     -0.0009
     88  CE1      -15.1370   -1.4150  -13.8820 C.ar  357  TYR357      0.0417
     89  CE2      -17.2160   -2.2340  -14.7620 C.ar  357  TYR357      0.0417
     90  CZ       -16.5190   -1.3420  -13.9610 C.ar  357  TYR357      0.1957
     91  OH       -17.1850   -0.3730  -13.2440 O.3   357  TYR357     -0.2866
     92  N          0.8480  -12.4380  -17.3340 N.3   432  LYS432     -0.1231
     93  CA         0.1080  -11.2310  -17.6270 C.3   432  LYS432      0.1693
     94  C         -0.1060  -10.4580  -16.3270 C.2   432  LYS432      0.2593
     95  O         -0.4760  -11.0290  -15.2940 O.2   432  LYS432     -0.2718
     96  CB        -1.2400  -11.5840  -18.3080 C.3   432  LYS432      0.0285
     97  CG        -2.0910  -10.3770  -18.7150 C.3   432  LYS432      0.0035
     98  CD        -1.4850   -9.5040  -19.8210 C.3   432  LYS432      0.0206
     99  CE        -2.2770   -8.2260  -20.0120 C.3   432  LYS432      0.1093
    100  NZ        -1.9760   -7.2260  -18.9410 N.3   432  LYS432     -0.1314
    101  N          0.1160   -9.1570  -16.3890 N.am  433  SER433     -0.1938
    102  CA        -0.0970   -8.2940  -15.2520 C.3   433  SER433      0.2055
    103  C         -1.5530   -7.8410  -15.2350 C.2   433  SER433      0.2644
    104  O         -2.2820   -8.0360  -16.2020 O.2   433  SER433     -0.2714
    105  CB         0.8650   -7.1090  -15.3000 C.3   433  SER433      0.2130
    106  OG         0.3470   -6.1090  -16.1500 O.3   433  SER433     -0.2179
    107  N         -1.9600   -7.2690  -14.1180 N.am  434  GLY434     -0.1939
    108  CA        -3.2840   -6.7030  -13.9290 C.3   434  GLY434      0.2014
    109  C         -3.2000   -5.5280  -12.9790 C.2   434  GLY434      0.2640
    110  O         -2.3340   -5.4940  -12.1000 O.2   434  GLY434     -0.2714
    111  N         -4.0530   -4.5330  -13.1950 N.am  435  THR435     -0.1936
    112  CA        -4.2090   -3.3630  -12.3240 C.3   435  THR435      0.2028
    113  C         -5.6940   -3.0790  -12.3450 C.2   435  THR435      0.2642
    114  O         -6.2540   -2.8840  -13.4230 O.2   435  THR435     -0.2714
    115  CB        -3.3800   -2.1500  -12.7610 C.3   435  THR435      0.1808
    116  OG1       -2.0670   -2.5770  -13.0850 O.3   435  THR435     -0.2208
    117  CG2       -3.2950   -1.0810  -11.6660 C.3   435  THR435      0.0379
    118  N         -6.3410   -3.1160  -11.1750 N.am  436  ALA436     -0.1963
    119  CA        -7.7630   -2.8580  -11.0790 C.3   436  ALA436      0.1728
    120  C         -8.0190   -1.6720  -10.1840 C.2   436  ALA436      0.2616
    121  O         -7.5150   -1.6300   -9.0600 O.2   436  ALA436     -0.2715
    122  CB        -8.4960   -4.0930  -10.5500 C.3   436  ALA436      0.0334
    123  N         -8.8030   -0.7060  -10.6780 N.am  437  ARG437     -0.1977
    124  CA        -9.2140    0.4540   -9.8920 C.3   437  ARG437      0.1597
    125  C        -10.4140   -0.0310   -9.0990 C.2   437  ARG437      0.2287
    126  O        -11.3870   -0.5070   -9.6890 O.2   437  ARG437     -0.2864
    127  CB        -9.6240    1.6380  -10.7870 C.3   437  ARG437      0.0334
    128  CG        -9.4780    2.9880  -10.0770 C.3   437  ARG437      0.0492
    129  CD       -10.2980    4.1040  -10.7050 C.3   437  ARG437      0.2205
    130  NE        -9.8930    4.3890  -12.0840 N.pl3 437  ARG437     -0.0865
    131  CZ       -10.7330    4.5000  -13.1090 C.cat 437  ARG437      0.5346
    132  NH1      -12.0420    4.3690  -12.9230 N.pl3 437  ARG437      0.1354
    133  NH2      -10.2720    4.7530  -14.3270 N.pl3 437  ARG437      0.1354
    134  N         -6.2900    0.9080   -5.5920 N.3   441  TYR441     -0.1241
    135  CA        -5.9190   -0.0780   -6.6080 C.3   441  TYR441      0.1605
    136  C         -5.6040   -1.4500   -6.0730 C.2   441  TYR441      0.2264
    137  O         -5.1530   -1.6070   -4.9510 O.2   441  TYR441     -0.2867
    138  CB        -4.6940    0.3980   -7.4310 C.3   441  TYR441      0.0534
    139  CG        -4.8810    1.7330   -8.1160 C.ar  441  TYR441     -0.0201
    140  CD1       -5.5840    1.8330   -9.3150 C.ar  441  TYR441     -0.0009
    141  CD2       -4.3620    2.9010   -7.5620 C.ar  441  TYR441     -0.0009
    142  CE1       -5.7920    3.0680   -9.9310 C.ar  441  TYR441      0.0417
    143  CE2       -4.5470    4.1380   -8.1780 C.ar  441  TYR441      0.0417
    144  CZ        -5.2580    4.2160   -9.3640 C.ar  441  TYR441      0.1957
    145  OH        -5.4400    5.4330   -9.9690 O.3   441  TYR441     -0.2866
    146  N          1.6640    1.8140   -8.7890 N.3   470  TYR470     -0.1227
    147  CA         0.6420    0.8670   -8.3150 C.3   470  TYR470      0.1736
    148  C          0.2810   -0.2050   -9.3690 C.2   470  TYR470      0.2595
    149  O         -0.5180   -1.1060   -9.0810 O.2   470  TYR470     -0.2718
    150  CB        -0.6340    1.6140   -7.8750 C.3   470  TYR470      0.0548
    151  CG        -1.1050    2.6340   -8.8890 C.ar  470  TYR470     -0.0200
    152  CD1       -1.8250    2.2460  -10.0180 C.ar  470  TYR470     -0.0009
    153  CD2       -0.8130    3.9860   -8.7320 C.ar  470  TYR470     -0.0009
    154  CE1       -2.2400    3.1760  -10.9650 C.ar  470  TYR470      0.0417
    155  CE2       -1.2160    4.9270   -9.6800 C.ar  470  TYR470      0.0417
    156  CZ        -1.9330    4.5170  -10.7930 C.ar  470  TYR470      0.1957
    157  OH        -2.3440    5.4400  -11.7250 O.3   470  TYR470     -0.2866
    158  N          0.8380   -0.0890  -10.5860 N.am  471  PHE471     -0.1962
    159  CA         0.5770   -1.0320  -11.6770 C.3   471  PHE471      0.1771
    160  C          1.0910   -2.4230  -11.3500 C.2   471  PHE471      0.2620
    161  O          2.1650   -2.5550  -10.7650 O.2   471  PHE471     -0.2715
    162  CB         1.2020   -0.5480  -12.9940 C.3   471  PHE471      0.0574
    163  CG         0.6900    0.7930  -13.4540 C.ar  471  PHE471     -0.0200
    164  CD1       -0.5500    0.9060  -14.0830 C.ar  471  PHE471     -0.0042
    165  CD2        1.4420    1.9500  -13.2530 C.ar  471  PHE471     -0.0042
    166  CE1       -1.0220    2.1530  -14.5140 C.ar  471  PHE471     -0.0003
    167  CE2        0.9700    3.1940  -13.6900 C.ar  471  PHE471     -0.0003
    168  CZ        -0.2540    3.2840  -14.3230 C.ar  471  PHE471     -0.0000
    169  N          0.3350   -3.4370  -11.7680 N.am  472  GLY472     -0.1940
    170  CA         0.6830   -4.8440  -11.5740 C.3   472  GLY472      0.2014
    171  C          2.0700   -5.2340  -12.0460 C.2   472  GLY472      0.2639
    172  O          2.7670   -5.9760  -11.3580 O.2   472  GLY472     -0.2714
    173  N          2.4840   -4.7020  -13.1920 N.am  473  GLY473     -0.1954
    174  CA         3.8020   -4.9640  -13.7580 C.3   473  GLY473      0.1869
    175  C          4.9570   -4.3610  -12.9790 C.2   473  GLY473      0.2309
    176  O          6.1150   -4.7140  -13.2020 O.2   473  GLY473     -0.2863
@<TRIPOS>BOND
     1    49    48    1
     2    48    47    1
     3    40    38    1
     4    46    47    1
     5    46    45    1
     6    45    42    1
     7    38    37    1
     8    37    39    1
     9    37    34    1
    10    30    29    2
    11    59    58    2
    12    58    57    1
    13    33    34    1
    14    41    42    1
    15    41    35   am
    16    29    28    1
    17    42    43    1
    18    34    35    1
    19    32    31    1
    20    56    57    1
    21    35    36    2
    22    57    60    1
    23    43    50   am
    24    43    44    2
    25    31    28    1
    26    28    27    1
    27    50    51    1
    28    52    51    1
    29    52    53    2
    30    51    54    1
    31    60    61    1
    32    27    22   am
    33    70    72   ar
    34    70    69   ar
    35    72    74   ar
    36    23    22    2
    37    22    21    1
    38    20    21    1
    39    61    62    2
    40    61    63   am
    41    64    65    1
    42    54    55    1
    43    68    69    1
    44    68    65    1
    45    69    71   ar
    46    21    24    1
    47    74    75    1
    48    74    73   ar
    49    65    66    1
    50    99    98    1
    51    99   100    1
    52    98    97    1
    53    71    73   ar
    54    24    25    1
    55    24    26    1
    56    97    96    1
    57    66    76   am
    58    66    67    2
    59    17    16    2
    60    96    93    1
    61    76    77    1
    62    19    18    1
    63    18    15    1
    64    93    92    1
    65    93    94    1
    66    15    16    1
    67    15    14    1
    68    77    78    1
    69   101    94   am
    70   101   102    1
    71    13    12    2
    72    14    12   am
    73    94    95    2
    74    80    78   am
    75    80    81    1
    76   104   103    2
    77    84    85    1
    78    84    81    1
    79   106   105    1
    80    12    11    1
    81    78    79    2
    82    87    85   ar
    83    87    89   ar
    84    85    86   ar
    85    81    82    1
    86   105   102    1
    87   102   103    1
    88   103   107   am
    89    89    90   ar
    90    11    10    1
    91    82    83    2
    92    86    88   ar
    93   166   168   ar
    94   166   164   ar
    95   133   131    1
    96   168   167   ar
    97   107   108    1
    98   164   163   ar
    99    90    88   ar
   100    90    91    1
   101   108   109    1
   102   174   173    1
   103   174   175    1
   104   167   165   ar
   105   163   165   ar
   106   163   162    1
   107   114   113    2
   108   176   175    2
   109   111   109   am
   110   111   112    1
   111   173   171   am
   112   131   132    1
   113   131   130    2
   114   116   115    1
   115   162   159    1
   116   109   110    2
   117   115   112    1
   118   115   117    1
   119   113   112    1
   120   113   118   am
   121   130   129    1
   122   171   170    1
   123   171   172    2
   124     9     7   ar
   125   169   170    1
   126   169   160   am
   127   157   156    1
   128   159   160    1
   129   159   158    1
   130   160   161    2
   131   118   119    1
   132   119   122    1
   133   119   120    1
   134   154   156   ar
   135   154   152   ar
   136   156   155   ar
   137   127   128    1
   138   127   124    1
   139     3     4    2
   140     3     2    1
   141   129   128    1
   142   123   120   am
   143   123   124    1
   144     5     2    1
   145     5     6    1
   146   158   148   am
   147     7     6    1
   148     7     8   ar
   149   120   121    2
   150     2     1    1
   151   152   151   ar
   152   145   144    1
   153   142   144   ar
   154   142   140   ar
   155   124   125    1
   156   126   125    2
   157   155   153   ar
   158   148   149    2
   159   148   147    1
   160   144   143   ar
   161   140   139   ar
   162   151   153   ar
   163   151   150    1
   164   146   147    1
   165   147   150    1
   166   143   141   ar
   167   139   141   ar
   168   139   138    1
   169   138   135    1
   170   135   136    1
   171   135   134    1
   172   136   137    2
