@<TRIPOS>MOLECULE
tmp/4l0mA00.pdb
 109 104 0 0 0
SMALL
GASTEIGER

@<TRIPOS>ATOM
      1  N         11.0560    2.3940  104.0110 N.3    77  SER77      -0.1202
      2  CA        10.1580    1.3500  103.6100 C.3    77  SER77       0.2020
      3  C          8.8040    1.4890  104.3130 C.2    77  SER77       0.2619
      4  O          8.7160    2.0970  105.3890 O.2    77  SER77      -0.2717
      5  CB        10.8020    0.0090  103.9410 C.3    77  SER77       0.2103
      6  OG        11.0050   -0.0960  105.3380 O.3    77  SER77      -0.2182
      7  N          7.7610    0.9440  103.6970 N.am   78  SER78      -0.1937
      8  CA         6.4250    0.9860  104.2320 C.3    78  SER78       0.2055
      9  C          5.6690   -0.2960  103.9180 C.2    78  SER78       0.2643
     10  O          5.9620   -0.9750  102.9320 O.2    78  SER78      -0.2714
     11  CB         5.6910    2.2120  103.6570 C.3    78  SER78       0.2130
     12  OG         4.3650    2.3550  104.1280 O.3    78  SER78      -0.2179
     13  N          4.6670   -0.5860  104.7400 N.am   79  GLY79      -0.1954
     14  CA         3.7880   -1.7280  104.5260 C.3    79  GLY79       0.1869
     15  C          2.4910   -1.2660  103.9100 C.2    79  GLY79       0.2309
     16  O          1.7930   -0.4570  104.4870 O.2    79  GLY79      -0.2863
     17  N          4.7490   -1.1470  116.0700 N.3   155  GLN155     -0.1231
     18  CA         4.6780   -2.5890  115.7440 C.3   155  GLN155      0.1698
     19  C          4.9620   -2.8040  114.2830 C.2   155  GLN155      0.2592
     20  O          4.6450   -1.9340  113.4630 O.2   155  GLN155     -0.2718
     21  CB         3.2860   -3.1540  116.0260 C.3   155  GLN155      0.0381
     22  CG         2.7490   -2.9230  117.4180 C.3   155  GLN155      0.0905
     23  CD         1.2830   -3.2870  117.5010 C.2   155  GLN155      0.2608
     24  OE1        0.8940   -4.3630  117.0530 O.2   155  GLN155     -0.2717
     25  NE2        0.4570   -2.3950  118.0530 N.am  155  GLN155     -0.0878
     26  N          5.5910   -3.9410  113.9610 N.am  156  PHE156     -0.1962
     27  CA         5.6950   -4.4130  112.5830 C.3   156  PHE156      0.1771
     28  C          4.3970   -5.0800  112.2680 C.2   156  PHE156      0.2619
     29  O          4.0760   -6.0950  112.8680 O.2   156  PHE156     -0.2715
     30  CB         6.8020   -5.4440  112.3790 C.3   156  PHE156      0.0574
     31  CG         6.8520   -5.9870  110.9690 C.ar  156  PHE156     -0.0200
     32  CD1        7.4090   -5.2360  109.9450 C.ar  156  PHE156     -0.0042
     33  CD2        6.3420   -7.2440  110.6680 C.ar  156  PHE156     -0.0042
     34  CE1        7.4620   -5.7130  108.6510 C.ar  156  PHE156     -0.0003
     35  CE2        6.3860   -7.7310  109.3700 C.ar  156  PHE156     -0.0003
     36  CZ         6.9420   -6.9670  108.3580 C.ar  156  PHE156     -0.0000
     37  N          3.6570   -4.5170  111.3280 N.am  157  VAL157     -0.1977
     38  CA         2.2920   -4.9200  111.1010 C.3   157  VAL157      0.1596
     39  C          2.2550   -6.2240  110.2700 C.2   157  VAL157      0.2287
     40  O          2.9610   -6.3640  109.2500 O.2   157  VAL157     -0.2864
     41  CB         1.4730   -3.8050  110.4420 C.3   157  VAL157      0.0276
     42  CG1        0.0470   -4.2440  110.2270 C.3   157  VAL157      0.0022
     43  CG2        1.4660   -2.5560  111.3190 C.3   157  VAL157      0.0022
     44  N          1.5580    1.8060  106.3360 N.3   176  VAL176     -0.1231
     45  CA         2.0210    1.9130  107.7020 C.3   176  VAL176      0.1692
     46  C          3.5040    2.0040  107.7390 C.2   176  VAL176      0.2592
     47  O          4.2000    1.5610  106.7940 O.2   176  VAL176     -0.2718
     48  CB         1.6180    0.6850  108.5660 C.3   176  VAL176      0.0266
     49  CG1        0.1060    0.5640  108.6570 C.3   176  VAL176      0.0020
     50  CG2        2.2390   -0.6110  108.0590 C.3   176  VAL176      0.0020
     51  N          3.9720    2.5370  108.8750 N.am  177  ASP177     -0.1974
     52  CA         5.3710    2.6570  109.1830 C.3   177  ASP177      0.1709
     53  C          5.5300    2.7530  110.7060 C.2   177  ASP177      0.2293
     54  O          4.5560    2.7550  111.4270 O.2   177  ASP177     -0.2864
     55  CB         6.0040    3.8230  108.3770 C.3   177  ASP177      0.1436
     56  CG         5.5950    5.1860  108.8710 C.2   177  ASP177      0.3671
     57  OD1        5.2850    5.3030  110.0740 O.co2 177  ASP177     -0.2456
     58  OD2        5.6300    6.1620  108.0440 O.co2 177  ASP177     -0.2456
     59  N          7.9660    7.1310  101.0940 N.3   197  ARG197     -0.1245
     60  CA         8.4030    5.7610  101.3310 C.3   197  ARG197      0.1563
     61  C          8.1300    4.9430  100.0820 C.2   197  ARG197      0.2260
     62  O          7.6260    5.4490   99.0720 O.2   197  ARG197     -0.2867
     63  CB         7.7060    5.1820  102.5790 C.3   197  ARG197      0.0307
     64  CG         8.1950    5.8050  103.8800 C.3   197  ARG197      0.0489
     65  CD         7.4270    5.3400  105.0600 C.3   197  ARG197      0.2205
     66  NE         7.8100    5.9330  106.3340 N.pl3 197  ARG197     -0.0865
     67  CZ         8.7840    5.4780  107.1330 C.cat 197  ARG197      0.5346
     68  NH1        9.4980    4.4200  106.7910 N.pl3 197  ARG197      0.1354
     69  NH2        9.0220    6.0570  108.2970 N.pl3 197  ARG197      0.1354
     70  N          7.5510   -2.1900  100.7180 N.3   200  SER200     -0.1202
     71  CA         8.4260   -3.3610  100.8390 C.3   200  SER200      0.2020
     72  C          7.6230   -4.6330  100.9900 C.2   200  SER200      0.2618
     73  O          8.1260   -5.7350  100.8120 O.2   200  SER200     -0.2717
     74  CB         9.3370   -3.2170  102.0660 C.3   200  SER200      0.2103
     75  OG         8.5410   -2.9760  103.2220 O.3   200  SER200     -0.2182
     76  N          6.3770   -4.4950  101.3620 N.am  201  ASP201     -0.1973
     77  CA         5.6110   -5.6390  101.7040 C.3   201  ASP201      0.1709
     78  C          4.1900   -5.2240  101.8680 C.2   201  ASP201      0.2293
     79  O          3.8880   -4.0420  102.0060 O.2   201  ASP201     -0.2864
     80  CB         6.1060   -6.3000  102.9950 C.3   201  ASP201      0.1436
     81  CG         5.9870   -5.3900  104.2170 C.2   201  ASP201      0.3671
     82  OD1        6.9520   -4.6260  104.4310 O.co2 201  ASP201     -0.2456
     83  OD2        4.9790   -5.4870  104.9630 O.co2 201  ASP201     -0.2456
     84  N          1.1570   -6.2900  104.3740 N.3   203  PRO203     -0.2116
     85  CA         0.7470   -6.9210  105.6400 C.3   203  PRO203      0.1372
     86  C         -0.3090   -8.0330  105.5670 C.2   203  PRO203      0.2244
     87  O         -0.1490   -9.0450  106.2710 O.2   203  PRO203     -0.2868
     88  CB         0.2080   -5.7310  106.4420 C.3   203  PRO203      0.0268
     89  CG         1.1350   -4.6360  106.0640 C.3   203  PRO203      0.0207
     90  CD         1.4630   -4.8590  104.6010 C.3   203  PRO203      0.0892
     91  N          4.7050  -11.7650  105.2840 N.3   208  ASN208     -0.1240
     92  CA         5.1050  -10.4320  104.7870 C.3   208  ASN208      0.1653
     93  C          6.4790   -9.9900  105.2820 C.2   208  ASN208      0.2266
     94  O          7.1700   -9.2270  104.5930 O.2   208  ASN208     -0.2867
     95  CB         4.0210   -9.3800  105.0540 C.3   208  ASN208      0.1155
     96  CG         3.9750   -8.9360  106.5000 C.2   208  ASN208      0.2627
     97  OD1        3.7840   -9.7530  107.4010 O.2   208  ASN208     -0.2716
     98  ND2        4.1420   -7.6310  106.7320 N.am  208  ASN208     -0.0877
     99  N          9.3500   -8.2860  103.2280 N.3   212  PHE212     -0.1241
    100  CA         9.9860   -7.1290  103.8480 C.3   212  PHE212      0.1605
    101  C         11.5060   -7.2770  103.7680 C.2   212  PHE212      0.2264
    102  O         12.2040   -6.3660  103.3050 O.2   212  PHE212     -0.2867
    103  CB         9.4960   -6.9100  105.2930 C.3   212  PHE212      0.0534
    104  CG        10.2940   -5.8850  106.0270 C.ar  212  PHE212     -0.0203
    105  CD1       10.0210   -4.5280  105.8620 C.ar  212  PHE212     -0.0042
    106  CD2       11.3780   -6.2570  106.8180 C.ar  212  PHE212     -0.0042
    107  CE1       10.7890   -3.5800  106.5050 C.ar  212  PHE212     -0.0003
    108  CE2       12.1460   -5.3060  107.4680 C.ar  212  PHE212     -0.0003
    109  CZ        11.8510   -3.9680  107.3050 C.ar  212  PHE212     -0.0000
@<TRIPOS>BOND
     1    62    61    2
     2    61    60    1
     3    70    71    1
     4    73    72    2
     5    71    72    1
     6    71    74    1
     7    72    76   am
     8    59    60    1
     9    60    63    1
    10    76    77    1
    11    77    78    1
    12    77    80    1
    13    78    79    2
    14    74    75    1
    15    63    64    1
    16    10     9    2
    17    80    81    1
    18    99   100    1
    19   102   101    2
    20     2     5    1
    21     2     1    1
    22     2     3    1
    23    11    12    1
    24    11     8    1
    25     7     8    1
    26     7     3   am
    27   101   100    1
    28   100   103    1
    29    64    65    1
    30    15    16    2
    31    15    14    1
    32     9     8    1
    33     9    13   am
    34     5     6    1
    35    81    82   ar
    36    81    83   ar
    37     3     4    2
    38    84    90    1
    39    84    85    1
    40    14    13    1
    41    94    93    2
    42    90    89    1
    43    92    95    1
    44    92    93    1
    45    92    91    1
    46    95    96    1
    47    65    66    1
    48   103   104    1
    49    86    85    1
    50    86    87    2
    51    85    88    1
    52   105   104   ar
    53   105   107   ar
    54   104   106   ar
    55    89    88    1
    56    66    67    2
    57    44    45    1
    58    96    98   am
    59    96    97    2
    60   107   109   ar
    61    68    67    1
    62    47    46    2
    63   106   108   ar
    64    67    69    1
    65   109   108   ar
    66    45    46    1
    67    45    48    1
    68    46    51   am
    69    58    56   ar
    70    50    48    1
    71    36    34   ar
    72    36    35   ar
    73    55    56    1
    74    55    52    1
    75    48    49    1
    76    34    32   ar
    77    56    57   ar
    78    51    52    1
    79    52    53    1
    80    40    39    2
    81    35    33   ar
    82    32    31   ar
    83    42    41    1
    84    39    38    1
    85    41    38    1
    86    41    43    1
    87    33    31   ar
    88    53    54    2
    89    31    30    1
    90    38    37    1
    91    37    28   am
    92    28    27    1
    93    28    29    2
    94    30    27    1
    95    27    26    1
    96    20    19    2
    97    26    19   am
    98    19    18    1
    99    18    21    1
   100    18    17    1
   101    21    22    1
   102    24    23    2
   103    22    23    1
   104    23    25   am
