@<TRIPOS>MOLECULE
tmp/4l0oA00.pdb
 118 109 0 0 0
SMALL
GASTEIGER

@<TRIPOS>ATOM
      1  N         54.4200   -7.8010  -37.1320 N.3    67  SER67      -0.1202
      2  CA        54.6410   -6.6950  -36.1890 C.3    67  SER67       0.2020
      3  C         53.3090   -6.1150  -35.7210 C.2    67  SER67       0.2619
      4  O         52.3040   -6.1940  -36.4350 O.2    67  SER67      -0.2717
      5  CB        55.4910   -5.5800  -36.8330 C.3    67  SER67       0.2103
      6  OG        54.6440   -4.6730  -37.5710 O.3    67  SER67      -0.2182
      7  N         53.3090   -5.5390  -34.5200 N.am   68  GLY68      -0.1942
      8  CA        52.1390   -4.8260  -33.9980 C.3    68  GLY68       0.2014
      9  C         51.5190   -3.8790  -35.0110 C.2    68  GLY68       0.2638
     10  O         50.3110   -3.9250  -35.2400 O.2    68  GLY68      -0.2714
     11  N         52.3480   -3.0300  -35.6240 N.am   69  LEU69      -0.1977
     12  CA        51.8910   -2.1210  -36.6830 C.3    69  LEU69       0.1596
     13  C         51.2200   -2.8460  -37.8430 C.2    69  LEU69       0.2287
     14  O         50.2170   -2.3700  -38.3730 O.2    69  LEU69      -0.2864
     15  CB        53.0440   -1.2820  -37.2380 C.3    69  LEU69       0.0297
     16  CG        53.6570   -0.1540  -36.4090 C.3    69  LEU69       0.0022
     17  CD1       54.6670    0.5650  -37.2850 C.3    69  LEU69       0.0001
     18  CD2       52.6090    0.8270  -35.9020 C.3    69  LEU69       0.0001
     19  N         47.6090   -3.7840  -36.7710 N.3    72  ILE72      -0.1245
     20  CA        46.8090   -2.5620  -36.7550 C.3    72  ILE72       0.1561
     21  C         46.5330   -2.0830  -38.1820 C.2    72  ILE72       0.2260
     22  O         45.4680   -1.5310  -38.4550 O.2    72  ILE72      -0.2867
     23  CB        47.4850   -1.4630  -35.9080 C.3    72  ILE72       0.0252
     24  CG1       47.4270   -1.8410  -34.4220 C.3    72  ILE72       0.0019
     25  CG2       46.8170   -0.1100  -36.1210 C.3    72  ILE72       0.0019
     26  CD1       48.5520   -1.2570  -33.5820 C.3    72  ILE72       0.0001
     27  N         49.7450    5.6340  -29.7800 N.3    92  TYR92      -0.1241
     28  CA        51.1170    5.2840  -30.1390 C.3    92  TYR92       0.1605
     29  C         51.5560    6.0560  -31.3870 C.2    92  TYR92       0.2264
     30  O         50.9340    5.9290  -32.4610 O.2    92  TYR92      -0.2867
     31  CB        51.2450    3.7670  -30.3490 C.3    92  TYR92       0.0534
     32  CG        52.5850    3.3050  -30.9010 C.ar   92  TYR92      -0.0201
     33  CD1       53.7710    3.5420  -30.2020 C.ar   92  TYR92      -0.0009
     34  CD2       52.6620    2.6150  -32.1160 C.ar   92  TYR92      -0.0009
     35  CE1       54.9960    3.1200  -30.7050 C.ar   92  TYR92       0.0417
     36  CE2       53.8830    2.1850  -32.6240 C.ar   92  TYR92       0.0417
     37  CZ        55.0450    2.4390  -31.9160 C.ar   92  TYR92       0.1957
     38  OH        56.2570    2.0130  -32.4170 O.3    92  TYR92      -0.2866
     39  N         42.9940    2.7440  -26.3050 N.3   135  GLU135     -0.1245
     40  CA        44.2730    2.2670  -25.8050 C.3   135  GLU135      0.1567
     41  C         44.3130    2.6070  -24.3190 C.2   135  GLU135      0.2260
     42  O         44.5070    3.7690  -23.9500 O.2   135  GLU135     -0.2867
     43  CB        45.4050    2.9760  -26.5610 C.3   135  GLU135      0.0388
     44  CG        46.8100    2.4030  -26.3690 C.3   135  GLU135      0.1160
     45  CD        47.8480    3.1580  -27.2000 C.2   135  GLU135      0.3649
     46  OE1       48.6130    3.9680  -26.6160 O.co2 135  GLU135     -0.2457
     47  OE2       47.8910    2.9610  -28.4410 O.co2 135  GLU135     -0.2457
     48  N         50.0240    5.3240  -23.1380 N.3   139  ASN139     -0.1240
     49  CA        51.4390    5.6720  -23.0960 C.3   139  ASN139      0.1653
     50  C         51.6200    7.1640  -23.3970 C.2   139  ASN139      0.2266
     51  O         51.0560    7.6640  -24.3670 O.2   139  ASN139     -0.2867
     52  CB        52.2200    4.8250  -24.1050 C.3   139  ASN139      0.1155
     53  CG        53.6960    5.1810  -24.1540 C.2   139  ASN139      0.2627
     54  OD1       54.5260    4.5030  -23.5480 O.2   139  ASN139     -0.2716
     55  ND2       54.0310    6.2540  -24.8740 N.am  139  ASN139     -0.0877
     56  N         43.6240   -1.3670  -28.3750 N.3   164  ASP164     -0.1239
     57  CA        45.0000   -1.8200  -28.1940 C.3   164  ASP164      0.1674
     58  C         45.2030   -2.2170  -26.7410 C.2   164  ASP164      0.2266
     59  O         45.2590   -1.3650  -25.8560 O.2   164  ASP164     -0.2867
     60  CB        46.0160   -0.7500  -28.6020 C.3   164  ASP164      0.1410
     61  CG        47.4590   -1.1760  -28.3340 C.2   164  ASP164      0.3668
     62  OD1       47.6860   -2.1880  -27.6320 O.co2 164  ASP164     -0.2456
     63  OD2       48.3780   -0.4880  -28.8270 O.co2 164  ASP164     -0.2456
     64  N         47.8460   -3.9160  -25.4520 N.3   166  THR166     -0.1203
     65  CA        49.2580   -4.2580  -25.2050 C.3   166  THR166      0.1994
     66  C         49.6850   -4.0750  -23.7420 C.2   166  THR166      0.2617
     67  O         50.1250   -5.0320  -23.1020 O.2   166  THR166     -0.2717
     68  CB        50.2190   -3.4690  -26.1250 C.3   166  THR166      0.1784
     69  OG1       49.8640   -3.6880  -27.4950 O.3   166  THR166     -0.2211
     70  CG2       51.6560   -3.9120  -25.9120 C.3   166  THR166      0.0376
     71  N         49.5440   -2.8530  -23.2260 N.am  167  PHE167     -0.1975
     72  CA        50.0300   -2.5020  -21.8870 C.3   167  PHE167      0.1639
     73  C         49.4620   -3.3970  -20.7960 C.2   167  PHE167      0.2290
     74  O         50.2170   -4.0700  -20.1020 O.2   167  PHE167     -0.2864
     75  CB        49.7470   -1.0280  -21.5730 C.3   167  PHE167      0.0560
     76  CG        50.8520   -0.0940  -21.9850 C.ar  167  PHE167     -0.0200
     77  CD1       51.5830   -0.3140  -23.1510 C.ar  167  PHE167     -0.0042
     78  CD2       51.1500    1.0300  -21.2140 C.ar  167  PHE167     -0.0042
     79  CE1       52.5980    0.5570  -23.5270 C.ar  167  PHE167     -0.0003
     80  CE2       52.1610    1.9080  -21.5880 C.ar  167  PHE167     -0.0003
     81  CZ        52.8870    1.6690  -22.7440 C.ar  167  PHE167     -0.0000
     82  N         50.7450   -5.6240  -29.6120 N.3   186  SER186     -0.1217
     83  CA        52.1220   -5.7350  -30.0080 C.3   186  SER186      0.1889
     84  C         52.6810   -6.9050  -29.2090 C.2   186  SER186      0.2288
     85  O         52.8910   -6.7940  -28.0020 O.2   186  SER186     -0.2866
     86  CB        52.8700   -4.4520  -29.6770 C.3   186  SER186      0.2089
     87  OG        54.2640   -4.6490  -29.8430 O.3   186  SER186     -0.2183
     88  N         55.4950   -7.9900  -29.4630 N.3   188  THR188     -0.1203
     89  CA        56.8680   -7.5610  -29.2010 C.3   188  THR188      0.1994
     90  C         57.1280   -7.2620  -27.7160 C.2   188  THR188      0.2617
     91  O         58.2700   -7.3250  -27.2480 O.2   188  THR188     -0.2717
     92  CB        57.1990   -6.3040  -30.0430 C.3   188  THR188      0.1784
     93  OG1       56.7140   -6.4780  -31.3820 O.3   188  THR188     -0.2211
     94  CG2       58.6990   -6.0300  -30.0840 C.3   188  THR188      0.0376
     95  N         56.0630   -6.9560  -26.9800 N.am  189  LYS189     -0.1979
     96  CA        56.1970   -6.4700  -25.6090 C.3   189  LYS189      0.1596
     97  C         55.9740   -7.5670  -24.5840 C.2   189  LYS189      0.2287
     98  O         56.6950   -8.5660  -24.5830 O.2   189  LYS189     -0.2864
     99  CB        55.2550   -5.2840  -25.3650 C.3   189  LYS189      0.0298
    100  CG        55.7720   -3.9690  -25.9180 C.3   189  LYS189      0.0038
    101  CD        55.8070   -3.9730  -27.4310 C.3   189  LYS189      0.0206
    102  CE        56.6880   -2.8630  -27.9620 C.3   189  LYS189      0.1093
    103  NZ        56.0590   -1.5380  -27.6740 N.3   189  LYS189     -0.1314
    104  N         59.7290   -9.6100  -32.5560 N.3   198  VAL198     -0.1245
    105  CA        58.8770   -8.5370  -33.0730 C.3   198  VAL198      0.1561
    106  C         57.6330   -9.1670  -33.7050 C.2   198  VAL198      0.2260
    107  O         57.7480   -9.9280  -34.6740 O.2   198  VAL198     -0.2867
    108  CB        59.6140   -7.6600  -34.1160 C.3   198  VAL198      0.0252
    109  CG1       58.7180   -6.5340  -34.6100 C.3   198  VAL198      0.0019
    110  CG2       60.8940   -7.0840  -33.5340 C.3   198  VAL198      0.0019
    111  N         59.7260   -1.8080  -24.4450 N.3   317  LEU317     -0.1245
    112  CA        59.0870   -1.9730  -23.1410 C.3   317  LEU317      0.1561
    113  C         58.5590   -3.4060  -23.0000 C.2   317  LEU317      0.2260
    114  O         58.5190   -4.1480  -23.9760 O.2   317  LEU317     -0.2867
    115  CB        57.9570   -0.9430  -22.9700 C.3   317  LEU317      0.0270
    116  CG        56.8230   -0.8890  -24.0070 C.3   317  LEU317      0.0019
    117  CD1       55.6160   -1.6920  -23.5360 C.3   317  LEU317      0.0001
    118  CD2       56.4140    0.5480  -24.2610 C.3   317  LEU317      0.0001
@<TRIPOS>BOND
     1    22    21    2
     2    14    13    2
     3    21    20    1
     4    13    12    1
     5     6     5    1
     6    17    16    1
     7    15    12    1
     8    15    16    1
     9     1     2    1
    10     5     2    1
    11    19    20    1
    12    20    23    1
    13    12    11    1
    14     4     3    2
    15    16    18    1
    16     2     3    1
    17    25    23    1
    18    23    24    1
    19     3     7   am
    20    11     9   am
    21    10     9    2
    22     9     8    1
    23   107   106    2
    24   109   108    1
    25     7     8    1
    26    24    26    1
    27   108   110    1
    28   108   105    1
    29   106   105    1
    30   105   104    1
    31    36    34   ar
    32    36    37   ar
    33    30    29    2
    34    38    37    1
    35    34    32   ar
    36    37    35   ar
    37    29    28    1
    38    93    92    1
    39    32    31    1
    40    32    33   ar
    41    35    33   ar
    42    31    28    1
    43    28    27    1
    44    94    92    1
    45    92    89    1
    46    83    86    1
    47    83    82    1
    48    83    84    1
    49    87    86    1
    50    88    89    1
    51    84    85    2
    52    89    90    1
    53    63    61   ar
    54    60    61    1
    55    60    57    1
    56    47    45   ar
    57    56    57    1
    58    61    62   ar
    59    57    58    1
    60   102   103    1
    61   102   101    1
    62    90    91    2
    63    90    95   am
    64    69    68    1
    65   101   100    1
    66    45    46   ar
    67    45    44    1
    68    95    96    1
    69    58    59    2
    70    43    44    1
    71    43    40    1
    72    39    40    1
    73    68    70    1
    74    68    65    1
    75   100    99    1
    76    40    41    1
    77    96    99    1
    78    96    97    1
    79    64    65    1
    80    65    66    1
    81    55    53   am
    82    97    98    2
    83   111   112    1
    84    51    50    2
    85    41    42    2
    86   118   116    1
    87    53    52    1
    88    53    54    2
    89    52    49    1
    90   116   117    1
    91   116   115    1
    92   114   113    2
    93    66    71   am
    94    66    67    2
    95    79    77   ar
    96    79    81   ar
    97    50    49    1
    98    71    72    1
    99    77    76   ar
   100   112   113    1
   101   112   115    1
   102    48    49    1
   103    81    80   ar
   104    76    75    1
   105    76    78   ar
   106    72    75    1
   107    72    73    1
   108    80    78   ar
   109    73    74    2
