@<TRIPOS>MOLECULE
tmp/4l0oE00.pdb
 135 126 0 0 0
SMALL
GASTEIGER

@<TRIPOS>ATOM
      1  N         81.2470   25.7020  -47.0940 N.3    69  SER69      -0.1202
      2  CA        81.0480   26.9090  -46.2960 C.3    69  SER69       0.2020
      3  C         79.6490   26.8610  -45.7060 C.2    69  SER69       0.2619
      4  O         78.8050   26.0690  -46.1510 O.2    69  SER69      -0.2717
      5  CB        81.1520   28.1450  -47.1810 C.3    69  SER69       0.2103
      6  OG        80.1800   28.0700  -48.2150 O.3    69  SER69      -0.2182
      7  N         79.3980   27.7200  -44.7210 N.am   70  GLY70      -0.1942
      8  CA        78.0680   27.8560  -44.1360 C.3    70  GLY70       0.2014
      9  C         77.0150   28.1140  -45.1990 C.2    70  GLY70       0.2638
     10  O         75.9510   27.4910  -45.1950 O.2    70  GLY70      -0.2714
     11  N         77.3350   29.0210  -46.1220 N.am   71  LEU71      -0.1977
     12  CA        76.4200   29.4210  -47.1870 C.3    71  LEU71       0.1596
     13  C         76.1130   28.3140  -48.1820 C.2    71  LEU71       0.2287
     14  O         74.9810   28.2200  -48.6630 O.2    71  LEU71      -0.2864
     15  CB        76.9490   30.6540  -47.9170 C.3    71  LEU71       0.0297
     16  CG        76.7010   31.9780  -47.1940 C.3    71  LEU71       0.0022
     17  CD1       77.3720   33.1210  -47.9340 C.3    71  LEU71       0.0001
     18  CD2       75.2070   32.2430  -47.0390 C.3    71  LEU71       0.0001
     19  N         73.3620   26.3670  -46.3140 N.3    74  ILE74      -0.1245
     20  CA        72.0910   27.0980  -46.3600 C.3    74  ILE74       0.1561
     21  C         71.4860   27.0640  -47.7680 C.2    74  ILE74       0.2260
     22  O         70.2900   26.7930  -47.9310 O.2    74  ILE74      -0.2867
     23  CB        72.2650   28.5540  -45.8710 C.3    74  ILE74       0.0252
     24  CG1       72.6190   28.5820  -44.3780 C.3    74  ILE74       0.0019
     25  CG2       71.0060   29.3720  -46.1280 C.3    74  ILE74       0.0019
     26  CD1       73.2700   29.8730  -43.9170 C.3    74  ILE74       0.0001
     27  N         71.7520   36.9880  -40.7080 N.3    94  TYR94      -0.1241
     28  CA        73.1080   37.1920  -41.2120 C.3    94  TYR94       0.1605
     29  C         73.0650   37.7460  -42.6410 C.2    94  TYR94       0.2264
     30  O         72.3680   37.2030  -43.5070 O.2    94  TYR94      -0.2867
     31  CB        73.8950   35.8740  -41.1420 C.3    94  TYR94       0.0534
     32  CG        75.2050   35.8740  -41.8950 C.ar   94  TYR94      -0.0201
     33  CD1       76.2790   36.6600  -41.4700 C.ar   94  TYR94      -0.0009
     34  CD2       75.3740   35.0810  -43.0290 C.ar   94  TYR94      -0.0009
     35  CE1       77.4810   36.6630  -42.1600 C.ar   94  TYR94       0.0417
     36  CE2       76.5730   35.0780  -43.7260 C.ar   94  TYR94       0.0417
     37  CZ        77.6220   35.8690  -43.2860 C.ar   94  TYR94       0.1957
     38  OH        78.8130   35.8670  -43.9730 O.3    94  TYR94      -0.2866
     39  N         72.9810   35.5530  -45.7640 N.3    97  THR97      -0.1218
     40  CA        71.7910   34.7140  -45.9400 C.3    97  THR97       0.1862
     41  C         70.6970   35.5000  -46.6560 C.2    97  THR97       0.2287
     42  O         70.0270   34.9720  -47.5570 O.2    97  THR97      -0.2866
     43  CB        71.2500   34.1910  -44.5920 C.3    97  THR97       0.1770
     44  OG1       72.3430   33.8090  -43.7420 O.3    97  THR97      -0.2211
     45  CG2       70.3350   32.9920  -44.8110 C.3    97  THR97       0.0375
     46  N         66.8470   32.3680  -36.7240 N.3   137  GLU137     -0.1245
     47  CA        68.2320   32.5460  -36.2970 C.3   137  GLU137      0.1567
     48  C         68.2690   33.1620  -34.9000 C.2   137  GLU137      0.2260
     49  O         68.0900   34.3690  -34.7490 O.2   137  GLU137     -0.2867
     50  CB        68.9830   33.4290  -37.3030 C.3   137  GLU137      0.0388
     51  CG        70.4990   33.4600  -37.1380 C.3   137  GLU137      0.1160
     52  CD        71.1770   34.3950  -38.1300 C.2   137  GLU137      0.3649
     53  OE1       71.8470   35.3540  -37.6850 O.co2 137  GLU137     -0.2457
     54  OE2       71.0370   34.1810  -39.3550 O.co2 137  GLU137     -0.2457
     55  N         72.3440   37.9650  -35.1140 N.3   141  ASN141     -0.1240
     56  CA        73.4440   38.8510  -35.4400 C.3   141  ASN141      0.1653
     57  C         72.8690   40.1130  -36.0770 C.2   141  ASN141      0.2266
     58  O         72.1260   40.0200  -37.0560 O.2   141  ASN141     -0.2867
     59  CB        74.3990   38.1510  -36.4100 C.3   141  ASN141      0.1155
     60  CG        75.7870   38.7720  -36.4320 C.2   141  ASN141      0.2627
     61  OD1       76.1740   39.5180  -35.5290 O.2   141  ASN141     -0.2716
     62  ND2       76.5550   38.4440  -37.4660 N.am  141  ASN141     -0.0877
     63  N         69.2700   28.3520  -38.1430 N.3   166  ASP166     -0.1239
     64  CA        70.7040   28.6100  -38.1080 C.3   166  ASP166      0.1674
     65  C         71.1320   28.6710  -36.6520 C.2   166  ASP166      0.2266
     66  O         70.8390   29.6400  -35.9510 O.2   166  ASP166     -0.2867
     67  CB        71.0700   29.9140  -38.8230 C.3   166  ASP166      0.1410
     68  CG        72.5760   30.1980  -38.8000 C.2   166  ASP166      0.3668
     69  OD1       73.1860   30.1630  -37.7100 O.co2 166  ASP166     -0.2456
     70  OD2       73.1550   30.4700  -39.8730 O.co2 166  ASP166     -0.2456
     71  N         74.2500   28.7440  -35.3380 N.3   168  THR168     -0.1203
     72  CA        75.6790   29.0670  -35.2320 C.3   168  THR168      0.1994
     73  C         76.1300   29.6590  -33.8840 C.2   168  THR168      0.2617
     74  O         77.0510   29.1250  -33.2640 O.2   168  THR168     -0.2717
     75  CB        76.1570   29.9390  -36.4120 C.3   168  THR168      0.1784
     76  OG1       76.0290   29.1890  -37.6300 O.3   168  THR168     -0.2211
     77  CG2       77.6110   30.3540  -36.2370 C.3   168  THR168      0.0376
     78  N         75.4810   30.7350  -33.4350 N.am  169  PHE169     -0.1975
     79  CA        75.8980   31.4620  -32.2190 C.3   169  PHE169      0.1639
     80  C         75.8770   30.6150  -30.9490 C.2   169  PHE169      0.2290
     81  O         76.9040   30.4760  -30.2740 O.2   169  PHE169     -0.2864
     82  CB        75.0480   32.7270  -32.0210 C.3   169  PHE169      0.0560
     83  CG        75.5320   33.9160  -32.8050 C.ar  169  PHE169     -0.0200
     84  CD1       76.2520   33.7540  -33.9840 C.ar  169  PHE169     -0.0042
     85  CD2       75.2440   35.2090  -32.3690 C.ar  169  PHE169     -0.0042
     86  CE1       76.6870   34.8560  -34.7030 C.ar  169  PHE169     -0.0003
     87  CE2       75.6710   36.3160  -33.0850 C.ar  169  PHE169     -0.0003
     88  CZ        76.3940   36.1390  -34.2530 C.ar  169  PHE169     -0.0000
     89  N         74.6910   25.1990  -39.5460 N.3   187  HIS187     -0.1226
     90  CA        75.7950   25.8380  -38.8530 C.3   187  HIS187      0.1752
     91  C         76.7800   26.3740  -39.8320 C.2   187  HIS187      0.2596
     92  O         76.9740   25.8060  -40.9110 O.2   187  HIS187     -0.2718
     93  CB        76.5130   24.8300  -37.9720 C.3   187  HIS187      0.0759
     94  CG        75.8310   24.5680  -36.6600 C.ar  187  HIS187      0.0818
     95  ND1       75.0100   23.5180  -36.4690 N.ar  187  HIS187     -0.2268
     96  CD2       75.8990   25.2470  -35.4430 C.ar  187  HIS187      0.1154
     97  CE1       74.5670   23.5280  -35.1980 C.ar  187  HIS187      0.1986
     98  NE2       75.1110   24.5860  -34.5730 N.ar  187  HIS187     -0.2212
     99  N         77.4200   27.4500  -39.4500 N.am  188  SER188     -0.1952
    100  CA        78.6670   27.8570  -40.0130 C.3   188  SER188      0.1924
    101  C         79.6980   27.2130  -39.1720 C.2   188  SER188      0.2314
    102  O         79.7510   27.4440  -38.0110 O.2   188  SER188     -0.2863
    103  CB        78.8270   29.3340  -39.8740 C.3   188  SER188      0.2116
    104  OG        79.9300   29.7780  -40.5890 O.3   188  SER188     -0.2180
    105  N         82.7270   27.5490  -39.6780 N.3   190  THR190     -0.1203
    106  CA        83.7820   28.5110  -39.7180 C.3   190  THR190      0.1994
    107  C         83.9330   29.1670  -38.3810 C.2   190  THR190      0.2617
    108  O         84.9560   29.7090  -38.0530 O.2   190  THR190     -0.2717
    109  CB        83.4330   29.5690  -40.7190 C.3   190  THR190      0.1784
    110  OG1       82.8270   28.9620  -41.8290 O.3   190  THR190     -0.2211
    111  CG2       84.6120   30.2190  -41.2270 C.3   190  THR190      0.0376
    112  N         82.9040   29.1310  -37.5910 N.am  191  LYS191     -0.1979
    113  CA        82.9450   29.9110  -36.3990 C.3   191  LYS191      0.1596
    114  C         83.1810   29.1600  -35.1080 C.2   191  LYS191      0.2287
    115  O         84.2750   28.8660  -34.7860 O.2   191  LYS191     -0.2864
    116  CB        81.7440   30.8230  -36.3420 C.3   191  LYS191      0.0298
    117  CG        81.3200   31.2480  -37.6880 C.3   191  LYS191      0.0038
    118  CD        81.4500   32.6890  -37.9000 C.3   191  LYS191      0.0206
    119  CE        81.2090   32.9960  -39.3150 C.3   191  LYS191      0.1093
    120  NZ        79.8670   33.5840  -39.5100 N.3   191  LYS191     -0.1314
    121  N         87.0760   27.0110  -43.0570 N.3   200  VAL200     -0.1245
    122  CA        85.8050   27.4960  -43.5950 C.3   200  VAL200      0.1561
    123  C         84.9480   26.2780  -43.9130 C.2   200  VAL200      0.2260
    124  O         85.3100   25.4520  -44.7600 O.2   200  VAL200     -0.2867
    125  CB        85.9940   28.3800  -44.8560 C.3   200  VAL200      0.0252
    126  CG1       84.6480   28.7610  -45.4630 C.3   200  VAL200      0.0019
    127  CG2       86.7860   29.6330  -44.5150 C.3   200  VAL200      0.0019
    128  N         83.9630   35.6600  -36.5480 N.3   319  LEU319     -0.1245
    129  CA        83.5950   35.4830  -35.1400 C.3   319  LEU319      0.1561
    130  C         83.7590   34.0410  -34.6640 C.2   319  LEU319      0.2260
    131  O         83.8720   33.1190  -35.4690 O.2   319  LEU319     -0.2867
    132  CB        82.1480   35.9470  -34.9120 C.3   319  LEU319      0.0270
    133  CG        81.0400   35.2150  -35.6800 C.3   319  LEU319      0.0019
    134  CD1       80.3290   34.1920  -34.7990 C.3   319  LEU319      0.0001
    135  CD2       80.0420   36.2110  -36.2650 C.3   319  LEU319      0.0001
@<TRIPOS>BOND
     1    14    13    2
     2     6     5    1
     3    13    12    1
     4    17    16    1
     5    22    21    2
     6    15    16    1
     7    15    12    1
     8    21    20    1
     9    42    41    2
    10    16    18    1
    11    12    11    1
    12     5     2    1
    13     1     2    1
    14    41    40    1
    15    20    19    1
    16    20    23    1
    17     2     3    1
    18     4     3    2
    19    25    23    1
    20    11     9   am
    21    40    39    1
    22    40    43    1
    23    23    24    1
    24     3     7   am
    25   126   125    1
    26     9    10    2
    27     9     8    1
    28   125   127    1
    29   125   122    1
    30    45    43    1
    31   124   123    2
    32     7     8    1
    33    43    44    1
    34    24    26    1
    35    38    37    1
    36   123   122    1
    37    36    37   ar
    38    36    34   ar
    39   122   121    1
    40    30    29    2
    41    37    35   ar
    42    34    32   ar
    43    29    28    1
    44    35    33   ar
    45    32    33   ar
    46    32    31    1
    47   110   109    1
    48   111   109    1
    49    28    31    1
    50    28    27    1
    51    92    91    2
    52   109   106    1
    53   104   103    1
    54   100   103    1
    55   100    99    1
    56   100   101    1
    57    70    68   ar
    58    91    99   am
    59    91    90    1
    60   106   105    1
    61   106   107    1
    62    89    90    1
    63   120   119    1
    64    54    52   ar
    65   119   118    1
    66   101   102    2
    67    90    93    1
    68    67    68    1
    69    67    64    1
    70    68    69   ar
    71   107   108    2
    72   107   112   am
    73    63    64    1
    74    52    53   ar
    75    52    51    1
    76    64    65    1
    77    93    94    1
    78   118   117    1
    79   117   116    1
    80    76    75    1
    81   112   113    1
    82    62    60   am
    83    50    51    1
    84    50    47    1
    85    58    57    2
    86    46    47    1
    87    94    95   ar
    88    94    96   ar
    89    65    66    2
    90   128   129    1
    91    95    97   ar
    92    60    59    1
    93    60    61    2
    94    75    77    1
    95    75    72    1
    96    59    56    1
    97   113   116    1
    98   113   114    1
    99    47    48    1
   100   135   133    1
   101    57    56    1
   102   133   132    1
   103   133   134    1
   104   131   130    2
   105    96    98   ar
   106    56    55    1
   107    71    72    1
   108    72    73    1
   109    97    98   ar
   110   129   132    1
   111   129   130    1
   112   114   115    2
   113    48    49    2
   114    86    88   ar
   115    86    84   ar
   116    88    87   ar
   117    84    83   ar
   118    73    78   am
   119    73    74    2
   120    78    79    1
   121    87    85   ar
   122    83    85   ar
   123    83    82    1
   124    79    82    1
   125    79    80    1
   126    80    81    2
