@<TRIPOS>MOLECULE
tmp/4l0sC00.pdb
 143 145 0 0 0
SMALL
GASTEIGER

@<TRIPOS>ATOM
      1  N         -4.9900    9.5850   11.9400 N.3    80  HIS80      -0.1226
      2  CA        -5.2180    9.2210   13.3260 C.3    80  HIS80       0.1752
      3  C         -5.5090   10.4480   14.1640 C.2    80  HIS80       0.2597
      4  O         -4.7110   11.4310   14.1250 O.2    80  HIS80      -0.2718
      5  CB        -4.0090    8.5110   13.9270 C.3    80  HIS80       0.0759
      6  CG        -4.2450    8.0120   15.3060 C.ar   80  HIS80       0.0818
      7  ND1       -4.8670    6.8060   15.5630 N.ar   80  HIS80      -0.2268
      8  CD2       -3.8740    8.5080   16.5160 C.ar   80  HIS80       0.1154
      9  CE1       -4.9270    6.6120   16.8740 C.ar   80  HIS80       0.1986
     10  NE2       -4.3360    7.6310   17.4740 N.ar   80  HIS80      -0.2212
     11  N         -6.6590   10.4490   14.8390 N.am   81  GLY81      -0.1942
     12  CA        -7.0480   11.5480   15.7140 C.3    81  GLY81       0.2014
     13  C         -7.0690   11.0660   17.1420 C.2    81  GLY81       0.2640
     14  O         -7.6250   10.0060   17.4230 O.2    81  GLY81      -0.2714
     15  N         -6.4780   11.8170   18.0680 N.am   82  SER82      -0.1936
     16  CA        -6.4020   11.3600   19.4450 C.3    82  SER82       0.2040
     17  C         -6.1030   12.4750   20.4670 C.2    82  SER82       0.2485
     18  O         -5.3350   13.3970   20.1600 O.2    82  SER82      -0.2729
     19  CB        -5.2920   10.3200   19.5470 C.3    82  SER82       0.2129
     20  OG        -5.0180    9.9680   20.9130 O.3    82  SER82      -0.2179
     21  N         -6.6760   12.3780   21.6720 N.am   83  PRO83      -0.2715
     22  CA        -6.1850   13.2740   22.7490 C.3    83  PRO83       0.1536
     23  C         -4.7350   13.0570   23.1320 C.2    83  PRO83       0.2598
     24  O         -4.1840   13.9110   23.8290 O.2    83  PRO83      -0.2715
     25  CB        -7.0700   12.9160   23.9650 C.3    83  PRO83       0.0310
     26  CG        -8.2180   12.1440   23.4040 C.3    83  PRO83       0.0237
     27  CD        -7.6910   11.4390   22.1840 C.3    83  PRO83       0.0939
     28  N         -4.1160   11.9380   22.7350 N.am   84  PHE84      -0.1974
     29  CA        -2.7190   11.6810   23.1160 C.3    84  PHE84       0.1639
     30  C         -1.6950   12.1080   22.0410 C.2    84  PHE84       0.2290
     31  O         -0.5610   11.6570   22.0500 O.2    84  PHE84      -0.2864
     32  CB        -2.5530   10.1950   23.4350 C.3    84  PHE84       0.0560
     33  CG        -3.6370    9.6380   24.3440 C.ar   84  PHE84      -0.0200
     34  CD1       -3.8900   10.2040   25.5760 C.ar   84  PHE84      -0.0042
     35  CD2       -4.4170    8.5820   23.9380 C.ar   84  PHE84      -0.0042
     36  CE1       -4.8950    9.6990   26.4050 C.ar   84  PHE84      -0.0003
     37  CE2       -5.4120    8.0750   24.7530 C.ar   84  PHE84      -0.0003
     38  CZ        -5.6510    8.6270   25.9820 C.ar   84  PHE84      -0.0000
     39  N         -0.7310    2.3390   25.1190 N.3    96  ARG96      -0.1231
     40  CA        -1.5240    3.4060   25.7940 C.3    96  ARG96       0.1694
     41  C         -2.4660    4.1450   24.8030 C.2    96  ARG96       0.2592
     42  O         -3.3420    4.8930   25.2180 O.2    96  ARG96      -0.2718
     43  CB        -0.6700    4.5150   26.4270 C.3    96  ARG96       0.0321
     44  CG         0.6330    4.2000   27.1750 C.3    96  ARG96       0.0489
     45  CD         1.5540    5.4240   27.0090 C.3    96  ARG96       0.2205
     46  NE         2.7270    5.4850   27.8890 N.pl3  96  ARG96      -0.0865
     47  CZ         2.7940    6.1360   29.0610 C.cat  96  ARG96       0.5346
     48  NH1        1.7470    6.7960   29.5610 N.pl3  96  ARG96       0.1354
     49  NH2        3.9290    6.1170   29.7600 N.pl3  96  ARG96       0.1354
     50  N         -2.2150    3.9890   23.4980 N.am   97  HIS97      -0.1962
     51  CA        -2.9570    4.7410   22.4420 C.3    97  HIS97       0.1787
     52  C         -4.0280    3.9000   21.7150 C.2    97  HIS97       0.2620
     53  O         -4.7150    4.3990   20.7790 O.2    97  HIS97      -0.2715
     54  CB        -1.9570    5.3780   21.4820 C.3    97  HIS97       0.0785
     55  CG        -0.8940    6.1400   22.2020 C.ar   97  HIS97       0.0821
     56  ND1        0.4430    5.9290   21.9940 N.ar   97  HIS97      -0.2267
     57  CD2       -0.9760    7.0410   23.2100 C.ar   97  HIS97       0.1154
     58  CE1        1.1470    6.6960   22.8090 C.ar   97  HIS97       0.1986
     59  NE2        0.3090    7.3660   23.5730 N.ar   97  HIS97      -0.2212
     60  N         -4.2020    2.6750   22.2180 N.am   98  ALA98      -0.1963
     61  CA        -5.1650    1.7130   21.7030 C.3    98  ALA98       0.1728
     62  C         -6.5850    2.0830   22.0690 C.2    98  ALA98       0.2616
     63  O         -6.8140    2.7630   23.0760 O.2    98  ALA98      -0.2715
     64  CB        -4.8670    0.3270   22.2660 C.3    98  ALA98       0.0334
     65  N         -7.5320    1.5530   21.2880 N.am   99  TYR99      -0.1974
     66  CA        -8.9690    1.7930   21.4560 C.3    99  TYR99       0.1639
     67  C         -9.4480    0.4940   21.9950 C.2    99  TYR99       0.2290
     68  O         -9.7060   -0.4420   21.2450 O.2    99  TYR99      -0.2864
     69  CB        -9.6310    2.1330   20.1070 C.3    99  TYR99       0.0560
     70  CG       -11.1280    2.4240   20.0960 C.ar   99  TYR99      -0.0198
     71  CD1      -11.8460    2.6610   21.2820 C.ar   99  TYR99      -0.0009
     72  CD2      -11.8200    2.5210   18.8870 C.ar   99  TYR99      -0.0009
     73  CE1      -13.2070    2.9410   21.2540 C.ar   99  TYR99       0.0417
     74  CE2      -13.1870    2.8290   18.8560 C.ar   99  TYR99       0.0417
     75  CZ       -13.8620    3.0240   20.0470 C.ar   99  TYR99       0.1957
     76  OH       -15.2030    3.3100   20.0700 O.3    99  TYR99      -0.2866
     77  N         -6.2530    2.3130   15.9130 N.3   109  TYR109     -0.1227
     78  CA        -7.1460    2.4740   14.8150 C.3   109  TYR109      0.1736
     79  C         -6.7140    3.6590   13.9240 C.2   109  TYR109      0.2595
     80  O         -6.3050    4.6810   14.4530 O.2   109  TYR109     -0.2718
     81  CB        -8.5470    2.7800   15.3670 C.3   109  TYR109      0.0548
     82  CG        -9.2510    1.5280   15.8460 C.ar  109  TYR109     -0.0200
     83  CD1      -10.4110    1.0820   15.2280 C.ar  109  TYR109     -0.0009
     84  CD2       -8.7390    0.7740   16.8810 C.ar  109  TYR109     -0.0009
     85  CE1      -11.0430   -0.0670   15.6670 C.ar  109  TYR109      0.0417
     86  CE2       -9.3720   -0.3860   17.3390 C.ar  109  TYR109      0.0417
     87  CZ       -10.5110   -0.8180   16.6990 C.ar  109  TYR109      0.1957
     88  OH       -11.1560   -2.0060   17.1170 O.3   109  TYR109     -0.2866
     89  N         -6.8510    3.5170   12.6020 N.am  110  PHE110     -0.1962
     90  CA        -6.5470    4.5500   11.6280 C.3   110  PHE110      0.1771
     91  C         -7.6820    4.5840   10.6020 C.2   110  PHE110      0.2619
     92  O         -8.3440    3.5720   10.3510 O.2   110  PHE110     -0.2715
     93  CB        -5.2300    4.2240   10.9310 C.3   110  PHE110      0.0574
     94  CG        -4.0270    4.2160   11.8360 C.ar  110  PHE110     -0.0200
     95  CD1       -3.2650    5.3580   11.9910 C.ar  110  PHE110     -0.0042
     96  CD2       -3.6830    3.0760   12.5590 C.ar  110  PHE110     -0.0042
     97  CE1       -2.1940    5.3930   12.8490 C.ar  110  PHE110     -0.0003
     98  CE2       -2.6020    3.0990   13.4240 C.ar  110  PHE110     -0.0003
     99  CZ        -1.8450    4.2540   13.5480 C.ar  110  PHE110     -0.0000
    100  N         -7.8680    5.7320    9.9540 N.am  111  ALA111     -0.1977
    101  CA        -8.9210    5.9190    8.9810 C.3   111  ALA111      0.1597
    102  C         -8.4200    6.4630    7.6610 C.2   111  ALA111      0.2287
    103  O         -7.5240    7.3200    7.5990 O.2   111  ALA111     -0.2864
    104  CB        -9.9190    6.8750    9.5270 C.3   111  ALA111      0.0319
    105  N        -13.4180   10.8490    9.9330 N.3   116  LYS116     -0.1231
    106  CA       -13.6190    9.7500   10.9090 C.3   116  LYS116      0.1693
    107  C        -12.5910    9.9460   12.0750 C.2   116  LYS116      0.2592
    108  O        -12.9760    9.9450   13.2360 O.2   116  LYS116     -0.2718
    109  CB       -13.4580    8.3780   10.2390 C.3   116  LYS116      0.0285
    110  CG       -13.2330    7.2050   11.2120 C.3   116  LYS116      0.0035
    111  CD       -14.3430    7.0880   12.2400 C.3   116  LYS116      0.0206
    112  CE       -15.6510    6.7370   11.6440 C.3   116  LYS116      0.1093
    113  NZ       -16.5800    6.3130   12.7810 N.3   116  LYS116     -0.1314
    114  N        -11.3220   10.2020   11.7350 N.am  117  SER117     -0.1952
    115  CA       -10.2770   10.5090   12.7480 C.3   117  SER117      0.1924
    116  C        -10.6230   11.7880   13.5270 C.2   117  SER117      0.2314
    117  O        -10.3600   11.8670   14.7450 O.2   117  SER117     -0.2863
    118  CB        -8.8630   10.5520   12.1170 C.3   117  SER117      0.2116
    119  OG        -8.4190    9.2940   11.7030 O.3   117  SER117     -0.2180
    120  N        -12.3760   11.6570   16.9660 N.3   120  TYR120     -0.1241
    121  CA       -11.6250   11.1490   18.1100 C.3   120  TYR120      0.1605
    122  C        -10.6080   12.1580   18.6580 C.2   120  TYR120      0.2264
    123  O         -9.9620   11.8870   19.6680 O.2   120  TYR120     -0.2867
    124  CB       -10.9090    9.8470   17.8020 C.3   120  TYR120      0.0534
    125  CG       -11.8540    8.6850   17.5810 C.ar  120  TYR120     -0.0201
    126  CD1      -12.2760    7.8970   18.6470 C.ar  120  TYR120     -0.0009
    127  CD2      -12.3790    8.4100   16.3100 C.ar  120  TYR120     -0.0009
    128  CE1      -13.1700    6.8500   18.4400 C.ar  120  TYR120      0.0417
    129  CE2      -13.2730    7.3820   16.1120 C.ar  120  TYR120      0.0417
    130  CZ       -13.6660    6.6200   17.1860 C.ar  120  TYR120      0.1957
    131  OH       -14.5480    5.6140   16.9660 O.3   120  TYR120     -0.2866
    132  N        -11.4890   12.8630   22.0870 N.3   123  GLY123     -0.1210
    133  CA       -11.7330   11.6100   22.8480 C.3   123  GLY123      0.1956
    134  C        -12.7480   10.7240   22.1360 C.2   123  GLY123      0.2611
    135  O        -13.3430   11.1280   21.1360 O.2   123  GLY123     -0.2717
    136  N        -12.9530    9.5250   22.6500 N.am  124  ILE124     -0.1979
    137  CA       -13.9810    8.6090   22.1410 C.3   124  ILE124      0.1595
    138  C        -15.3480    9.2880   22.1550 C.2   124  ILE124      0.2287
    139  O        -15.7560    9.8510   23.1590 O.2   124  ILE124     -0.2864
    140  CB       -14.0130    7.3420   23.0000 C.3   124  ILE124      0.0276
    141  CG1      -12.6800    6.5960   22.8910 C.3   124  ILE124      0.0022
    142  CG2      -15.2010    6.4630   22.6210 C.3   124  ILE124      0.0022
    143  CD1      -12.5200    5.4920   23.9210 C.3   124  ILE124      0.0001
@<TRIPOS>BOND
     1   103   102    2
     2   102   101    1
     3   101   104    1
     4   101   100    1
     5   105   106    1
     6   100    91   am
     7   109   106    1
     8   109   110    1
     9    92    91    2
    10    91    90    1
    11   106   107    1
    12    93    90    1
    13    93    94    1
    14   110   111    1
    15    90    89    1
    16   112   111    1
    17   112   113    1
    18   119   118    1
    19   114   107   am
    20   114   115    1
    21    94    95   ar
    22    94    96   ar
    23     1     2    1
    24    95    97   ar
    25   107   108    2
    26   118   115    1
    27    96    98   ar
    28    89    79   am
    29   115   116    1
    30    97    99   ar
    31     2     5    1
    32     2     3    1
    33    98    99   ar
    34   116   117    2
    35    79    80    2
    36    79    78    1
    37     5     6    1
    38     4     3    2
    39     3    11   am
    40    78    81    1
    41    78    77    1
    42    11    12    1
    43    83    85   ar
    44    83    82   ar
    45     6     7   ar
    46     6     8   ar
    47    81    82    1
    48     7     9   ar
    49    85    87   ar
    50    12    13    1
    51    82    84   ar
    52   129   127   ar
    53   129   130   ar
    54   127   125   ar
    55     8    10   ar
    56    87    88    1
    57    87    86   ar
    58     9    10   ar
    59    84    86   ar
    60   131   130    1
    61   120   121    1
    62    13    14    2
    63    13    15   am
    64   130   128   ar
    65   125   124    1
    66   125   126   ar
    67   124   121    1
    68    15    16    1
    69   121   122    1
    70   128   126   ar
    71   122   123    2
    72    74    72   ar
    73    74    75   ar
    74    72    70   ar
    75    16    19    1
    76    16    17    1
    77    19    20    1
    78    75    76    1
    79    75    73   ar
    80    70    69    1
    81    70    71   ar
    82    69    66    1
    83    18    17    2
    84    17    21   am
    85    53    52    2
    86   135   134    2
    87    68    67    2
    88    73    71   ar
    89    65    66    1
    90    65    62   am
    91    66    67    1
    92    54    55    1
    93    54    51    1
    94    21    27    1
    95    21    22    1
    96    61    62    1
    97    61    60    1
    98    61    64    1
    99    52    60   am
   100    52    51    1
   101    56    55   ar
   102    56    58   ar
   103    30    31    2
   104    30    29    1
   105    62    63    2
   106   132   133    1
   107   134   136   am
   108   134   133    1
   109   137   138    1
   110   137   136    1
   111   137   140    1
   112   138   139    2
   113    27    26    1
   114    55    57   ar
   115    51    50    1
   116   142   140    1
   117    28    29    1
   118    28    23   am
   119    22    23    1
   120    22    25    1
   121    58    59   ar
   122   141   140    1
   123   141   143    1
   124    29    32    1
   125    23    24    2
   126    57    59   ar
   127    26    25    1
   128    32    33    1
   129    50    41   am
   130    35    33   ar
   131    35    37   ar
   132    33    34   ar
   133    37    38   ar
   134    41    42    2
   135    41    40    1
   136    39    40    1
   137    34    36   ar
   138    40    43    1
   139    38    36   ar
   140    43    44    1
   141    45    44    1
   142    45    46    1
   143    46    47    2
   144    47    48    1
   145    47    49    1
