@<TRIPOS>MOLECULE
tmp/4l0tA00.pdb
 151 154 0 0 0
SMALL
GASTEIGER

@<TRIPOS>ATOM
      1  N          8.5810   41.7090   20.8150 N.3    79  PHE79      -0.1227
      2  CA         9.5850   41.5970   19.7970 C.3    79  PHE79       0.1736
      3  C          8.9400   41.3840   18.4500 C.2    79  PHE79       0.2595
      4  O          7.8720   40.7630   18.3570 O.2    79  PHE79      -0.2718
      5  CB        10.5320   40.4130   20.1200 C.3    79  PHE79       0.0547
      6  CG        11.3520   40.6330   21.3650 C.ar   79  PHE79      -0.0202
      7  CD1       12.4890   41.4150   21.3120 C.ar   79  PHE79      -0.0042
      8  CD2       10.9700   40.0990   22.5680 C.ar   79  PHE79      -0.0042
      9  CE1       13.2480   41.6650   22.4590 C.ar   79  PHE79      -0.0003
     10  CE2       11.6950   40.3540   23.7270 C.ar   79  PHE79      -0.0003
     11  CZ        12.8440   41.1310   23.6790 C.ar   79  PHE79      -0.0000
     12  N          9.6100   41.8800   17.4070 N.am   80  HIS80      -0.1961
     13  CA         9.2390   41.6290   16.0020 C.3    80  HIS80       0.1787
     14  C         10.5140   41.4340   15.1800 C.2    80  HIS80       0.2621
     15  O         11.4090   42.2610   15.2360 O.2    80  HIS80      -0.2715
     16  CB         8.4330   42.7920   15.4260 C.3    80  HIS80       0.0785
     17  CG         7.8890   42.5370   14.0420 C.ar   80  HIS80       0.0821
     18  ND1        6.7280   41.8230   13.8160 N.ar   80  HIS80      -0.2267
     19  CD2        8.3220   42.9450   12.8170 C.ar   80  HIS80       0.1154
     20  CE1        6.4770   41.7930   12.5140 C.ar   80  HIS80       0.1986
     21  NE2        7.4320   42.4580   11.8850 N.ar   80  HIS80      -0.2212
     22  N         10.5940   40.3320   14.4400 N.am   81  GLY81      -0.1940
     23  CA        11.6890   40.0640   13.5050 C.3    81  GLY81       0.2014
     24  C         11.1220   39.9700   12.0920 C.2    81  GLY81       0.2640
     25  O         10.0450   39.3740   11.8710 O.2    81  GLY81      -0.2714
     26  N         11.8250   40.5720   11.1350 N.am   82  SER82      -0.1936
     27  CA        11.3250   40.7260    9.7660 C.3    82  SER82       0.2040
     28  C         12.4340   41.0800    8.7770 C.2    82  SER82       0.2485
     29  O         13.2930   41.8840    9.0860 O.2    82  SER82      -0.2729
     30  CB        10.3410   41.8890    9.6850 C.3    82  SER82       0.2129
     31  OG         9.8060   42.0060    8.3720 O.3    82  SER82      -0.2179
     32  N         12.3870   40.5020    7.5650 N.am   83  PRO83      -0.2715
     33  CA        13.2140   41.0340    6.4740 C.3    83  PRO83       0.1536
     34  C         13.0090   42.5260    6.2150 C.2    83  PRO83       0.2598
     35  O         13.8610   43.1630    5.5740 O.2    83  PRO83      -0.2715
     36  CB        12.7150   40.2590    5.2310 C.3    83  PRO83       0.0310
     37  CG        12.0060   39.0790    5.7670 C.3    83  PRO83       0.0237
     38  CD        11.4720   39.4470    7.1180 C.3    83  PRO83       0.0939
     39  N         11.8800   43.0870    6.6470 N.am   84  PHE84      -0.1974
     40  CA        11.5630   44.4640    6.2910 C.3    84  PHE84       0.1639
     41  C         11.8390   45.4850    7.4090 C.2    84  PHE84       0.2290
     42  O         11.2830   46.5730    7.4050 O.2    84  PHE84      -0.2864
     43  CB        10.1030   44.5440    5.8190 C.3    84  PHE84       0.0560
     44  CG         9.7300   43.4650    4.8550 C.ar   84  PHE84      -0.0200
     45  CD1       10.4700   43.2850    3.6900 C.ar   84  PHE84      -0.0042
     46  CD2        8.6670   42.6080    5.1160 C.ar   84  PHE84      -0.0042
     47  CE1       10.1550   42.2660    2.7990 C.ar   84  PHE84      -0.0003
     48  CE2        8.3330   41.5970    4.2160 C.ar   84  PHE84      -0.0003
     49  CZ         9.0770   41.4210    3.0690 C.ar   84  PHE84      -0.0000
     50  N          3.7960   44.3110    5.8910 N.3    97  HIS97      -0.1226
     51  CA         4.5620   43.5980    6.9290 C.3    97  HIS97       0.1752
     52  C          3.7400   42.5070    7.6450 C.2    97  HIS97       0.2596
     53  O          4.2040   41.9150    8.6190 O.2    97  HIS97      -0.2718
     54  CB         5.1280   44.6290    7.9190 C.3    97  HIS97       0.0759
     55  CG         5.7700   45.7930    7.2350 C.ar   97  HIS97       0.0818
     56  ND1        5.3820   47.0890    7.4620 N.ar   97  HIS97      -0.2268
     57  CD2        6.7110   45.8530    6.2660 C.ar   97  HIS97       0.1154
     58  CE1        6.0890   47.9080    6.6980 C.ar   97  HIS97       0.1986
     59  NE2        6.8970   47.1830    5.9550 N.ar   97  HIS97      -0.2212
     60  N          2.5540   42.2210    7.1060 N.am   98  ALA98      -0.1966
     61  CA         1.6500   41.2260    7.6250 C.3    98  ALA98       0.1728
     62  C          2.1240   39.8320    7.2520 C.2    98  ALA98       0.2616
     63  O          2.8540   39.6680    6.2710 O.2    98  ALA98      -0.2715
     64  CB         0.2440   41.4630    7.1000 C.3    98  ALA98       0.0334
     65  N          1.7110   38.8580    8.0690 N.am   99  TYR99      -0.1960
     66  CA         1.9470   37.4430    7.8590 C.3    99  TYR99       0.1771
     67  C          0.6550   36.8660    7.2830 C.2    99  TYR99       0.2619
     68  O         -0.2730   36.5100    8.0190 O.2    99  TYR99      -0.2715
     69  CB         2.3150   36.7880    9.1930 C.3    99  TYR99       0.0574
     70  CG         2.7570   35.3450    9.1450 C.ar   99  TYR99      -0.0198
     71  CD1        2.9710   34.6420   10.3310 C.ar   99  TYR99      -0.0009
     72  CD2        2.9080   34.6550    7.9310 C.ar   99  TYR99      -0.0009
     73  CE1        3.3740   33.3270   10.3100 C.ar   99  TYR99       0.0417
     74  CE2        3.3090   33.3220    7.8980 C.ar   99  TYR99       0.0417
     75  CZ         3.5380   32.6610    9.0860 C.ar   99  TYR99       0.1957
     76  OH         3.9180   31.3260    9.0780 O.3    99  TYR99      -0.2866
     77  N          0.5860   36.7870    5.9570 N.am  100  ILE100     -0.1977
     78  CA        -0.6530   36.3670    5.3020 C.3   100  ILE100      0.1596
     79  C         -1.0580   34.9550    5.7440 C.2   100  ILE100      0.2287
     80  O         -2.2330   34.7110    6.0000 O.2   100  ILE100     -0.2864
     81  CB        -0.5940   36.4360    3.7500 C.3   100  ILE100      0.0276
     82  CG1       -0.1130   37.8080    3.2460 C.3   100  ILE100      0.0022
     83  CG2       -1.9620   36.1230    3.1670 C.3   100  ILE100      0.0022
     84  CD1       -0.7990   39.0110    3.8560 C.3   100  ILE100      0.0001
     85  N          2.4770   40.1840   13.4440 N.3   109  TYR109     -0.1227
     86  CA         2.6620   39.2460   14.5600 C.3   109  TYR109      0.1736
     87  C          3.8210   39.7440   15.4440 C.2   109  TYR109      0.2595
     88  O          4.8070   40.2610   14.9440 O.2   109  TYR109     -0.2718
     89  CB         2.9810   37.8530   14.0150 C.3   109  TYR109      0.0548
     90  CG         1.7690   37.1090   13.5000 C.ar  109  TYR109     -0.0200
     91  CD1        1.3710   35.9080   14.0860 C.ar  109  TYR109     -0.0009
     92  CD2        1.0160   37.6080   12.4460 C.ar  109  TYR109     -0.0009
     93  CE1        0.2600   35.2200   13.6260 C.ar  109  TYR109      0.0417
     94  CE2       -0.1000   36.9500   12.0040 C.ar  109  TYR109      0.0417
     95  CZ        -0.4740   35.7550   12.5910 C.ar  109  TYR109      0.1957
     96  OH        -1.5930   35.0920   12.1510 O.3   109  TYR109     -0.2866
     97  N          3.6820   39.5450   16.7480 N.am  110  PHE110     -0.1962
     98  CA         4.6810   39.9320   17.7450 C.3   110  PHE110      0.1771
     99  C          4.8370   38.8220   18.7990 C.2   110  PHE110      0.2619
    100  O          3.9240   38.0310   19.0270 O.2   110  PHE110     -0.2715
    101  CB         4.2520   41.2200   18.4470 C.3   110  PHE110      0.0574
    102  CG         4.1160   42.3980   17.5520 C.ar  110  PHE110     -0.0200
    103  CD1        5.1830   43.2590   17.3590 C.ar  110  PHE110     -0.0042
    104  CD2        2.9370   42.6400   16.8720 C.ar  110  PHE110     -0.0042
    105  CE1        5.0710   44.3590   16.5410 C.ar  110  PHE110     -0.0003
    106  CE2        2.8500   43.7070   15.9870 C.ar  110  PHE110     -0.0003
    107  CZ         3.9080   44.5630   15.8260 C.ar  110  PHE110     -0.0000
    108  N          5.9860   38.7590   19.4340 N.am  111  ALA111     -0.1977
    109  CA         6.2880   37.6730   20.3530 C.3   111  ALA111      0.1597
    110  C          6.8360   38.2150   21.6610 C.2   111  ALA111      0.2287
    111  O          7.5920   39.1920   21.6680 O.2   111  ALA111     -0.2864
    112  CB         7.3060   36.7260   19.7350 C.3   111  ALA111      0.0319
    113  N         11.5910   33.5330   19.3370 N.3   116  LYS116     -0.1231
    114  CA        10.5160   33.3050   18.3580 C.3   116  LYS116      0.1693
    115  C         10.5880   34.3290   17.2010 C.2   116  LYS116      0.2592
    116  O         10.5400   33.9460   16.0100 O.2   116  LYS116     -0.2718
    117  CB         9.1520   33.3180   19.0710 C.3   116  LYS116      0.0285
    118  CG         7.9260   33.4180   18.2000 C.3   116  LYS116      0.0035
    119  CD         7.8300   32.3620   17.1220 C.3   116  LYS116      0.0206
    120  CE         7.7100   31.0040   17.6960 C.3   116  LYS116      0.1093
    121  NZ         7.3950   30.1040   16.5650 N.3   116  LYS116     -0.1314
    122  N         10.7470   35.6140   17.5280 N.am  117  SER117     -0.1952
    123  CA        10.8900   36.6280   16.4730 C.3   117  SER117      0.1924
    124  C         12.1850   36.4320   15.6780 C.2   117  SER117      0.2314
    125  O         12.2320   36.7250   14.4780 O.2   117  SER117     -0.2863
    126  CB        10.8710   38.0450   17.0500 C.3   117  SER117      0.2116
    127  OG         9.5990   38.3720   17.5510 O.3   117  SER117     -0.2180
    128  N         12.0530   34.7840   12.2760 N.3   120  TYR120     -0.1241
    129  CA        11.5400   35.4850   11.1180 C.3   120  TYR120      0.1605
    130  C         12.5050   36.4950   10.5510 C.2   120  TYR120      0.2264
    131  O         12.2120   37.1010    9.5270 O.2   120  TYR120     -0.2867
    132  CB        10.1990   36.1660   11.4430 C.3   120  TYR120      0.0534
    133  CG         9.1520   35.1480   11.7130 C.ar  120  TYR120     -0.0201
    134  CD1        8.3700   34.6500   10.7020 C.ar  120  TYR120     -0.0009
    135  CD2        9.0180   34.5820   12.9910 C.ar  120  TYR120     -0.0009
    136  CE1        7.4190   33.6650   10.9540 C.ar  120  TYR120      0.0417
    137  CE2        8.0790   33.6120   13.2480 C.ar  120  TYR120      0.0417
    138  CZ         7.2870   33.1600   12.2300 C.ar  120  TYR120      0.1957
    139  OH         6.3490   32.1950   12.4860 O.3   120  TYR120     -0.2866
    140  N         13.1550   35.6700    7.1650 N.3   123  GLY123     -0.1210
    141  CA        11.9240   35.3080    6.4520 C.3   123  GLY123      0.1956
    142  C         11.1630   34.2540    7.2070 C.2   123  GLY123      0.2611
    143  O         11.6320   33.7660    8.2330 O.2   123  GLY123     -0.2717
    144  N         10.0010   33.8910    6.6700 N.am  124  ILE124     -0.1979
    145  CA         9.1530   32.8410    7.2160 C.3   124  ILE124      0.1595
    146  C          9.9320   31.5250    7.2100 C.2   124  ILE124      0.2287
    147  O         10.6010   31.1990    6.2360 O.2   124  ILE124     -0.2864
    148  CB         7.8420   32.7190    6.3890 C.3   124  ILE124      0.0276
    149  CG1        6.9980   33.9990    6.5510 C.3   124  ILE124      0.0022
    150  CG2        7.0220   31.4880    6.8130 C.3   124  ILE124      0.0022
    151  CD1        6.0810   34.2540    5.3870 C.3   124  ILE124      0.0001
@<TRIPOS>BOND
     1    47    49   ar
     2    47    45   ar
     3    49    48   ar
     4    83    81    1
     5    82    81    1
     6    82    84    1
     7    45    44   ar
     8    81    78    1
     9    48    46   ar
    10    44    46   ar
    11    44    43    1
    12    36    37    1
    13    36    33    1
    14    78    79    1
    15    78    77    1
    16   151   149    1
    17    35    34    2
    18    79    80    2
    19    37    38    1
    20    43    40    1
    21    50    51    1
    22    59    57   ar
    23    59    58   ar
    24    77    67   am
    25    34    33    1
    26    34    39   am
    27   147   146    2
    28    57    55   ar
    29    63    62    2
    30    40    39    1
    31    40    41    1
    32   148   149    1
    33   148   150    1
    34   148   145    1
    35   141   140    1
    36   141   142    1
    37    33    32    1
    38   144   142   am
    39   144   145    1
    40    58    56   ar
    41    51    52    1
    42    51    54    1
    43    64    61    1
    44    60    61    1
    45    60    52   am
    46    38    32    1
    47   142   143    2
    48   146   145    1
    49    55    56   ar
    50    55    54    1
    51    62    61    1
    52    62    65   am
    53    67    66    1
    54    67    68    2
    55    42    41    2
    56    32    28   am
    57    52    53    2
    58    66    65    1
    59    66    69    1
    60    74    72   ar
    61    74    75   ar
    62    72    70   ar
    63    31    30    1
    64    28    29    2
    65    28    27    1
    66    76    75    1
    67    75    73   ar
    68    70    69    1
    69    70    71   ar
    70   131   130    2
    71    30    27    1
    72    27    26    1
    73    73    71   ar
    74   130   129    1
    75   134   136   ar
    76   134   133   ar
    77   136   138   ar
    78   129   132    1
    79   129   128    1
    80    26    24   am
    81   132   133    1
    82   133   135   ar
    83    25    24    2
    84    21    20   ar
    85    21    19   ar
    86    94    92   ar
    87    94    95   ar
    88    24    23    1
    89    96    95    1
    90   138   139    1
    91   138   137   ar
    92    92    90   ar
    93    20    18   ar
    94    95    93   ar
    95    19    17   ar
    96   135   137   ar
    97    85    86    1
    98    90    89    1
    99    90    91   ar
   100    23    22    1
   101    93    91   ar
   102    18    17   ar
   103    89    86    1
   104    17    16    1
   105    22    14   am
   106   125   124    2
   107    86    87    1
   108    88    87    2
   109    14    15    2
   110    14    13    1
   111    16    13    1
   112    87    97   am
   113   124   123    1
   114   107   106   ar
   115   107   105   ar
   116   106   104   ar
   117    13    12    1
   118   116   115    2
   119   123   126    1
   120   123   122    1
   121   105   103   ar
   122   121   120    1
   123    97    98    1
   124   104   102   ar
   125   126   127    1
   126   119   120    1
   127   119   118    1
   128   115   122   am
   129   115   114    1
   130   103   102   ar
   131    12     3   am
   132   102   101    1
   133    98   101    1
   134    98    99    1
   135   118   117    1
   136     4     3    2
   137   114   117    1
   138   114   113    1
   139     3     2    1
   140    99   100    2
   141    99   108   am
   142   108   109    1
   143   112   109    1
   144     2     5    1
   145     2     1    1
   146     5     6    1
   147   109   110    1
   148     7     6   ar
   149     7     9   ar
   150     6     8   ar
   151   110   111    2
   152     9    11   ar
   153     8    10   ar
   154    11    10   ar
