@<TRIPOS>MOLECULE
tmp/4l10C00.pdb
 150 153 0 0 0
SMALL
GASTEIGER

@<TRIPOS>ATOM
      1  N          4.9270   -8.3880    8.4880 N.3    79  PHE79      -0.1227
      2  CA         5.1400   -9.3840    9.5590 C.3    79  PHE79       0.1736
      3  C          5.3020   -8.7580   10.9240 C.2    79  PHE79       0.2595
      4  O          5.7990   -7.6350   11.0500 O.2    79  PHE79      -0.2718
      5  CB         6.3400  -10.2880    9.2480 C.3    79  PHE79       0.0547
      6  CG         6.1560  -11.1180    8.0240 C.ar   79  PHE79      -0.0202
      7  CD1        5.3550  -12.2520    8.0410 C.ar   79  PHE79      -0.0042
      8  CD2        6.7110  -10.7100    6.8030 C.ar   79  PHE79      -0.0042
      9  CE1        5.1630  -12.9800    6.8880 C.ar   79  PHE79      -0.0003
     10  CE2        6.4900  -11.4370    5.6450 C.ar   79  PHE79      -0.0003
     11  CZ         5.7380  -12.5840    5.6930 C.ar   79  PHE79      -0.0000
     12  N          4.9150   -9.5080   11.9590 N.am   80  HIS80      -0.1961
     13  CA         5.1590   -9.1100   13.3340 C.3    80  HIS80       0.1787
     14  C          5.4620  -10.3530   14.1440 C.2    80  HIS80       0.2621
     15  O          4.6690  -11.3160   14.1280 O.2    80  HIS80      -0.2715
     16  CB         3.9390   -8.3990   13.9020 C.3    80  HIS80       0.0785
     17  CG         4.1240   -7.8690   15.2870 C.ar   80  HIS80       0.0821
     18  ND1        4.7390   -6.6610   15.5420 N.ar   80  HIS80      -0.2267
     19  CD2        3.7890   -8.3830   16.4980 C.ar   80  HIS80       0.1154
     20  CE1        4.7530   -6.4400   16.8490 C.ar   80  HIS80       0.1986
     21  NE2        4.1820   -7.4660   17.4490 N.ar   80  HIS80      -0.2212
     22  N          6.5980  -10.3470   14.8290 N.am   81  GLY81      -0.1940
     23  CA         7.0030  -11.4410   15.6770 C.3    81  GLY81       0.2014
     24  C          7.0600  -10.9980   17.1210 C.2    81  GLY81       0.2640
     25  O          7.6100   -9.9620   17.4270 O.2    81  GLY81      -0.2714
     26  N          6.4840  -11.7530   18.0260 N.am   82  SER82      -0.1936
     27  CA         6.3840  -11.2580   19.3810 C.3    82  SER82       0.2040
     28  C          6.0430  -12.3340   20.3730 C.2    82  SER82       0.2485
     29  O          5.2130  -13.1870   20.0730 O.2    82  SER82      -0.2729
     30  CB         5.2470  -10.2420   19.4550 C.3    82  SER82       0.2129
     31  OG         5.0120   -9.7950   20.7870 O.3    82  SER82      -0.2179
     32  N          6.6010  -12.2390   21.5850 N.am   83  PRO83      -0.2715
     33  CA         6.1060  -13.1580   22.6440 C.3    83  PRO83       0.1536
     34  C          4.6520  -12.9340   23.0630 C.2    83  PRO83       0.2598
     35  O          4.1110  -13.7460   23.8270 O.2    83  PRO83      -0.2715
     36  CB         7.0030  -12.8410   23.8520 C.3    83  PRO83       0.0310
     37  CG         8.1360  -12.0490   23.3140 C.3    83  PRO83       0.0237
     38  CD         7.6270  -11.3210   22.1070 C.3    83  PRO83       0.0939
     39  N          4.0430  -11.8320   22.6330 N.am   84  PHE84      -0.1974
     40  CA         2.6710  -11.5250   23.0120 C.3    84  PHE84       0.1639
     41  C          1.6480  -11.9400   21.9510 C.2    84  PHE84       0.2290
     42  O          0.4930  -11.5210   22.0130 O.2    84  PHE84      -0.2864
     43  CB         2.5400  -10.0360   23.2910 C.3    84  PHE84       0.0560
     44  CG         3.5120   -9.5310   24.3220 C.ar   84  PHE84      -0.0200
     45  CD1        3.6370  -10.1770   25.5470 C.ar   84  PHE84      -0.0042
     46  CD2        4.3180   -8.4370   24.0640 C.ar   84  PHE84      -0.0042
     47  CE1        4.5420   -9.7280   26.4970 C.ar   84  PHE84      -0.0003
     48  CE2        5.2140   -7.9870   25.0210 C.ar   84  PHE84      -0.0003
     49  CZ         5.3290   -8.6290   26.2300 C.ar   84  PHE84      -0.0000
     50  N          0.7010   -2.2600   25.1420 N.3    96  ARG96      -0.1231
     51  CA         1.4460   -3.3880   25.7400 C.3    96  ARG96       0.1694
     52  C          2.4010   -4.0380   24.7360 C.2    96  ARG96       0.2592
     53  O          3.3720   -4.7010   25.1220 O.2    96  ARG96      -0.2718
     54  CB         0.5040   -4.4950   26.2400 C.3    96  ARG96       0.0321
     55  CG        -0.5610   -4.0810   27.2490 C.3    96  ARG96       0.0489
     56  CD        -1.4820   -5.2540   27.5650 C.3    96  ARG96       0.2205
     57  NE        -2.8940   -4.8710   27.5160 N.pl3  96  ARG96      -0.0865
     58  CZ        -3.5300   -4.1330   28.4330 C.cat  96  ARG96       0.5346
     59  NH1       -2.8980   -3.6600   29.5100 N.pl3  96  ARG96       0.1354
     60  NH2       -4.8200   -3.8540   28.2650 N.pl3  96  ARG96       0.1354
     61  N          2.1050   -3.8840   23.4460 N.am   97  HIS97      -0.1962
     62  CA         2.8690   -4.6070   22.4000 C.3    97  HIS97       0.1787
     63  C          3.9140   -3.7540   21.6700 C.2    97  HIS97       0.2620
     64  O          4.5480   -4.2200   20.7130 O.2    97  HIS97      -0.2715
     65  CB         1.8780   -5.2580   21.4310 C.3    97  HIS97       0.0785
     66  CG         0.7950   -5.9930   22.1370 C.ar   97  HIS97       0.0821
     67  ND1       -0.5390   -5.7480   21.9170 N.ar   97  HIS97      -0.2267
     68  CD2        0.8460   -6.9180   23.1220 C.ar   97  HIS97       0.1154
     69  CE1       -1.2660   -6.5110   22.7130 C.ar   97  HIS97       0.1986
     70  NE2       -0.4480   -7.2230   23.4610 N.ar   97  HIS97      -0.2212
     71  N          4.1260   -2.5400   22.1760 N.am   98  ALA98      -0.1963
     72  CA         5.1020   -1.5980   21.6310 C.3    98  ALA98       0.1728
     73  C          6.5290   -1.9630   22.0020 C.2    98  ALA98       0.2616
     74  O          6.7680   -2.6820   22.9720 O.2    98  ALA98      -0.2715
     75  CB         4.7970   -0.1890   22.1200 C.3    98  ALA98       0.0334
     76  N          7.4670   -1.4480   21.2070 N.am   99  TYR99      -0.1974
     77  CA         8.8970   -1.6500   21.3860 C.3    99  TYR99       0.1639
     78  C          9.3910   -0.3290   21.8770 C.2    99  TYR99       0.2290
     79  O          9.6520    0.6020   21.0890 O.2    99  TYR99      -0.2864
     80  CB         9.5480   -2.0360   20.0410 C.3    99  TYR99       0.0560
     81  CG        11.0430   -2.2870   20.0440 C.ar   99  TYR99      -0.0198
     82  CD1       11.7580   -2.4230   21.2420 C.ar   99  TYR99      -0.0009
     83  CD2       11.7430   -2.4540   18.8440 C.ar   99  TYR99      -0.0009
     84  CE1       13.1170   -2.6790   21.2370 C.ar   99  TYR99       0.0417
     85  CE2       13.1060   -2.7390   18.8390 C.ar   99  TYR99       0.0417
     86  CZ        13.7840   -2.8320   20.0510 C.ar   99  TYR99       0.1957
     87  OH        15.1360   -3.0780   20.1080 O.3    99  TYR99      -0.2866
     88  N          6.1410   -2.2070   15.8720 N.3   109  TYR109     -0.1227
     89  CA         7.0440   -2.4080   14.7470 C.3   109  TYR109      0.1736
     90  C          6.6190   -3.5780   13.8700 C.2   109  TYR109      0.2595
     91  O          6.2270   -4.6380   14.3830 O.2   109  TYR109     -0.2718
     92  CB         8.4620   -2.6820   15.2790 C.3   109  TYR109      0.0548
     93  CG         9.1720   -1.4340   15.7300 C.ar  109  TYR109     -0.0200
     94  CD1       10.3160   -0.9980   15.0790 C.ar  109  TYR109     -0.0009
     95  CD2        8.6560   -0.6590   16.7590 C.ar  109  TYR109     -0.0009
     96  CE1       10.9490    0.1840   15.4670 C.ar  109  TYR109      0.0417
     97  CE2        9.2760    0.5290   17.1610 C.ar  109  TYR109      0.0417
     98  CZ        10.4080    0.9500   16.4970 C.ar  109  TYR109      0.1957
     99  OH        11.0290    2.1290   16.8950 O.3   109  TYR109     -0.2866
    100  N          6.7470   -3.4240   12.5500 N.am  110  PHE110     -0.1962
    101  CA         6.4270   -4.4670   11.5870 C.3   110  PHE110      0.1771
    102  C          7.5570   -4.5170   10.5620 C.2   110  PHE110      0.2619
    103  O          8.2690   -3.5210   10.3580 O.2   110  PHE110     -0.2715
    104  CB         5.1190   -4.1790   10.8710 C.3   110  PHE110      0.0574
    105  CG         3.9340   -4.1690   11.7750 C.ar  110  PHE110     -0.0200
    106  CD1        3.1590   -5.3060   11.9370 C.ar  110  PHE110     -0.0042
    107  CD2        3.6090   -3.0340   12.4920 C.ar  110  PHE110     -0.0042
    108  CE1        2.0780   -5.2930   12.7970 C.ar  110  PHE110     -0.0003
    109  CE2        2.5390   -3.0060   13.3390 C.ar  110  PHE110     -0.0003
    110  CZ         1.7630   -4.1490   13.4970 C.ar  110  PHE110     -0.0000
    111  N          7.7290   -5.6770    9.9340 N.am  111  ALA111     -0.1977
    112  CA         8.7850   -5.8690    8.9600 C.3   111  ALA111      0.1597
    113  C          8.2880   -6.4350    7.6380 C.2   111  ALA111      0.2287
    114  O          7.3620   -7.2720    7.5890 O.2   111  ALA111     -0.2864
    115  CB         9.8190   -6.8060    9.5280 C.3   111  ALA111      0.0319
    116  N         13.2820  -10.7670    9.8360 N.3   116  LYS116     -0.1231
    117  CA        13.4570   -9.6790   10.7980 C.3   116  LYS116      0.1693
    118  C         12.4810   -9.8860   11.9580 C.2   116  LYS116      0.2592
    119  O         12.8720   -9.8980   13.1150 O.2   116  LYS116     -0.2718
    120  CB        13.2990   -8.3080   10.1220 C.3   116  LYS116      0.0285
    121  CG        13.1440   -7.1420   11.1010 C.3   116  LYS116      0.0035
    122  CD        14.3140   -7.0120   12.0720 C.3   116  LYS116      0.0206
    123  CE        15.6390   -6.7230   11.4350 C.3   116  LYS116      0.1093
    124  NZ        16.6600   -6.3470   12.4940 N.3   116  LYS116     -0.1314
    125  N         11.2070  -10.1220   11.6380 N.am  117  SER117     -0.1952
    126  CA        10.2220  -10.3880   12.6770 C.3   117  SER117      0.1924
    127  C         10.5510  -11.6750   13.4560 C.2   117  SER117      0.2314
    128  O         10.3060  -11.7310   14.6690 O.2   117  SER117     -0.2863
    129  CB         8.8010  -10.4300   12.0900 C.3   117  SER117      0.2116
    130  OG         8.4000   -9.1700   11.6390 O.3   117  SER117     -0.2180
    131  N         12.2890  -11.4820   16.8210 N.3   120  TYR120     -0.1241
    132  CA        11.5540  -10.9890   17.9870 C.3   120  TYR120      0.1605
    133  C         10.5660  -11.9920   18.5870 C.2   120  TYR120      0.2264
    134  O          9.9270  -11.7010   19.5930 O.2   120  TYR120     -0.2867
    135  CB        10.8360   -9.7010   17.6210 C.3   120  TYR120      0.0534
    136  CG        11.8140   -8.5580   17.4020 C.ar  120  TYR120     -0.0201
    137  CD1       12.2080   -7.7240   18.4560 C.ar  120  TYR120     -0.0009
    138  CD2       12.3740   -8.3410   16.1420 C.ar  120  TYR120     -0.0009
    139  CE1       13.1080   -6.7090   18.2320 C.ar  120  TYR120      0.0417
    140  CE2       13.2880   -7.3540   15.9360 C.ar  120  TYR120      0.0417
    141  CZ        13.6330   -6.5330   16.9730 C.ar  120  TYR120      0.1957
    142  OH        14.5410   -5.5390   16.7330 O.3   120  TYR120     -0.2866
    143  N         12.9400   -9.3510   22.5350 N.3   124  ILE124     -0.1245
    144  CA        13.9500   -8.4450   21.9590 C.3   124  ILE124      0.1561
    145  C         15.3200   -9.1270   21.9350 C.2   124  ILE124      0.2260
    146  O         15.7650   -9.7220   22.9350 O.2   124  ILE124     -0.2867
    147  CB        13.9740   -7.1300   22.7670 C.3   124  ILE124      0.0252
    148  CG1       12.6690   -6.3560   22.5720 C.3   124  ILE124      0.0019
    149  CG2       15.1680   -6.3050   22.3620 C.3   124  ILE124      0.0019
    150  CD1       12.4310   -5.2880   23.6160 C.3   124  ILE124      0.0001
@<TRIPOS>BOND
     1    10    11   ar
     2    10     8   ar
     3    11     9   ar
     4     8     6   ar
     5     9     7   ar
     6   114   113    2
     7   113   112    1
     8     6     7   ar
     9     6     5    1
    10     1     2    1
    11   112   115    1
    12   112   111    1
    13     5     2    1
    14     2     3    1
    15   116   117    1
    16   111   102   am
    17   120   117    1
    18   120   121    1
    19   103   102    2
    20   102   101    1
    21   117   118    1
    22   104   101    1
    23   104   105    1
    24     3     4    2
    25     3    12   am
    26   121   122    1
    27   123   122    1
    28   123   124    1
    29   101   100    1
    30   125   118   am
    31   125   126    1
    32   130   129    1
    33   105   106   ar
    34   105   107   ar
    35   106   108   ar
    36   118   119    2
    37    12    13    1
    38   129   126    1
    39   107   109   ar
    40   100    90   am
    41   126   127    1
    42   108   110   ar
    43    13    16    1
    44    13    14    1
    45   109   110   ar
    46   127   128    2
    47    90    91    2
    48    90    89    1
    49    16    17    1
    50    15    14    2
    51    14    22   am
    52    89    92    1
    53    89    88    1
    54    22    23    1
    55    94    96   ar
    56    94    93   ar
    57    92    93    1
    58    17    18   ar
    59    17    19   ar
    60    96    98   ar
    61    18    20   ar
    62    23    24    1
    63    93    95   ar
    64   140   138   ar
    65   140   141   ar
    66   138   136   ar
    67    98    99    1
    68    98    97   ar
    69    19    21   ar
    70   142   141    1
    71    95    97   ar
    72   131   132    1
    73    20    21   ar
    74   141   139   ar
    75    24    25    2
    76    24    26   am
    77   136   135    1
    78   136   137   ar
    79   135   132    1
    80   132   133    1
    81    26    27    1
    82   139   137   ar
    83   133   134    2
    84    85    83   ar
    85    85    86   ar
    86    83    81   ar
    87    27    30    1
    88    27    28    1
    89    30    31    1
    90    80    81    1
    91    80    77    1
    92    81    82   ar
    93    86    87    1
    94    86    84   ar
    95    29    28    2
    96    28    32   am
    97    64    63    2
    98    79    78    2
    99    76    77    1
   100    76    73   am
   101    84    82   ar
   102    77    78    1
   103    65    66    1
   104    65    62    1
   105    32    38    1
   106    32    33    1
   107    72    73    1
   108    72    75    1
   109    72    71    1
   110    63    71   am
   111    63    62    1
   112    67    66   ar
   113    67    69   ar
   114   145   144    1
   115   145   146    2
   116    41    42    2
   117    41    40    1
   118   144   143    1
   119   144   147    1
   120    73    74    2
   121    38    37    1
   122    66    68   ar
   123   149   147    1
   124    62    61    1
   125   148   147    1
   126   148   150    1
   127    39    40    1
   128    39    34   am
   129    33    34    1
   130    33    36    1
   131    69    70   ar
   132    40    43    1
   133    34    35    2
   134    68    70   ar
   135    43    44    1
   136    37    36    1
   137    61    52   am
   138    46    44   ar
   139    46    48   ar
   140    44    45   ar
   141    52    53    2
   142    52    51    1
   143    48    49   ar
   144    50    51    1
   145    45    47   ar
   146    51    54    1
   147    49    47   ar
   148    54    55    1
   149    55    56    1
   150    57    56    1
   151    57    58    2
   152    60    58    1
   153    58    59    1
