@<TRIPOS>MOLECULE
tmp/4l16A00.pdb
 150 141 0 0 0
SMALL
GASTEIGER

@<TRIPOS>ATOM
      1  N         -0.4390   48.2720    4.8600 N.3    29  ASP29      -0.1225
      2  CA         0.7280   47.3990    4.6150 C.3    29  ASP29       0.1805
      3  C          0.4490   46.2460    3.6310 C.2    29  ASP29       0.2598
      4  O          1.3770   45.6000    3.1330 O.2    29  ASP29      -0.2718
      5  CB         1.4360   46.9720    5.9250 C.3    29  ASP29       0.1424
      6  CG         1.5310   45.4670    6.0980 C.2    29  ASP29       0.3668
      7  OD1        0.4790   44.7890    6.0740 O.co2  29  ASP29      -0.2456
      8  OD2        2.6650   44.9630    6.2770 O.co2  29  ASP29      -0.2456
      9  N         -0.8310   46.0210    3.3310 N.am   30  VAL30      -0.1966
     10  CA        -1.2160   45.1510    2.2280 C.3    30  VAL30       0.1727
     11  C         -1.2160   46.0140    0.9820 C.2    30  VAL30       0.2616
     12  O         -2.0860   46.8520    0.8060 O.2    30  VAL30      -0.2715
     13  CB        -2.6220   44.4960    2.4240 C.3    30  VAL30       0.0290
     14  CG1       -2.9480   43.5350    1.2770 C.3    30  VAL30       0.0023
     15  CG2       -2.7080   43.7670    3.7590 C.3    30  VAL30       0.0023
     16  N         -0.2210   45.8030    0.1300 N.am   31  ALA31      -0.1977
     17  CA        -0.0390   46.5780   -1.0860 C.3    31  ALA31       0.1597
     18  C         -0.7960   45.9810   -2.2610 C.2    31  ALA31       0.2287
     19  O         -0.7570   44.7580   -2.5040 O.2    31  ALA31      -0.2864
     20  CB         1.4410   46.6790   -1.4190 C.3    31  ALA31       0.0319
     21  N         -3.4330   44.4440   -4.7220 N.3    33  LEU33      -0.1245
     22  CA        -4.5660   43.5210   -4.6950 C.3    33  LEU33       0.1561
     23  C         -5.9450   44.2300   -4.7160 C.2    33  LEU33       0.2260
     24  O         -6.8460   43.9040   -3.9380 O.2    33  LEU33      -0.2867
     25  CB        -4.4500   42.5900   -3.4860 C.3    33  LEU33       0.0270
     26  CG        -3.1610   41.7870   -3.3130 C.3    33  LEU33       0.0019
     27  CD1       -3.0480   41.2500   -1.8920 C.3    33  LEU33       0.0001
     28  CD2       -3.0200   40.6410   -4.3320 C.3    33  LEU33       0.0001
     29  N          3.1360   31.3900   -2.6860 N.3    70  PRO70      -0.2102
     30  CA         3.4640   31.7470   -1.3030 C.3    70  PRO70       0.1504
     31  C          3.9780   33.1790   -1.2230 C.2    70  PRO70       0.2576
     32  O          4.3530   33.7680   -2.2420 O.2    70  PRO70      -0.2718
     33  CB         4.5880   30.7720   -0.9460 C.3    70  PRO70       0.0282
     34  CG         4.5600   29.7050   -2.0240 C.3    70  PRO70       0.0208
     35  CD         4.0640   30.3920   -3.2430 C.3    70  PRO70       0.0893
     36  N          3.9710   33.7370   -0.0170 N.am   71  GLY71      -0.1943
     37  CA         4.5120   35.0630    0.2230 C.3    71  GLY71       0.2014
     38  C          3.8050   36.1980   -0.4780 C.2    71  GLY71       0.2640
     39  O          4.4440   37.1660   -0.8690 O.2    71  GLY71      -0.2714
     40  N          2.4840   36.0960   -0.6250 N.am   72  THR72      -0.1936
     41  CA         1.6830   37.1840   -1.1940 C.3    72  THR72       0.2028
     42  C          0.7870   37.8720   -0.1700 C.2    72  THR72       0.2643
     43  O         -0.1620   38.5510   -0.5400 O.2    72  THR72      -0.2714
     44  CB         0.8250   36.7170   -2.3630 C.3    72  THR72       0.1808
     45  OG1        0.1720   35.4850   -2.0220 O.3    72  THR72      -0.2208
     46  CG2        1.6960   36.5130   -3.5930 C.3    72  THR72       0.0379
     47  N          1.1030   37.7110    1.1130 N.am   73  GLY73      -0.1939
     48  CA         0.4210   38.4360    2.1720 C.3    73  GLY73       0.2014
     49  C         -0.9600   37.9180    2.5300 C.2    73  GLY73       0.2639
     50  O         -1.7580   38.6610    3.1180 O.2    73  GLY73      -0.2714
     51  N         -1.2400   36.6580    2.1800 N.am   74  LYS74      -0.1963
     52  CA        -2.5640   36.0590    2.3620 C.3    74  LYS74       0.1728
     53  C         -2.9970   36.1040    3.8060 C.2    74  LYS74       0.2617
     54  O         -4.1030   36.5330    4.1240 O.2    74  LYS74      -0.2715
     55  CB        -2.5860   34.6220    1.8630 C.3    74  LYS74       0.0311
     56  CG        -2.6450   34.5150    0.3540 C.3    74  LYS74       0.0038
     57  CD        -2.9930   33.1280   -0.0600 C.3    74  LYS74       0.0206
     58  CE        -1.8190   32.2130    0.0400 C.3    74  LYS74       0.1093
     59  NZ        -0.9450   32.4380   -1.1370 N.3    74  LYS74      -0.1314
     60  N         -2.1060   35.6920    4.6890 N.am   75  THR75      -0.1937
     61  CA        -2.4140   35.7290    6.1020 C.3    75  THR75       0.2028
     62  C         -2.7390   37.1450    6.6590 C.2    75  THR75       0.2642
     63  O         -3.5500   37.3010    7.5810 O.2    75  THR75      -0.2714
     64  CB        -1.2940   35.0670    6.8760 C.3    75  THR75       0.1808
     65  OG1       -1.6360   35.0460    8.2600 O.3    75  THR75      -0.2208
     66  CG2       -0.0110   35.8480    6.6840 C.3    75  THR75       0.0379
     67  N         -2.1200   38.1800    6.1010 N.am   76  MET76      -0.1976
     68  CA        -2.4100   39.5360    6.5690 C.3    76  MET76       0.1605
     69  C         -3.6890   40.0720    5.9670 C.2    76  MET76       0.2287
     70  O         -4.4390   40.8170    6.6110 O.2    76  MET76      -0.2864
     71  CB        -1.2730   40.5060    6.2660 C.3    76  MET76       0.0413
     72  CG        -1.5160   41.9100    6.8690 C.3    76  MET76       0.0598
     73  SD        -0.8740   42.1520    8.5600 S.3    76  MET76      -0.1393
     74  CE        -2.0140   43.3750    9.1960 C.3    76  MET76       0.0692
     75  N         -9.1450   31.9390   10.4290 N.3   125  PHE125     -0.1241
     76  CA        -8.1570   31.8600    9.3630 C.3   125  PHE125      0.1605
     77  C         -7.3580   30.5710    9.4490 C.2   125  PHE125      0.2264
     78  O         -6.6310   30.3630   10.4070 O.2   125  PHE125     -0.2867
     79  CB        -7.2020   33.0610    9.4150 C.3   125  PHE125      0.0534
     80  CG        -6.2570   33.1140    8.2560 C.ar  125  PHE125     -0.0203
     81  CD1       -6.5880   33.8260    7.1100 C.ar  125  PHE125     -0.0042
     82  CD2       -5.0650   32.4000    8.2830 C.ar  125  PHE125     -0.0042
     83  CE1       -5.7400   33.8410    6.0270 C.ar  125  PHE125     -0.0003
     84  CE2       -4.2010   32.4030    7.1980 C.ar  125  PHE125     -0.0003
     85  CZ        -4.5410   33.1200    6.0670 C.ar  125  PHE125     -0.0000
     86  N         -4.4510   28.5850    7.6750 N.3   127  ASP127     -0.1239
     87  CA        -3.3740   28.6750    6.7110 C.3   127  ASP127      0.1674
     88  C         -2.9910   27.2660    6.2980 C.2   127  ASP127      0.2266
     89  O         -3.0520   26.3450    7.1100 O.2   127  ASP127     -0.2867
     90  CB        -2.1920   29.4200    7.3430 C.3   127  ASP127      0.1410
     91  CG        -1.0590   29.6760    6.3600 C.2   127  ASP127      0.3668
     92  OD1       -1.2960   29.5770    5.1280 O.co2 127  ASP127     -0.2456
     93  OD2        0.0670   29.9800    6.8290 O.co2 127  ASP127     -0.2456
     94  N         -1.3720   27.4730   -1.0090 N.3   166  ASN166     -0.1240
     95  CA        -0.4290   27.7470   -2.0930 C.3   166  ASN166      0.1653
     96  C         -0.5880   26.6720   -3.1410 C.2   166  ASN166      0.2266
     97  O         -0.1100   26.8030   -4.2610 O.2   166  ASN166     -0.2867
     98  CB         1.0230   27.7940   -1.5930 C.3   166  ASN166      0.1155
     99  CG         1.2260   28.8140   -0.4740 C.2   166  ASN166      0.2627
    100  OD1        0.8400   29.9840   -0.5860 O.2   166  ASN166     -0.2716
    101  ND2        1.8150   28.3630    0.6220 N.am  166  ASN166     -0.0877
    102  N          2.9320   40.5330   -6.3300 N.3   188  PRO188     -0.2116
    103  CA         2.8610   41.9930   -6.3800 C.3   188  PRO188      0.1372
    104  C          2.9820   42.5560   -7.7930 C.2   188  PRO188      0.2244
    105  O          3.8680   42.1700   -8.5520 O.2   188  PRO188     -0.2868
    106  CB         4.0770   42.4160   -5.5480 C.3   188  PRO188      0.0268
    107  CG         4.2510   41.3360   -4.5800 C.3   188  PRO188      0.0207
    108  CD         3.9070   40.0730   -5.3260 C.3   188  PRO188      0.0892
    109  N          3.3570   47.6810   -6.8120 N.3   192  SER192     -0.1217
    110  CA         3.1940   47.1170   -5.4800 C.3   192  SER192      0.1889
    111  C          4.5660   46.8200   -4.8870 C.2   192  SER192      0.2288
    112  O          4.8590   47.1950   -3.7500 O.2   192  SER192     -0.2866
    113  CB         2.3490   45.8470   -5.5380 C.3   192  SER192      0.2089
    114  OG         1.0590   46.1100   -6.0610 O.3   192  SER192     -0.2183
    115  N          6.2220   48.0850   -1.0720 N.3   196  ILE196     -0.1245
    116  CA         6.8740   47.1450   -0.1510 C.3   196  ILE196      0.1561
    117  C          8.2960   47.5930    0.1810 C.2   196  ILE196      0.2260
    118  O          8.6500   47.8040    1.3480 O.2   196  ILE196     -0.2867
    119  CB         6.9600   45.7300   -0.7700 C.3   196  ILE196      0.0252
    120  CG1        5.5640   45.1880   -1.0730 C.3   196  ILE196      0.0019
    121  CG2        7.7430   44.7950    0.1210 C.3   196  ILE196      0.0019
    122  CD1        5.5850   43.8780   -1.7600 C.3   196  ILE196      0.0001
    123  N          9.9210   48.6050    3.8270 N.3   200  LEU200     -0.1245
    124  CA        11.0340   47.8360    4.3730 C.3   200  LEU200      0.1561
    125  C         12.2790   48.7030    4.6320 C.2   200  LEU200      0.2260
    126  O         13.0670   48.4280    5.5340 O.2   200  LEU200     -0.2867
    127  CB        11.3510   46.6540    3.4330 C.3   200  LEU200      0.0270
    128  CG        10.7000   45.2680    3.6580 C.3   200  LEU200      0.0019
    129  CD1        9.5230   45.3210    4.6020 C.3   200  LEU200      0.0001
    130  CD2       10.2990   44.5680    2.3690 C.3   200  LEU200      0.0001
    131  N          6.0230   39.2100   -2.2170 N.3   225  GLY225     -0.1210
    132  CA         6.3280   40.2720   -1.2810 C.3   225  GLY225      0.1956
    133  C          7.2980   39.7660   -0.2460 C.2   225  GLY225      0.2611
    134  O          7.9210   40.5470    0.4730 O.2   225  GLY225     -0.2717
    135  N          7.4040   38.4390   -0.1790 N.am  226  ALA226     -0.1979
    136  CA         8.3050   37.7550    0.7330 C.3   226  ALA226      0.1597
    137  C          9.7210   37.7740    0.1570 C.2   226  ALA226      0.2287
    138  O         10.7070   37.9850    0.8810 O.2   226  ALA226     -0.2864
    139  CB         7.8450   36.3600    0.9290 C.3   226  ALA226      0.0319
    140  N         11.0730   41.1840    0.5620 N.3   229  ARG229     -0.1245
    141  CA        11.6560   41.3240    1.8800 C.3   229  ARG229      0.1563
    142  C         13.0460   40.7120    1.9430 C.2   229  ARG229      0.2260
    143  O         13.9680   41.2950    2.5210 O.2   229  ARG229     -0.2867
    144  CB        10.7670   40.6890    2.9320 C.3   229  ARG229      0.0307
    145  CG        11.5020   40.5130    4.2240 C.3   229  ARG229      0.0489
    146  CD        10.5930   40.0210    5.3010 C.3   229  ARG229      0.2205
    147  NE        10.0710   41.1440    6.0600 N.pl3 229  ARG229     -0.0865
    148  CZ        10.7290   41.7370    7.0530 C.cat 229  ARG229      0.5346
    149  NH1       11.9370   41.2970    7.4110 N.pl3 229  ARG229      0.1354
    150  NH2       10.1720   42.7680    7.6890 N.pl3 229  ARG229      0.1354
@<TRIPOS>BOND
     1   105   104    2
     2   104   103    1
     3   109   110    1
     4   103   102    1
     5   103   106    1
     6   102   108    1
     7   114   113    1
     8   106   107    1
     9   113   110    1
    10   110   111    1
    11   108   107    1
    12   111   112    2
    13    21    22    1
    14    23    22    1
    15    23    24    2
    16    22    25    1
    17    28    26    1
    18    97    96    2
    19    46    44    1
    20    25    26    1
    21    26    27    1
    22    35    29    1
    23    35    34    1
    24    96    95    1
    25    29    30    1
    26    19    18    2
    27    44    45    1
    28    44    41    1
    29    18    17    1
    30    32    31    2
    31   131   132    1
    32    95    98    1
    33    95    94    1
    34    34    33    1
    35   122   120    1
    36    98    99    1
    37    20    17    1
    38    30    31    1
    39    30    33    1
    40   132   133    1
    41    31    36   am
    42    41    40    1
    43    41    42    1
    44    59    58    1
    45    17    16    1
    46   120   119    1
    47   115   116    1
    48    39    38    2
    49   119   116    1
    50   119   121    1
    51    40    38   am
    52   100    99    2
    53    43    42    2
    54    38    37    1
    55    99   101   am
    56   133   135   am
    57   133   134    2
    58   135   136    1
    59    42    47   am
    60   116   117    1
    61    57    58    1
    62    57    56    1
    63    36    37    1
    64    16    11   am
    65   137   136    1
    66   137   138    2
    67   117   118    2
    68    56    55    1
    69   140   141    1
    70   136   139    1
    71    12    11    2
    72    11    10    1
    73    47    48    1
    74    14    13    1
    75    55    52    1
    76   141   142    1
    77   141   144    1
    78   142   143    2
    79    48    49    1
    80    51    52    1
    81    51    49   am
    82    10    13    1
    83    10     9    1
    84    52    53    1
    85   130   128    1
    86    13    15    1
    87    49    50    2
    88   144   145    1
    89     4     3    2
    90     9     3   am
    91   127   128    1
    92   127   124    1
    93     3     2    1
    94   128   129    1
    95    53    54    2
    96    53    60   am
    97   123   124    1
    98   145   146    1
    99   124   125    1
   100     2     1    1
   101     2     5    1
   102   125   126    2
   103    60    61    1
   104    92    91   ar
   105   146   147    1
   106     5     6    1
   107    69    68    1
   108    69    70    2
   109    83    85   ar
   110    83    81   ar
   111   147   148    2
   112    85    84   ar
   113     7     6   ar
   114     6     8   ar
   115    67    68    1
   116    67    62   am
   117    61    62    1
   118    61    64    1
   119    71    68    1
   120    71    72    1
   121    88    87    1
   122    88    89    2
   123    91    93   ar
   124    91    90    1
   125    62    63    2
   126    66    64    1
   127    87    90    1
   128    87    86    1
   129    72    73    1
   130    64    65    1
   131   148   149    1
   132   148   150    1
   133    81    80   ar
   134    84    82   ar
   135    80    82   ar
   136    80    79    1
   137    73    74    1
   138    76    79    1
   139    76    77    1
   140    76    75    1
   141    77    78    2
