@<TRIPOS>MOLECULE
tmp/4l17B00.pdb
 147 140 0 0 0
SMALL
GASTEIGER

@<TRIPOS>ATOM
      1  N          4.2140   44.7160   83.9200 N.3    10  GLU10      -0.1245
      2  CA         3.8210   43.4310   83.3520 C.3    10  GLU10       0.1567
      3  C          5.0370   42.6960   82.7970 C.2    10  GLU10       0.2260
      4  O          5.7800   43.2400   81.9820 O.2    10  GLU10      -0.2867
      5  CB         2.7860   43.6370   82.2440 C.3    10  GLU10       0.0388
      6  CG         2.2230   42.3500   81.6610 C.3    10  GLU10       0.1160
      7  CD         1.2100   41.6860   82.5740 C.2    10  GLU10       0.3649
      8  OE1        0.0260   42.0850   82.5370 O.co2  10  GLU10      -0.2457
      9  OE2        1.5960   40.7660   83.3260 O.co2  10  GLU10      -0.2457
     10  N          7.7880   42.5480   80.1050 N.3    13  TYR13      -0.1241
     11  CA         7.9140   43.9020   79.5800 C.3    13  TYR13       0.1605
     12  C          8.5800   44.8310   80.5900 C.2    13  TYR13       0.2264
     13  O          9.6390   45.3980   80.3210 O.2    13  TYR13      -0.2867
     14  CB         6.5410   44.4420   79.1770 C.3    13  TYR13       0.0534
     15  CG         5.7580   43.4870   78.3040 C.ar   13  TYR13      -0.0201
     16  CD1        5.9030   43.4980   76.9220 C.ar   13  TYR13      -0.0009
     17  CD2        4.8800   42.5680   78.8620 C.ar   13  TYR13      -0.0009
     18  CE1        5.1910   42.6230   76.1210 C.ar   13  TYR13       0.0417
     19  CE2        4.1640   41.6900   78.0710 C.ar   13  TYR13       0.0417
     20  CZ         4.3230   41.7220   76.7020 C.ar   13  TYR13       0.1957
     21  OH         3.6100   40.8480   75.9130 O.3    13  TYR13      -0.2866
     22  N         -4.1660   49.3850   81.6780 N.3    58  TYR58      -0.1241
     23  CA        -3.7350   49.7850   80.3440 C.3    58  TYR58       0.1605
     24  C         -4.4730   51.0280   79.8540 C.2    58  TYR58       0.2264
     25  O         -3.8490   52.0430   79.5440 O.2    58  TYR58      -0.2867
     26  CB        -3.8860   48.6280   79.3540 C.3    58  TYR58       0.0534
     27  CG        -2.8810   47.5210   79.5780 C.ar   58  TYR58      -0.0201
     28  CD1       -1.6250   47.5680   78.9870 C.ar   58  TYR58      -0.0009
     29  CD2       -3.1820   46.4340   80.3870 C.ar   58  TYR58      -0.0009
     30  CE1       -0.7000   46.5630   79.1910 C.ar   58  TYR58       0.0417
     31  CE2       -2.2640   45.4220   80.5970 C.ar   58  TYR58       0.0417
     32  CZ        -1.0240   45.4920   79.9970 C.ar   58  TYR58       0.1957
     33  OH        -0.1050   44.4890   80.2030 O.3    58  TYR58      -0.2866
     34  N          3.0460   47.1260   76.5320 N.3    86  PRO86      -0.2102
     35  CA         2.2350   46.2710   75.6590 C.3    86  PRO86       0.1504
     36  C          0.7990   46.7750   75.5610 C.2    86  PRO86       0.2576
     37  O         -0.1260   46.0890   75.9930 O.2    86  PRO86      -0.2718
     38  CB         2.2720   44.9150   76.3680 C.3    86  PRO86       0.0282
     39  CG         2.5170   45.2470   77.7990 C.3    86  PRO86       0.0208
     40  CD         3.4310   46.4360   77.7760 C.3    86  PRO86       0.0893
     41  N          0.6260   47.9660   74.9980 N.am   87  LEU87      -0.1966
     42  CA        -0.6910   48.5720   74.8470 C.3    87  LEU87       0.1728
     43  C         -1.2370   48.3010   73.4480 C.2    87  LEU87       0.2616
     44  O         -0.7380   48.8450   72.4640 O.2    87  LEU87      -0.2715
     45  CB        -0.6030   50.0790   75.0960 C.3    87  LEU87       0.0311
     46  CG        -1.9040   50.8810   75.1350 C.3    87  LEU87       0.0022
     47  CD1       -2.7610   50.4620   76.3180 C.3    87  LEU87       0.0001
     48  CD2       -1.5980   52.3660   75.1980 C.3    87  LEU87       0.0001
     49  N         -2.2620   47.4570   73.3650 N.am   88  THR88      -0.1951
     50  CA        -2.8180   47.0560   72.0760 C.3    88  THR88       0.1897
     51  C         -3.4790   48.2240   71.3530 C.2    88  THR88       0.2313
     52  O         -4.2280   48.9970   71.9510 O.2    88  THR88      -0.2863
     53  CB        -3.8440   45.9140   72.2210 C.3    88  THR88       0.1794
     54  OG1       -5.0840   46.4380   72.7100 O.3    88  THR88      -0.2208
     55  CG2       -3.3280   44.8500   73.1770 C.3    88  THR88       0.0378
     56  N         -9.0990   53.7680   71.3740 N.3    93  ARG93      -0.1245
     57  CA        -7.8760   54.3600   71.9030 C.3    93  ARG93       0.1563
     58  C         -7.1990   55.2530   70.8700 C.2    93  ARG93       0.2260
     59  O         -6.6030   56.2720   71.2140 O.2    93  ARG93      -0.2867
     60  CB        -6.9110   53.2720   72.3730 C.3    93  ARG93       0.0307
     61  CG        -7.3240   52.6090   73.6710 C.3    93  ARG93       0.0489
     62  CD        -6.4420   51.4170   73.9860 C.3    93  ARG93       0.2205
     63  NE        -6.7540   50.8440   75.2900 N.pl3  93  ARG93      -0.0865
     64  CZ        -6.3640   49.6380   75.6880 C.cat  93  ARG93       0.5346
     65  NH1       -5.6530   48.8690   74.8760 N.pl3  93  ARG93       0.1354
     66  NH2       -6.6940   49.1990   76.8930 N.pl3  93  ARG93       0.1354
     67  N        -10.7630   36.7100   80.1590 N.3   135  LEU135     -0.1245
     68  CA       -10.8250   37.7980   81.1240 C.3   135  LEU135      0.1561
     69  C        -12.2100   38.4330   81.0620 C.2   135  LEU135      0.2260
     70  O        -12.7850   38.5740   79.9830 O.2   135  LEU135     -0.2867
     71  CB        -9.7470   38.8380   80.8200 C.3   135  LEU135      0.0270
     72  CG        -9.5760   39.9700   81.8320 C.3   135  LEU135      0.0019
     73  CD1       -9.2870   39.4060   83.2120 C.3   135  LEU135      0.0001
     74  CD2       -8.4680   40.9130   81.3910 C.3   135  LEU135      0.0001
     75  N        -12.0110   43.3850   78.3500 N.3   138  GLY138     -0.1210
     76  CA       -10.9260   43.5550   77.4020 C.3   138  GLY138      0.1956
     77  C        -11.3130   43.1420   75.9970 C.2   138  GLY138      0.2612
     78  O        -12.4010   42.6150   75.7700 O.2   138  GLY138     -0.2717
     79  N        -10.4120   43.3810   75.0500 N.am  139  SER139     -0.1952
     80  CA       -10.6660   43.0700   73.6490 C.3   139  SER139      0.1924
     81  C        -10.8820   41.5760   73.4280 C.2   139  SER139      0.2314
     82  O        -11.5950   41.1730   72.5100 O.2   139  SER139     -0.2863
     83  CB        -9.5160   43.5720   72.7750 C.3   139  SER139      0.2116
     84  OG        -8.2750   43.0460   73.2130 O.3   139  SER139     -0.2180
     85  N         -5.5380   38.3630   84.7210 N.3   171  THR171     -0.1218
     86  CA        -4.8170   37.3800   83.9210 C.3   171  THR171      0.1862
     87  C         -4.1350   36.3350   84.7960 C.2   171  THR171      0.2287
     88  O         -4.2400   35.1360   84.5400 O.2   171  THR171     -0.2866
     89  CB        -3.7650   38.0510   83.0200 C.3   171  THR171      0.1770
     90  OG1       -4.4240   38.7570   81.9620 O.3   171  THR171     -0.2211
     91  CG2       -2.8350   37.0100   82.4190 C.3   171  THR171      0.0375
     92  N         -7.7780   28.5520   79.0800 N.3   187  TYR187     -0.1241
     93  CA        -7.8190   30.0070   79.1660 C.3   187  TYR187      0.1605
     94  C         -7.4560   30.6700   77.8400 C.2   187  TYR187      0.2264
     95  O         -6.4420   30.3430   77.2250 O.2   187  TYR187     -0.2867
     96  CB        -6.8940   30.4970   80.2840 C.3   187  TYR187      0.0534
     97  CG        -6.9320   31.9900   80.5150 C.ar  187  TYR187     -0.0201
     98  CD1       -8.1140   32.6300   80.8620 C.ar  187  TYR187     -0.0009
     99  CD2       -5.7800   32.7580   80.4050 C.ar  187  TYR187     -0.0009
    100  CE1       -8.1510   33.9950   81.0790 C.ar  187  TYR187      0.0417
    101  CE2       -5.8070   34.1220   80.6230 C.ar  187  TYR187      0.0417
    102  CZ        -6.9940   34.7350   80.9590 C.ar  187  TYR187      0.1957
    103  OH        -7.0230   36.0940   81.1740 O.3   187  TYR187     -0.2866
    104  N         -6.2770   33.9530   75.9800 N.3   189  LEU189     -0.1231
    105  CA        -5.5940   35.2120   76.2530 C.3   189  LEU189      0.1693
    106  C         -4.7060   35.6400   75.0910 C.2   189  LEU189      0.2591
    107  O         -4.6900   35.0020   74.0400 O.2   189  LEU189     -0.2718
    108  CB        -4.7540   35.0980   77.5280 C.3   189  LEU189      0.0284
    109  CG        -3.4990   34.2220   77.4600 C.3   189  LEU189      0.0019
    110  CD1       -2.6540   34.3920   78.7140 C.3   189  LEU189      0.0001
    111  CD2       -3.8550   32.7590   77.2460 C.3   189  LEU189      0.0001
    112  N         -3.9680   36.7270   75.2900 N.am  190  GLU190     -0.1979
    113  CA        -3.0410   37.2200   74.2820 C.3   190  GLU190      0.1602
    114  C         -1.9060   36.2240   74.0780 C.2   190  GLU190      0.2287
    115  O         -1.3650   35.6830   75.0400 O.2   190  GLU190     -0.2864
    116  CB        -2.4800   38.5830   74.6920 C.3   190  GLU190      0.0415
    117  CG        -3.5420   39.6310   74.9880 C.3   190  GLU190      0.1163
    118  CD        -4.3840   39.9750   73.7730 C.2   190  GLU190      0.3649
    119  OE1       -3.9860   39.6110   72.6450 O.co2 190  GLU190     -0.2457
    120  OE2       -5.4450   40.6110   73.9460 O.co2 190  GLU190     -0.2457
    121  N          1.1640   36.6170   73.2000 N.3   192  THR192     -0.1203
    122  CA         2.4330   37.0450   73.7790 C.3   192  THR192      0.1994
    123  C          2.5870   36.5640   75.2170 C.2   192  THR192      0.2617
    124  O          3.6630   36.1250   75.6220 O.2   192  THR192     -0.2717
    125  CB         2.5890   38.5770   73.7400 C.3   192  THR192      0.1784
    126  OG1        1.4580   39.1910   74.3710 O.3   192  THR192     -0.2211
    127  CG2        2.6890   39.0650   72.3040 C.3   192  THR192      0.0376
    128  N          1.5070   36.6510   75.9860 N.am  193  MET193     -0.1979
    129  CA         1.5220   36.2070   77.3730 C.3   193  MET193      0.1605
    130  C          1.5200   34.6860   77.4410 C.2   193  MET193      0.2287
    131  O          2.2390   34.0870   78.2400 O.2   193  MET193     -0.2864
    132  CB         0.3140   36.7680   78.1270 C.3   193  MET193      0.0413
    133  CG         0.2900   36.4310   79.6100 C.3   193  MET193      0.0598
    134  SD         1.6960   37.1170   80.5050 S.3   193  MET193     -0.1393
    135  CE         1.4840   38.8660   80.1810 C.3   193  MET193      0.0692
    136  N          0.8310   45.6510   69.5980 N.3   217  TYR217     -0.1241
    137  CA         1.2850   46.5570   70.6440 C.3   217  TYR217      0.1605
    138  C          1.9360   47.7800   70.0120 C.2   217  TYR217      0.2264
    139  O          2.7300   47.6560   69.0800 O.2   217  TYR217     -0.2867
    140  CB         2.2900   45.8610   71.5630 C.3   217  TYR217      0.0534
    141  CG         1.7080   44.7460   72.4020 C.ar  217  TYR217     -0.0201
    142  CD1        0.3590   44.7250   72.7300 C.ar  217  TYR217     -0.0009
    143  CD2        2.5120   43.7150   72.8700 C.ar  217  TYR217     -0.0009
    144  CE1       -0.1720   43.7070   73.4990 C.ar  217  TYR217      0.0417
    145  CE2        1.9900   42.6940   73.6380 C.ar  217  TYR217      0.0417
    146  CZ         0.6490   42.6940   73.9510 C.ar  217  TYR217      0.1957
    147  OH         0.1290   41.6760   74.7170 O.3   217  TYR217     -0.2866
@<TRIPOS>BOND
     1   139   138    2
     2   136   137    1
     3   138   137    1
     4   137   140    1
     5    58    59    2
     6    58    57    1
     7    51    52    2
     8    51    50    1
     9    56    57    1
    10   140   141    1
    11    57    60    1
    12    50    53    1
    13    50    49    1
    14    53    54    1
    15    53    55    1
    16   127   125    1
    17    60    61    1
    18   141   142   ar
    19   141   143   ar
    20    44    43    2
    21    82    81    2
    22   119   118   ar
    23   142   144   ar
    24    83    84    1
    25    83    80    1
    26   143   145   ar
    27   121   122    1
    28    49    43   am
    29    81    80    1
    30    43    42    1
    31   144   146   ar
    32   145   146   ar
    33    80    79    1
    34    61    62    1
    35   125   122    1
    36   125   126    1
    37   118   120   ar
    38   118   117    1
    39   122   123    1
    40   146   147    1
    41    62    63    1
    42   107   106    2
    43   114   113    1
    44   114   115    2
    45   113   116    1
    46   113   112    1
    47   116   117    1
    48    42    41    1
    49    42    45    1
    50    65    64    1
    51    41    36   am
    52    79    77   am
    53   106   112   am
    54   106   105    1
    55    45    46    1
    56    46    48    1
    57    46    47    1
    58   123   124    2
    59   123   128   am
    60    63    64    2
    61    36    35    1
    62    36    37    2
    63    35    38    1
    64    35    34    1
    65    64    66    1
    66    78    77    2
    67    21    20    1
    68   104   105    1
    69   128   129    1
    70    77    76    1
    71    18    20   ar
    72    18    16   ar
    73   105   108    1
    74    38    39    1
    75    34    40    1
    76    20    19   ar
    77    16    15   ar
    78    95    94    2
    79   111   109    1
    80   129   130    1
    81   129   132    1
    82    76    75    1
    83   130   131    2
    84   109   108    1
    85   109   110    1
    86    40    39    1
    87    94    93    1
    88    19    17   ar
    89   132   133    1
    90    15    17   ar
    91    15    14    1
    92    28    30   ar
    93    28    27   ar
    94    92    93    1
    95    93    96    1
    96    14    11    1
    97    30    32   ar
    98    26    27    1
    99    26    23    1
   100    25    24    2
   101    27    29   ar
   102    11    10    1
   103    11    12    1
   104   133   134    1
   105    24    23    1
   106    70    69    2
   107    32    33    1
   108    32    31   ar
   109    67    68    1
   110   135   134    1
   111    96    97    1
   112    13    12    2
   113    23    22    1
   114    29    31   ar
   115    99    97   ar
   116    99   101   ar
   117    97    98   ar
   118   101   102   ar
   119    71    68    1
   120    71    72    1
   121    98   100   ar
   122   102   100   ar
   123   102   103    1
   124    69    68    1
   125    74    72    1
   126     6     5    1
   127     6     7    1
   128    72    73    1
   129    90    89    1
   130     4     3    2
   131     5     2    1
   132    91    89    1
   133     8     7   ar
   134     7     9   ar
   135     3     2    1
   136    89    86    1
   137     2     1    1
   138    86    85    1
   139    86    87    1
   140    88    87    2
