@<TRIPOS>MOLECULE
tmp/4l19B00.pdb
 164 164 0 0 0
SMALL
GASTEIGER

@<TRIPOS>ATOM
      1  N         11.8910   16.0590   12.0070 N.3    82  LEU82      -0.1231
      2  CA        13.0010   15.1730   12.3480 C.3    82  LEU82       0.1693
      3  C         12.5820   13.7160   12.3360 C.2    82  LEU82       0.2591
      4  O         13.3510   12.8350   11.9610 O.2    82  LEU82      -0.2718
      5  CB        13.4810   15.4650   13.7690 C.3    82  LEU82       0.0284
      6  CG        13.8460   16.8880   14.1290 C.3    82  LEU82       0.0019
      7  CD1       14.2160   16.9500   15.6030 C.3    82  LEU82       0.0001
      8  CD2       14.9950   17.3370   13.2460 C.3    82  LEU82       0.0001
      9  N         11.3670   13.4720   12.7980 N.am   83  ALA83      -0.1980
     10  CA        10.8950   12.1190   13.0200 C.3    83  ALA83       0.1597
     11  C          9.4470   12.1850   13.4420 C.2    83  ALA83       0.2287
     12  O          8.9700   13.2280   13.8720 O.2    83  ALA83      -0.2864
     13  CB        11.7180   11.4420   14.1280 C.3    83  ALA83       0.0319
     14  N         18.0340   10.6380   22.1440 N.3   115  LEU115     -0.1231
     15  CA        17.0290   11.5720   22.6540 C.3   115  LEU115      0.1693
     16  C         15.7850   11.6010   21.7830 C.2   115  LEU115      0.2591
     17  O         14.6690   11.5790   22.2970 O.2   115  LEU115     -0.2718
     18  CB        17.5850   12.9910   22.7500 C.3   115  LEU115      0.0284
     19  CG        18.4800   13.3200   23.9330 C.3   115  LEU115      0.0019
     20  CD1       19.0710   14.7170   23.7570 C.3   115  LEU115      0.0001
     21  CD2       17.6830   13.2210   25.2240 C.3   115  LEU115      0.0001
     22  N         15.9680   11.6860   20.4650 N.am  116  VAL116     -0.1980
     23  CA        14.8210   11.7500   19.5690 C.3   116  VAL116      0.1595
     24  C         14.0410   10.4480   19.6260 C.2   116  VAL116      0.2287
     25  O         12.8150   10.4590   19.6520 O.2   116  VAL116     -0.2864
     26  CB        15.2410   12.0840   18.1210 C.3   116  VAL116      0.0276
     27  CG1       14.0300   12.0160   17.1490 C.3   116  VAL116      0.0022
     28  CG2       15.9090   13.4620   18.0840 C.3   116  VAL116      0.0022
     29  N         11.9340   10.1760   22.8190 N.3   119  HIS119     -0.1226
     30  CA        10.7390   10.9950   22.5990 C.3   119  HIS119      0.1752
     31  C          9.7420   10.2980   21.6740 C.2   119  HIS119      0.2595
     32  O          8.5500   10.1980   21.9860 O.2   119  HIS119     -0.2718
     33  CB        11.1620   12.3480   22.0130 C.3   119  HIS119      0.0759
     34  CG        10.0200   13.2480   21.6280 C.ar  119  HIS119      0.0818
     35  ND1        9.6070   14.2950   22.4200 N.ar  119  HIS119     -0.2268
     36  CD2        9.2340   13.2670   20.5280 C.ar  119  HIS119      0.1154
     37  CE1        8.5940   14.9140   21.8280 C.ar  119  HIS119      0.1986
     38  NE2        8.3640   14.3230   20.6740 N.ar  119  HIS119     -0.2212
     39  N         10.2130    9.8080   20.5330 N.am  120  GLU120     -0.1979
     40  CA         9.3020    9.1420   19.6080 C.3   120  GLU120      0.1602
     41  C          8.6550    7.9050   20.2280 C.2   120  GLU120      0.2287
     42  O          7.4710    7.6440   20.0080 O.2   120  GLU120     -0.2864
     43  CB        10.0120    8.7590   18.3100 C.3   120  GLU120      0.0415
     44  CG        10.5000    9.9590   17.4990 C.3   120  GLU120      0.1163
     45  CD         9.4040   10.9840   17.2080 C.2   120  GLU120      0.3649
     46  OE1        8.2310   10.5880   17.0310 O.co2 120  GLU120     -0.2457
     47  OE2        9.7240   12.1980   17.1480 O.co2 120  GLU120     -0.2457
     48  N          2.3030   15.4150   23.4080 N.3   129  HIS129     -0.1241
     49  CA         3.2680   16.4150   23.8580 C.3   129  HIS129      0.1621
     50  C          2.9190   17.0200   25.2080 C.2   129  HIS129      0.2264
     51  O          1.7520   17.0980   25.5900 O.2   129  HIS129     -0.2867
     52  CB         3.4470   17.5100   22.8090 C.3   129  HIS129      0.0745
     53  CG         4.1890   17.0480   21.5990 C.ar  129  HIS129      0.0817
     54  ND1        3.8360   17.4160   20.3190 N.ar  129  HIS129     -0.2268
     55  CD2        5.2610   16.2340   21.4790 C.ar  129  HIS129      0.1154
     56  CE1        4.6660   16.8440   19.4590 C.ar  129  HIS129      0.1986
     57  NE2        5.5390   16.1250   20.1400 N.ar  129  HIS129     -0.2212
     58  N         10.9580   21.2230   30.2880 N.3   134  GLY134     -0.1210
     59  CA        11.9740   20.2960   30.7390 C.3   134  GLY134      0.1956
     60  C         11.6400   18.8380   30.4810 C.2   134  GLY134      0.2612
     61  O         12.4650   17.9580   30.7120 O.2   134  GLY134     -0.2717
     62  N         10.4330   18.5780   29.9970 N.am  135  ALA135     -0.1965
     63  CA         9.9880   17.2070   29.7730 C.3   135  ALA135      0.1728
     64  C         10.5880   16.6430   28.4960 C.2   135  ALA135      0.2616
     65  O         10.8420   17.3760   27.5490 O.2   135  ALA135     -0.2715
     66  CB         8.4680   17.1510   29.6930 C.3   135  ALA135      0.0334
     67  N         10.8040   15.3310   28.4770 N.am  136  LEU136     -0.1977
     68  CA        11.2170   14.6450   27.2670 C.3   136  LEU136      0.1596
     69  C         10.1820   14.8210   26.1560 C.2   136  LEU136      0.2287
     70  O         10.5360   14.9220   24.9690 O.2   136  LEU136     -0.2864
     71  CB        11.4300   13.1540   27.5580 C.3   136  LEU136      0.0297
     72  CG        11.8480   12.2880   26.3720 C.3   136  LEU136      0.0022
     73  CD1       13.2070   12.7230   25.8290 C.3   136  LEU136      0.0001
     74  CD2       11.8770   10.8280   26.7680 C.3   136  LEU136      0.0001
     75  N          8.2850   17.3860   25.5580 N.3   138  PHE138     -0.1228
     76  CA         8.1290   18.7540   25.0670 C.3   138  PHE138      0.1721
     77  C          8.2650   18.6980   23.5430 C.2   138  PHE138      0.2437
     78  O          8.9980   17.8630   23.0290 O.2   138  PHE138     -0.2733
     79  CB         9.2030   19.6580   25.6860 C.3   138  PHE138      0.0547
     80  CG         8.9720   21.1270   25.4700 C.ar  138  PHE138     -0.0202
     81  CD1        7.8840   21.7650   26.0400 C.ar  138  PHE138     -0.0042
     82  CD2        9.8700   21.8770   24.7290 C.ar  138  PHE138     -0.0042
     83  CE1        7.6790   23.1440   25.8460 C.ar  138  PHE138     -0.0003
     84  CE2        9.6700   23.2390   24.5280 C.ar  138  PHE138     -0.0003
     85  CZ         8.5710   23.8700   25.0910 C.ar  138  PHE138     -0.0000
     86  N          7.5300   19.5550   22.8160 N.am  139  PRO139     -0.2718
     87  CA         7.5020   19.3950   21.3550 C.3   139  PRO139      0.1535
     88  C          8.7610   19.8220   20.6050 C.2   139  PRO139      0.2598
     89  O          8.8800   19.5030   19.4210 O.2   139  PRO139     -0.2715
     90  CB         6.3040   20.2430   20.9140 C.3   139  PRO139      0.0310
     91  CG         5.9250   21.0660   22.0770 C.3   139  PRO139      0.0237
     92  CD         6.4520   20.4280   23.3100 C.3   139  PRO139      0.0939
     93  N          9.6820   20.5070   21.2690 N.am  140  ILE140     -0.1964
     94  CA        10.8670   21.0270   20.5940 C.3   140  ILE140      0.1727
     95  C         12.1510   20.3890   21.0970 C.2   140  ILE140      0.2616
     96  O         12.4250   20.3710   22.2960 O.2   140  ILE140     -0.2715
     97  CB        10.9760   22.5360   20.7850 C.3   140  ILE140      0.0290
     98  CG1        9.6790   23.1990   20.3410 C.3   140  ILE140      0.0022
     99  CG2       12.1530   23.1040   20.0000 C.3   140  ILE140      0.0023
    100  CD1        9.5370   24.5590   20.8740 C.3   140  ILE140      0.0001
    101  N         12.9390   19.8730   20.1600 N.am  141  TYR141     -0.1960
    102  CA        14.2300   19.2760   20.4710 C.3   141  TYR141      0.1771
    103  C         15.2150   20.3150   20.9740 C.2   141  TYR141      0.2620
    104  O         15.4240   21.3490   20.3460 O.2   141  TYR141     -0.2715
    105  CB        14.8140   18.6000   19.2270 C.3   141  TYR141      0.0574
    106  CG        16.1960   18.0230   19.4260 C.ar  141  TYR141     -0.0198
    107  CD1       17.3370   18.7970   19.2050 C.ar  141  TYR141     -0.0009
    108  CD2       16.3680   16.7040   19.8310 C.ar  141  TYR141     -0.0009
    109  CE1       18.5990   18.2710   19.3870 C.ar  141  TYR141      0.0417
    110  CE2       17.6320   16.1720   20.0090 C.ar  141  TYR141      0.0417
    111  CZ        18.7410   16.9570   19.7870 C.ar  141  TYR141      0.1957
    112  OH        20.0000   16.4320   19.9670 O.3   141  TYR141     -0.2866
    113  N         15.8190   20.0270   22.1150 N.am  142  THR142     -0.1937
    114  CA        16.9830   20.7630   22.5720 C.3   142  THR142      0.2028
    115  C         17.9620   19.7290   23.0910 C.2   142  THR142      0.2642
    116  O         17.5760   18.6110   23.4190 O.2   142  THR142     -0.2714
    117  CB        16.6470   21.7620   23.6980 C.3   142  THR142      0.1808
    118  OG1       16.0890   21.0560   24.8160 O.3   142  THR142     -0.2208
    119  CG2       15.6650   22.8250   23.2130 C.3   142  THR142      0.0379
    120  N         19.2320   20.1020   23.1490 N.am  143  TYR143     -0.1959
    121  CA        20.2490   19.2300   23.6950 C.3   143  TYR143      0.1771
    122  C         21.1050   20.0540   24.6190 C.2   143  TYR143      0.2620
    123  O         21.9030   20.8570   24.1570 O.2   143  TYR143     -0.2715
    124  CB        21.1580   18.6650   22.5980 C.3   143  TYR143      0.0574
    125  CG        22.2370   17.7240   23.1250 C.ar  143  TYR143     -0.0198
    126  CD1       23.4020   18.2030   23.7270 C.ar  143  TYR143     -0.0009
    127  CD2       22.0800   16.3500   23.0290 C.ar  143  TYR143     -0.0009
    128  CE1       24.3630   17.3290   24.2180 C.ar  143  TYR143      0.0417
    129  CE2       23.0370   15.4820   23.5080 C.ar  143  TYR143      0.0417
    130  CZ        24.1720   15.9670   24.0990 C.ar  143  TYR143      0.1957
    131  OH        25.1040   15.0670   24.5660 O.3   143  TYR143     -0.2866
    132  N         20.9810   19.9050   25.9220 N.am  144  THR144     -0.1951
    133  CA        22.0940   20.4340   26.6990 C.3   144  THR144      0.1897
    134  C         22.8290   19.2670   27.3200 C.2   144  THR144      0.2313
    135  O         22.2290   18.4090   27.9590 O.2   144  THR144     -0.2863
    136  CB        21.7230   21.5690   27.6660 C.3   144  THR144      0.1794
    137  OG1       20.4310   22.1070   27.3290 O.3   144  THR144     -0.2208
    138  CG2       22.7680   22.6790   27.5330 C.3   144  THR144      0.0378
    139  N         21.4000   10.7820   31.6320 N.3   149  PHE149     -0.1227
    140  CA        20.0140   11.0990   31.3150 C.3   149  PHE149      0.1736
    141  C         19.1200   10.5970   32.4380 C.2   149  PHE149      0.2595
    142  O         19.2760    9.4730   32.9120 O.2   149  PHE149     -0.2718
    143  CB        19.5720   10.4710   29.9910 C.3   149  PHE149      0.0547
    144  CG        18.1340   10.7510   29.6470 C.ar  149  PHE149     -0.0202
    145  CD1       17.7830   11.9150   28.9830 C.ar  149  PHE149     -0.0042
    146  CD2       17.1320    9.8630   30.0050 C.ar  149  PHE149     -0.0042
    147  CE1       16.4680   12.1900   28.6820 C.ar  149  PHE149     -0.0003
    148  CE2       15.8050   10.1340   29.6990 C.ar  149  PHE149     -0.0003
    149  CZ        15.4740   11.2940   29.0340 C.ar  149  PHE149     -0.0000
    150  N         18.1860   11.4360   32.8630 N.am  150  MET150     -0.1979
    151  CA        17.1850   11.0330   33.8390 C.3   150  MET150      0.1605
    152  C         15.8270   11.4250   33.2900 C.2   150  MET150      0.2287
    153  O         15.6160   12.5830   32.9490 O.2   150  MET150     -0.2864
    154  CB        17.4290   11.7290   35.1800 C.3   150  MET150      0.0413
    155  CG        18.7170   11.3120   35.8760 C.3   150  MET150      0.0598
    156  SD        18.6030    9.6710   36.6210 S.3   150  MET150     -0.1393
    157  CE        17.2830    9.9200   37.8060 C.3   150  MET150      0.0692
    158  N         12.4880   12.9190   33.0490 N.3   152  PRO152     -0.2116
    159  CA        11.8520   13.9520   33.8730 C.3   152  PRO152      0.1372
    160  C         10.5470   13.4590   34.4830 C.2   152  PRO152      0.2244
    161  O          9.8970   12.5670   33.9220 O.2   152  PRO152     -0.2868
    162  CB        11.5810   15.0750   32.8750 C.3   152  PRO152      0.0268
    163  CG        12.6290   14.8930   31.8320 C.3   152  PRO152      0.0207
    164  CD        12.7650   13.4040   31.6830 C.3   152  PRO152      0.0892
@<TRIPOS>BOND
     1     4     3    2
     2     1     2    1
     3     3     2    1
     4     3     9   am
     5     2     5    1
     6     9    10    1
     7    10    11    1
     8    10    13    1
     9     8     6    1
    10    11    12    2
    11     5     6    1
    12     6     7    1
    13    46    45   ar
    14    47    45   ar
    15    27    26    1
    16    45    44    1
    17    44    43    1
    18    28    26    1
    19    26    23    1
    20    43    40    1
    21   107   109   ar
    22   107   106   ar
    23   105   106    1
    24   105   102    1
    25   109   111   ar
    26    89    88    2
    27   106   108   ar
    28    56    57   ar
    29    56    54   ar
    30    23    24    1
    31    23    22    1
    32    40    41    1
    33    40    39    1
    34    24    25    2
    35   111   112    1
    36   111   110   ar
    37   108   110   ar
    38    99    97    1
    39    42    41    2
    40    57    55   ar
    41   101   102    1
    42   101    95   am
    43    54    53   ar
    44    98    97    1
    45    98   100    1
    46   104   103    2
    47    22    16   am
    48   102   103    1
    49    36    38   ar
    50    36    34   ar
    51    39    31   am
    52    94    97    1
    53    94    95    1
    54    94    93    1
    55    88    93   am
    56    88    87    1
    57    38    37   ar
    58    90    87    1
    59    90    91    1
    60   103   113   am
    61    95    96    2
    62    87    86    1
    63    55    53   ar
    64    53    52    1
    65    34    33    1
    66    34    35   ar
    67    31    32    2
    68    31    30    1
    69    16    17    2
    70    16    15    1
    71    37    35   ar
    72    33    30    1
    73    91    92    1
    74   113   114    1
    75    14    15    1
    76   114   115    1
    77   114   117    1
    78   124   125    1
    79   124   121    1
    80    30    29    1
    81    15    18    1
    82    18    19    1
    83    52    49    1
    84    86    92    1
    85    86    77   am
    86   127   125   ar
    87   127   129   ar
    88    78    77    2
    89   115   120   am
    90   115   116    2
    91   125   126   ar
    92   120   121    1
    93   119   117    1
    94    48    49    1
    95   129   130   ar
    96    77    76    1
    97   121   122    1
    98   117   118    1
    99   126   128   ar
   100    20    19    1
   101    49    50    1
   102    19    21    1
   103   130   128   ar
   104   130   131    1
   105   123   122    2
   106    84    82   ar
   107    84    85   ar
   108   122   132   am
   109    82    80   ar
   110    70    69    2
   111    76    75    1
   112    76    79    1
   113    85    83   ar
   114    50    51    2
   115    80    79    1
   116    80    81   ar
   117    73    72    1
   118    83    81   ar
   119   132   133    1
   120    69    68    1
   121    72    74    1
   122    72    71    1
   123   133   134    1
   124   133   136    1
   125    68    71    1
   126    68    67    1
   127   134   135    2
   128   137   136    1
   129   138   136    1
   130    65    64    2
   131    67    64   am
   132    64    63    1
   133   147   145   ar
   134   147   149   ar
   135   145   144   ar
   136   149   148   ar
   137   144   143    1
   138   144   146   ar
   139    66    63    1
   140   148   146   ar
   141    63    62    1
   142   143   140    1
   143    62    60   am
   144    58    59    1
   145    60    61    2
   146    60    59    1
   147   140   139    1
   148   140   141    1
   149   164   163    1
   150   164   158    1
   151   163   162    1
   152   141   150   am
   153   141   142    2
   154   150   151    1
   155   162   159    1
   156   153   152    2
   157   158   159    1
   158   152   151    1
   159   151   154    1
   160   159   160    1
   161   161   160    2
   162   154   155    1
   163   155   156    1
   164   156   157    1
