@<TRIPOS>MOLECULE
tmp/4l19A01.pdb
 94 95 0 0 0
SMALL
GASTEIGER

@<TRIPOS>ATOM
      1  N         -4.2490    1.2770    5.2630 N.3    73  TYR73      -0.1241
      2  CA        -4.6300   -0.0390    5.7720 C.3    73  TYR73       0.1605
      3  C         -5.2030   -0.8370    4.6080 C.2    73  TYR73       0.2264
      4  O         -6.4330   -0.9740    4.4690 O.2    73  TYR73      -0.2867
      5  CB        -5.6850    0.0690    6.8750 C.3    73  TYR73       0.0534
      6  CG        -5.2430    0.7970    8.1220 C.ar   73  TYR73      -0.0201
      7  CD1       -4.3830    0.2000    9.0340 C.ar   73  TYR73      -0.0009
      8  CD2       -5.7170    2.0720    8.4060 C.ar   73  TYR73      -0.0009
      9  CE1       -3.9860    0.8650   10.1930 C.ar   73  TYR73       0.0417
     10  CE2       -5.3320    2.7400    9.5560 C.ar   73  TYR73       0.0417
     11  CZ        -4.4650    2.1340   10.4440 C.ar   73  TYR73       0.1957
     12  OH        -4.0860    2.8030   11.5870 O.3    73  TYR73      -0.2866
     13  N        -13.1590   -2.9920    7.2250 N.3    84  HIS84      -0.1226
     14  CA       -12.7520   -2.4320    8.5070 C.3    84  HIS84       0.1752
     15  C        -13.4630   -1.1140    8.7440 C.2    84  HIS84       0.2596
     16  O        -13.9910   -0.5140    7.8090 O.2    84  HIS84      -0.2718
     17  CB       -11.2240   -2.3010    8.6220 C.3    84  HIS84       0.0759
     18  CG       -10.5910   -1.5110    7.5190 C.ar   84  HIS84       0.0818
     19  ND1       -9.3640   -1.8370    6.9840 N.ar   84  HIS84      -0.2268
     20  CD2      -11.0070   -0.4020    6.8610 C.ar   84  HIS84       0.1154
     21  CE1       -9.0550   -0.9670    6.0360 C.ar   84  HIS84       0.1986
     22  NE2      -10.0340   -0.0860    5.9450 N.ar   84  HIS84      -0.2212
     23  N        -13.5070   -0.6820    9.9970 N.am   85  ALA85      -0.1966
     24  CA       -14.2130    0.5450   10.3260 C.3    85  ALA85       0.1728
     25  C        -13.4950    1.2930   11.4420 C.2    85  ALA85       0.2616
     26  O        -12.8520    0.6760   12.2960 O.2    85  ALA85      -0.2715
     27  CB       -15.6640    0.2260   10.7150 C.3    85  ALA85       0.0334
     28  N        -13.5920    2.6200   11.4320 N.am   86  PHE86      -0.1960
     29  CA       -12.9240    3.4360   12.4400 C.3    86  PHE86       0.1756
     30  C        -13.8320    3.7370   13.6270 C.2    86  PHE86       0.2461
     31  O        -15.0280    3.9690   13.4550 O.2    86  PHE86      -0.2730
     32  CB       -12.4610    4.7550   11.8290 C.3    86  PHE86       0.0574
     33  CG       -11.4240    4.6020   10.7530 C.ar   86  PHE86      -0.0200
     34  CD1      -11.7930    4.3100    9.4500 C.ar   86  PHE86      -0.0042
     35  CD2      -10.0780    4.7730   11.0410 C.ar   86  PHE86      -0.0042
     36  CE1      -10.8370    4.1720    8.4560 C.ar   86  PHE86      -0.0003
     37  CE2       -9.1150    4.6360   10.0460 C.ar   86  PHE86      -0.0003
     38  CZ        -9.5000    4.3360    8.7560 C.ar   86  PHE86      -0.0000
     39  N        -13.2620    3.7500   14.8400 N.am   87  PRO87      -0.2727
     40  CA       -14.0140    4.1040   16.0490 C.3    87  PRO87       0.1402
     41  C        -14.5570    5.5280   15.9560 C.2    87  PRO87       0.2269
     42  O        -14.1050    6.2880   15.0970 O.2    87  PRO87      -0.2865
     43  CB       -12.9570    4.0030   17.1530 C.3    87  PRO87       0.0296
     44  CG       -11.9490    3.0520   16.6220 C.3    87  PRO87       0.0237
     45  CD       -11.8810    3.3470   15.1520 C.3    87  PRO87       0.0939
     46  N        -11.9700   10.4510    9.5250 N.3    92  TYR92      -0.1241
     47  CA       -12.0990    9.0230    9.2410 C.3    92  TYR92       0.1605
     48  C        -12.8700    8.2780   10.3380 C.2    92  TYR92       0.2264
     49  O        -13.3770    7.1820   10.1000 O.2    92  TYR92      -0.2867
     50  CB       -10.7320    8.3650    8.9980 C.3    92  TYR92       0.0534
     51  CG       -10.2130    8.4710    7.5670 C.ar   92  TYR92      -0.0201
     52  CD1      -10.8850    9.2200    6.6090 C.ar   92  TYR92      -0.0009
     53  CD2       -9.0550    7.8060    7.1770 C.ar   92  TYR92      -0.0009
     54  CE1      -10.4130    9.3130    5.3050 C.ar   92  TYR92       0.0417
     55  CE2       -8.5730    7.8920    5.8730 C.ar   92  TYR92       0.0417
     56  CZ        -9.2560    8.6470    4.9410 C.ar   92  TYR92       0.1957
     57  OH        -8.7850    8.7390    3.6420 O.3    92  TYR92      -0.2866
     58  N        -19.4290   -4.1400   11.3640 N.3   120  GLU120     -0.1245
     59  CA       -18.5260   -3.0050   11.2120 C.3   120  GLU120      0.1567
     60  C        -19.1040   -1.7430   11.8420 C.2   120  GLU120      0.2260
     61  O        -18.3710   -0.9570   12.4370 O.2   120  GLU120     -0.2867
     62  CB       -18.1740   -2.7600    9.7390 C.3   120  GLU120      0.0388
     63  CG       -17.4460   -3.9210    9.0620 C.3   120  GLU120      0.1160
     64  CD       -16.1140   -4.2640    9.7130 C.2   120  GLU120      0.3649
     65  OE1      -15.4920   -3.3720   10.3280 O.co2 120  GLU120     -0.2457
     66  OE2      -15.6830   -5.4320    9.6070 O.co2 120  GLU120     -0.2457
     67  N        -18.3180   -1.2970   15.3300 N.3   123  HIS123     -0.1241
     68  CA       -17.0480   -0.6030   15.5370 C.3   123  HIS123      0.1621
     69  C        -17.2040    0.9070   15.3940 C.2   123  HIS123      0.2264
     70  O        -16.6980    1.6660   16.2150 O.2   123  HIS123     -0.2867
     71  CB       -15.9930   -1.0890   14.5490 C.3   123  HIS123      0.0745
     72  CG       -15.5820   -2.5110   14.7510 C.ar  123  HIS123      0.0817
     73  ND1      -15.3870   -3.0620   16.0000 N.ar  123  HIS123     -0.2268
     74  CD2      -15.3230   -3.4950   13.8590 C.ar  123  HIS123      0.1154
     75  CE1      -15.0200   -4.3240   15.8670 C.ar  123  HIS123      0.1986
     76  NE2      -14.9780   -4.6130   14.5790 N.ar  123  HIS123     -0.2212
     77  N        -15.7970   -2.8940   20.5360 N.3   128  ASP128     -0.1225
     78  CA       -14.6630   -3.7170   20.1530 C.3   128  ASP128      0.1805
     79  C        -15.1740   -5.1440   19.9890 C.2   128  ASP128      0.2597
     80  O        -16.3800   -5.3860   20.0630 O.2   128  ASP128     -0.2718
     81  CB       -13.5840   -3.6520   21.2340 C.3   128  ASP128      0.1424
     82  CG       -12.2010   -3.9780   20.7040 C.2   128  ASP128      0.3668
     83  OD1      -12.0810   -4.8850   19.8530 O.co2 128  ASP128     -0.2456
     84  OD2      -11.2350   -3.3210   21.1440 O.co2 128  ASP128     -0.2456
     85  N        -14.2660   -6.0870   19.7690 N.am  129  HIS129     -0.1975
     86  CA       -14.6590   -7.4790   19.5830 C.3   129  HIS129      0.1656
     87  C        -15.1290   -8.1540   20.8610 C.2   129  HIS129      0.2291
     88  O        -14.5880   -7.9230   21.9450 O.2   129  HIS129     -0.2864
     89  CB       -13.5270   -8.2840   18.9540 C.3   129  HIS129      0.0771
     90  CG       -13.3640   -8.0390   17.4880 C.ar  129  HIS129      0.0820
     91  ND1      -12.1530   -8.1550   16.8420 N.ar  129  HIS129     -0.2267
     92  CD2      -14.2630   -7.6790   16.5410 C.ar  129  HIS129      0.1154
     93  CE1      -12.3110   -7.8770   15.5600 C.ar  129  HIS129      0.1986
     94  NE2      -13.5820   -7.5860   15.3510 N.ar  129  HIS129     -0.2212
@<TRIPOS>BOND
     1    57    56    1
     2     4     3    2
     3     3     2    1
     4    56    54   ar
     5    56    55   ar
     6     1     2    1
     7    54    52   ar
     8     2     5    1
     9    55    53   ar
    10    22    21   ar
    11    22    20   ar
    12    21    19   ar
    13    52    51   ar
    14    20    18   ar
    15     5     6    1
    16    19    18   ar
    17    53    51   ar
    18    13    14    1
    19    18    17    1
    20    51    50    1
    21    16    15    2
    22     6     8   ar
    23     6     7   ar
    24     8    10   ar
    25    36    38   ar
    26    36    34   ar
    27    14    17    1
    28    14    15    1
    29    15    23   am
    30    38    37   ar
    31    50    47    1
    32     7     9   ar
    33    63    64    1
    34    63    62    1
    35    47    46    1
    36    47    48    1
    37    34    33   ar
    38    10    11   ar
    39    66    64   ar
    40    64    65   ar
    41    62    59    1
    42    23    24    1
    43    37    35   ar
    44    49    48    2
    45     9    11   ar
    46    24    27    1
    47    24    25    1
    48    11    12    1
    49    33    35   ar
    50    33    32    1
    51    59    58    1
    52    59    60    1
    53    28    25   am
    54    28    29    1
    55    25    26    2
    56    32    29    1
    57    60    61    2
    58    29    30    1
    59    31    30    2
    60    30    39   am
    61    74    76   ar
    62    74    72   ar
    63    71    72    1
    64    71    68    1
    65    76    75   ar
    66    72    73   ar
    67    39    45    1
    68    39    40    1
    69    42    41    2
    70    45    44    1
    71    67    68    1
    72    94    93   ar
    73    94    92   ar
    74    69    68    1
    75    69    70    2
    76    93    91   ar
    77    75    73   ar
    78    41    40    1
    79    40    43    1
    80    92    90   ar
    81    44    43    1
    82    91    90   ar
    83    90    89    1
    84    89    86    1
    85    86    85    1
    86    86    87    1
    87    85    79   am
    88    83    82   ar
    89    79    80    2
    90    79    78    1
    91    78    77    1
    92    78    81    1
    93    82    84   ar
    94    82    81    1
    95    87    88    2
