@<TRIPOS>MOLECULE
tmp/4l1fB02.pdb
 227 216 0 0 0
SMALL
GASTEIGER

@<TRIPOS>ATOM
      1  N        137.0990    9.4870  -15.2920 N.3    93  LEU93      -0.1245
      2  CA       136.6000   10.0310  -16.5360 C.3    93  LEU93       0.1561
      3  C        137.6170   10.6470  -17.4830 C.2    93  LEU93       0.2260
      4  O        137.3870   10.6520  -18.6750 O.2    93  LEU93      -0.2867
      5  CB       135.4350   10.9850  -16.3160 C.3    93  LEU93       0.0270
      6  CG       134.1880   10.3950  -15.5430 C.3    93  LEU93       0.0019
      7  CD1      133.1890   11.5440  -15.4320 C.3    93  LEU93       0.0001
      8  CD2      133.6730    9.1490  -16.2290 C.3    93  LEU93       0.0001
      9  N        135.4650   15.3080  -18.6080 N.3   123  PHE123     -0.1241
     10  CA       135.0440   14.3630  -19.6640 C.3   123  PHE123      0.1605
     11  C        133.7800   15.0360  -20.2350 C.2   123  PHE123      0.2264
     12  O        132.8040   15.2220  -19.5380 O.2   123  PHE123     -0.2867
     13  CB       134.6520   13.0870  -18.9610 C.3   123  PHE123      0.0534
     14  CG       134.0170   12.0290  -19.8240 C.ar  123  PHE123     -0.0203
     15  CD1      134.7880   11.1160  -20.4430 C.ar  123  PHE123     -0.0042
     16  CD2      132.6640   11.8640  -19.8260 C.ar  123  PHE123     -0.0042
     17  CE1      134.2610   10.0700  -21.1360 C.ar  123  PHE123     -0.0003
     18  CE2      132.1050   10.8210  -20.5490 C.ar  123  PHE123     -0.0003
     19  CZ       132.9220    9.9260  -21.1960 C.ar  123  PHE123     -0.0000
     20  N        131.0480   14.6370  -22.8110 N.3   125  LEU125     -0.1231
     21  CA       130.2180   13.8220  -23.7030 C.3   125  LEU125      0.1693
     22  C        128.8600   14.4400  -23.9100 C.2   125  LEU125      0.2592
     23  O        128.4420   14.6560  -25.0300 O.2   125  LEU125     -0.2718
     24  CB       130.1000   12.4170  -23.1150 C.3   125  LEU125      0.0284
     25  CG       129.2770   11.4170  -23.9440 C.3   125  LEU125      0.0019
     26  CD1      129.8710   11.1330  -25.2550 C.3   125  LEU125      0.0001
     27  CD2      129.0800   10.1450  -23.1630 C.3   125  LEU125      0.0001
     28  N        128.1440   14.7190  -22.8620 N.am  126  THR126     -0.1953
     29  CA       126.7070   15.2080  -22.9250 C.3   126  THR126      0.1897
     30  C        126.5170   16.5450  -23.6290 C.2   126  THR126      0.2313
     31  O        127.2950   17.4860  -23.4590 O.2   126  THR126     -0.2863
     32  CB       126.1330   15.3090  -21.4880 C.3   126  THR126      0.1794
     33  OG1      126.3140   14.0210  -20.8520 O.3   126  THR126     -0.2208
     34  CG2      124.6900   15.7650  -21.4910 C.3   126  THR126      0.0378
     35  N        121.7880   13.2500  -24.1500 N.3   131  GLY131     -0.1210
     36  CA       121.9700   12.8810  -22.7810 C.3   131  GLY131      0.1956
     37  C        122.0670   11.3810  -22.6230 C.2   131  GLY131      0.2613
     38  O        123.1100   10.7770  -22.8120 O.2   131  GLY131     -0.2717
     39  N        120.9160   10.7620  -22.3460 N.am  132  THR132     -0.1938
     40  CA       120.8550    9.3080  -22.3400 C.3   132  THR132      0.2028
     41  C        121.1910    8.7750  -23.7170 C.2   132  THR132      0.2642
     42  O        121.8510    7.7840  -23.8280 O.2   132  THR132     -0.2714
     43  CB       119.4560    8.8310  -21.8710 C.3   132  THR132      0.1808
     44  OG1      119.2830    9.3100  -20.5440 O.3   132  THR132     -0.2208
     45  CG2      119.3870    7.3200  -21.8260 C.3   132  THR132      0.0379
     46  N        120.7130    9.4600  -24.7630 N.am  133  ASP133     -0.1957
     47  CA       120.9970    9.0690  -26.1610 C.3   133  ASP133      0.1840
     48  C        122.3600    9.6970  -26.5130 C.2   133  ASP133      0.2622
     49  O        122.4270   10.6350  -27.3140 O.2   133  ASP133     -0.2715
     50  CB       119.8590    9.5470  -27.0170 C.3   133  ASP133      0.1450
     51  CG       119.9770    9.1900  -28.5110 C.2   133  ASP133      0.3671
     52  OD1      120.7700    8.2890  -28.8740 O.co2 133  ASP133     -0.2456
     53  OD2      119.1760    9.8260  -29.2770 O.co2 133  ASP133     -0.2456
     54  N        123.4160    9.0850  -25.9510 N.am  134  ALA134     -0.1963
     55  CA       124.7700    9.7180  -25.9920 C.3   134  ALA134      0.1728
     56  C        125.3720    9.7100  -27.3870 C.2   134  ALA134      0.2616
     57  O        126.2220   10.5740  -27.6980 O.2   134  ALA134     -0.2715
     58  CB       125.7020    9.0140  -25.0230 C.3   134  ALA134      0.0334
     59  N        124.9290    8.7740  -28.2310 N.am  135  SER135     -0.1950
     60  CA       125.4720    8.6230  -29.6050 C.3   135  SER135      0.1924
     61  C        124.9760    9.7520  -30.5410 C.2   135  SER135      0.2314
     62  O        125.5740    9.9370  -31.5990 O.2   135  SER135     -0.2863
     63  CB       125.1210    7.2270  -30.2130 C.3   135  SER135      0.2116
     64  OG       123.7980    7.1180  -30.5830 O.3   135  SER135     -0.2180
     65  N        126.7890   20.2010  -18.5320 N.3   156  PHE156     -0.1241
     66  CA       126.7910   19.4060  -17.2820 C.3   156  PHE156      0.1605
     67  C        128.1300   18.6730  -17.1260 C.2   156  PHE156      0.2264
     68  O        128.1620   17.4380  -16.7730 O.2   156  PHE156     -0.2867
     69  CB       125.6800   18.3490  -17.2830 C.3   156  PHE156      0.0534
     70  CG       124.2390   18.8610  -17.3350 C.ar  156  PHE156     -0.0203
     71  CD1      123.8540   20.0110  -16.7200 C.ar  156  PHE156     -0.0042
     72  CD2      123.2730   18.1210  -18.0300 C.ar  156  PHE156     -0.0042
     73  CE1      122.5520   20.4450  -16.7820 C.ar  156  PHE156     -0.0003
     74  CE2      121.9430   18.5570  -18.0760 C.ar  156  PHE156     -0.0003
     75  CZ       121.6110   19.7190  -17.4710 C.ar  156  PHE156     -0.0000
     76  N        131.3510   17.8510  -15.2170 N.3   158  THR158     -0.1218
     77  CA       131.9330   17.8640  -13.8860 C.3   158  THR158      0.1862
     78  C        133.3690   18.3370  -14.0590 C.2   158  THR158      0.2287
     79  O        134.1020   17.8280  -14.8890 O.2   158  THR158     -0.2866
     80  CB       131.9060   16.4770  -13.2390 C.3   158  THR158      0.1770
     81  OG1      130.5440   16.0970  -13.0720 O.3   158  THR158     -0.2211
     82  CG2      132.4840   16.4370  -11.9080 C.3   158  THR158      0.0375
     83  N        126.8870    6.1810  -34.7780 N.3   178  VAL178     -0.1231
     84  CA       127.6460    5.8230  -33.5920 C.3   178  VAL178      0.1692
     85  C        129.1100    5.5180  -33.9690 C.2   178  VAL178      0.2592
     86  O        130.0400    5.7210  -33.1720 O.2   178  VAL178     -0.2718
     87  CB       126.9530    4.7030  -32.8060 C.3   178  VAL178      0.0266
     88  CG1      127.1950    3.3620  -33.4740 C.3   178  VAL178      0.0020
     89  CG2      127.5050    4.7280  -31.4190 C.3   178  VAL178      0.0020
     90  N        129.3430    5.1370  -35.2090 N.am  179  HIS179     -0.1976
     91  CA       130.7340    4.8760  -35.6550 C.3   179  HIS179      0.1656
     92  C        131.4830    6.0500  -36.2210 C.2   179  HIS179      0.2291
     93  O        132.5700    5.8710  -36.7300 O.2   179  HIS179     -0.2864
     94  CB       130.7830    3.7320  -36.6610 C.3   179  HIS179      0.0771
     95  CG       130.0960    2.5150  -36.1730 C.ar  179  HIS179      0.0820
     96  ND1      130.7160    1.5910  -35.3590 N.ar  179  HIS179     -0.2267
     97  CD2      128.8020    2.1220  -36.2750 C.ar  179  HIS179      0.1154
     98  CE1      129.8480    0.6550  -35.0190 C.ar  179  HIS179      0.1986
     99  NE2      128.6760    0.9540  -35.5550 N.ar  179  HIS179     -0.2212
    100  N        132.9710    6.4160  -29.5660 N.3   232  PHE232     -0.1227
    101  CA       131.8550    5.9790  -28.7450 C.3   232  PHE232      0.1736
    102  C        132.2920    4.8300  -27.8490 C.2   232  PHE232      0.2595
    103  O        131.8910    4.7580  -26.7080 O.2   232  PHE232     -0.2718
    104  CB       130.6510    5.5920  -29.5810 C.3   232  PHE232      0.0547
    105  CG       129.3910    5.4550  -28.7720 C.ar  232  PHE232     -0.0202
    106  CD1      128.8330    6.5470  -28.1610 C.ar  232  PHE232     -0.0042
    107  CD2      128.7860    4.2100  -28.6400 C.ar  232  PHE232     -0.0042
    108  CE1      127.6810    6.3770  -27.3580 C.ar  232  PHE232     -0.0003
    109  CE2      127.6290    4.0470  -27.8720 C.ar  232  PHE232     -0.0003
    110  CZ       127.0920    5.1410  -27.2420 C.ar  232  PHE232     -0.0000
    111  N        133.0880    3.9120  -28.3550 N.am  233  LYS233     -0.1980
    112  CA       133.7090    2.8810  -27.5670 C.3   233  LYS233      0.1596
    113  C        134.5270    3.3840  -26.3750 C.2   233  LYS233      0.2287
    114  O        134.4100    2.8680  -25.3000 O.2   233  LYS233     -0.2864
    115  CB       134.6340    2.0580  -28.4380 C.3   233  LYS233      0.0298
    116  CG       135.3610    0.9530  -27.7200 C.3   233  LYS233      0.0038
    117  CD       136.1110    0.0540  -28.6980 C.3   233  LYS233      0.0206
    118  CE       137.6060    0.3100  -28.6980 C.3   233  LYS233      0.1093
    119  NZ       138.2310   -0.4590  -27.5800 N.3   233  LYS233     -0.1314
    120  N        132.0650    4.7330  -23.8270 N.3   236  MET236     -0.1230
    121  CA       131.3470    3.6940  -23.1010 C.3   236  MET236      0.1702
    122  C        132.2720    2.9450  -22.1320 C.2   236  MET236      0.2592
    123  O        131.8950    2.6680  -20.9950 O.2   236  MET236     -0.2718
    124  CB       130.6880    2.7500  -24.0620 C.3   236  MET236      0.0401
    125  CG       129.5520    3.3670  -24.8410 C.3   236  MET236      0.0596
    126  SD       128.1030    3.8580  -23.8690 S.3   236  MET236     -0.1393
    127  CE       128.3330    5.5940  -23.8320 C.3   236  MET236      0.0692
    128  N        133.4730    2.6090  -22.5480 N.am  237  GLU237     -0.1979
    129  CA       134.4090    2.0020  -21.6260 C.3   237  GLU237      0.1602
    130  C        134.7550    2.9030  -20.4330 C.2   237  GLU237      0.2287
    131  O        134.9400    2.4480  -19.3070 O.2   237  GLU237     -0.2864
    132  CB       135.6380    1.5260  -22.3840 C.3   237  GLU237      0.0415
    133  CG       135.2650    0.4080  -23.3200 C.3   237  GLU237      0.1163
    134  CD       136.4690   -0.2850  -23.9650 C.2   237  GLU237      0.3649
    135  OE1      137.5940   -0.1110  -23.4430 O.co2 237  GLU237     -0.2457
    136  OE2      136.2070   -1.0710  -24.9020 O.co2 237  GLU237     -0.2457
    137  N        132.8000    5.2630  -19.1790 N.3   239  LEU239     -0.1231
    138  CA       131.6020    5.2880  -18.3120 C.3   239  LEU239      0.1693
    139  C        131.4310    4.0620  -17.4400 C.2   239  LEU239      0.2592
    140  O        130.9850    4.1860  -16.2900 O.2   239  LEU239     -0.2718
    141  CB       130.3540    5.5620  -19.1040 C.3   239  LEU239      0.0284
    142  CG       130.3690    7.0550  -19.4220 C.3   239  LEU239      0.0019
    143  CD1      129.4080    7.2680  -20.5320 C.3   239  LEU239      0.0001
    144  CD2      130.1340    8.0380  -18.2610 C.3   239  LEU239      0.0001
    145  N        131.7770    2.8650  -17.9450 N.am  240  ASP240     -0.1974
    146  CA       131.7360    1.6610  -17.1470 C.3   240  ASP240      0.1709
    147  C        132.5690    1.8740  -15.8610 C.2   240  ASP240      0.2293
    148  O        132.1700    1.5240  -14.7440 O.2   240  ASP240     -0.2864
    149  CB       132.3080    0.4640  -17.9050 C.3   240  ASP240      0.1436
    150  CG       131.4070   -0.0080  -19.0640 C.2   240  ASP240      0.3671
    151  OD1      130.1850    0.1200  -18.9520 O.co2 240  ASP240     -0.2456
    152  OD2      131.8830   -0.6470  -20.0460 O.co2 240  ASP240     -0.2456
    153  N        131.0550    4.6630  -13.5290 N.3   243  ARG243     -0.1245
    154  CA       129.9190    4.1400  -12.7370 C.3   243  ARG243      0.1563
    155  C        130.3350    3.5730  -11.4030 C.2   243  ARG243      0.2260
    156  O        129.6480    3.7430  -10.3910 O.2   243  ARG243     -0.2867
    157  CB       129.1230    3.2000  -13.6190 C.3   243  ARG243      0.0307
    158  CG       128.3120    4.0650  -14.5940 C.3   243  ARG243      0.0489
    159  CD       127.8080    3.2050  -15.7740 C.3   243  ARG243      0.2205
    160  NE       127.2920    4.0900  -16.8460 N.pl3 243  ARG243     -0.0865
    161  CZ       126.8420    3.6340  -18.0100 C.cat 243  ARG243      0.5346
    162  NH1      126.8870    2.3520  -18.2760 N.pl3 243  ARG243      0.1354
    163  NH2      126.3550    4.4790  -18.9150 N.pl3 243  ARG243      0.1354
    164  N        131.1620   -4.1860  -16.9420 N.3   313  SER313     -0.1217
    165  CA       130.1290   -3.2160  -17.3100 C.3   313  SER313      0.1889
    166  C        128.8260   -3.4900  -16.5360 C.2   313  SER313      0.2288
    167  O        128.2220   -2.5620  -15.9990 O.2   313  SER313     -0.2866
    168  CB       129.9130   -3.2370  -18.8500 C.3   313  SER313      0.2089
    169  OG       128.8970   -2.3130  -19.2260 O.3   313  SER313     -0.2183
    170  N        123.5690   11.1410  -12.7100 N.3   362  TYR362     -0.1227
    171  CA       124.8230   11.2970  -13.4770 C.3   362  TYR362      0.1736
    172  C        125.6420   10.0390  -13.6810 C.2   362  TYR362      0.2595
    173  O        125.4060    9.0710  -13.0350 O.2   362  TYR362     -0.2718
    174  CB       125.7000   12.4490  -13.0630 C.3   362  TYR362      0.0548
    175  CG       126.3940   12.5160  -11.7320 C.ar  362  TYR362     -0.0200
    176  CD1      126.3960   11.4980  -10.8090 C.ar  362  TYR362     -0.0009
    177  CD2      127.0170   13.6900  -11.4150 C.ar  362  TYR362     -0.0009
    178  CE1      127.0220   11.6620   -9.5820 C.ar  362  TYR362      0.0417
    179  CE2      127.6240   13.9050  -10.2270 C.ar  362  TYR362      0.0417
    180  CZ       127.6780   12.8690   -9.3020 C.ar  362  TYR362      0.1957
    181  OH       128.2040   13.1420   -8.1010 O.3   362  TYR362     -0.2866
    182  N        126.5640   10.1090  -14.6700 N.am  363  GLU363     -0.1965
    183  CA       127.1760    8.9290  -15.2550 C.3   363  GLU363      0.1733
    184  C        126.1840    7.8950  -15.7960 C.2   363  GLU363      0.2616
    185  O        126.5470    6.7420  -15.9060 O.2   363  GLU363     -0.2715
    186  CB       128.2220    8.3420  -14.2990 C.3   363  GLU363      0.0429
    187  CG       129.1740    9.5200  -14.0190 C.3   363  GLU363      0.1163
    188  CD       130.5340    9.1900  -13.5600 C.2   363  GLU363      0.3649
    189  OE1      131.0400    8.1220  -13.9730 O.co2 363  GLU363     -0.2457
    190  OE2      131.0850   10.0840  -12.8320 O.co2 363  GLU363     -0.2457
    191  N        125.0060    8.3620  -16.2470 N.am  364  GLY364     -0.1955
    192  CA       124.0100    7.4710  -16.7940 C.3   364  GLY364      0.1869
    193  C        122.9640    7.3880  -15.7230 C.2   364  GLY364      0.2309
    194  O        123.2650    7.1240  -14.5660 O.2   364  GLY364     -0.2863
    195  N        119.1700    4.0150  -17.3300 N.3   368  VAL368     -0.1245
    196  CA       120.2350    3.4400  -18.1790 C.3   368  VAL368      0.1561
    197  C        120.8220    2.2470  -17.4900 C.2   368  VAL368      0.2260
    198  O        121.1100    1.2220  -18.1370 O.2   368  VAL368     -0.2867
    199  CB       121.3970    4.4100  -18.4820 C.3   368  VAL368      0.0252
    200  CG1      122.5520    3.6600  -19.2060 C.3   368  VAL368      0.0019
    201  CG2      120.8480    5.5730  -19.3040 C.3   368  VAL368      0.0019
    202  N        118.7540   -0.7100  -18.1440 N.3   371  ILE371     -0.1231
    203  CA       118.8710   -1.1230  -19.5510 C.3   371  ILE371      0.1692
    204  C        120.1190   -1.9730  -19.6100 C.2   371  ILE371      0.2591
    205  O        120.1240   -3.0750  -20.1710 O.2   371  ILE371     -0.2718
    206  CB       118.8710    0.0950  -20.5250 C.3   371  ILE371      0.0266
    207  CG1      117.5090    0.8010  -20.4750 C.3   371  ILE371      0.0019
    208  CG2      119.3550   -0.2920  -21.9080 C.3   371  ILE371      0.0020
    209  CD1      117.5100    2.0820  -21.2640 C.3   371  ILE371      0.0001
    210  N        121.1980   -1.4930  -19.0690 N.am  372  VAL372     -0.1980
    211  CA       122.4900   -2.2380  -19.2230 C.3   372  VAL372      0.1595
    212  C        122.3420   -3.5950  -18.5320 C.2   372  VAL372      0.2287
    213  O        122.7380   -4.6530  -19.0640 O.2   372  VAL372     -0.2864
    214  CB       123.6510   -1.4660  -18.5680 C.3   372  VAL372      0.0276
    215  CG1      124.9100   -2.3690  -18.4670 C.3   372  VAL372      0.0022
    216  CG2      123.8870   -0.2140  -19.3500 C.3   372  VAL372      0.0022
    217  N        119.8620   -5.9410  -20.3370 N.3   375  ARG375     -0.1245
    218  CA       120.3900   -6.4390  -21.5870 C.3   375  ARG375      0.1563
    219  C        121.3330   -7.5790  -21.3220 C.2   375  ARG375      0.2260
    220  O        121.3090   -8.5830  -22.0300 O.2   375  ARG375     -0.2867
    221  CB       121.1480   -5.3220  -22.3390 C.3   375  ARG375      0.0307
    222  CG       120.2930   -4.3650  -23.0630 C.3   375  ARG375      0.0489
    223  CD       121.2380   -3.3070  -23.6780 C.3   375  ARG375      0.2205
    224  NE       120.5370   -2.3330  -24.4750 N.pl3 375  ARG375     -0.0865
    225  CZ       121.1090   -1.3240  -25.1180 C.cat 375  ARG375      0.5346
    226  NH1      122.3870   -1.1370  -25.0160 N.pl3 375  ARG375      0.1354
    227  NH2      120.3780   -0.5490  -25.9080 N.pl3 375  ARG375      0.1354
@<TRIPOS>BOND
     1    93    92    2
     2    94    95    1
     3    94    91    1
     4    97    95   ar
     5    97    99   ar
     6    92    91    1
     7    95    96   ar
     8    91    90    1
     9    99    98   ar
    10    96    98   ar
    11    90    85   am
    12    83    84    1
    13    85    84    1
    14    85    86    2
    15    84    87    1
    16    88    87    1
    17    87    89    1
    18    62    61    2
    19    64    63    1
    20    61    60    1
    21    63    60    1
    22    60    59    1
    23   104   105    1
    24   104   101    1
    25   100   101    1
    26    53    51   ar
    27    52    51   ar
    28   105   107   ar
    29   105   106   ar
    30   101   102    1
    31   118   117    1
    32   118   119    1
    33   117   116    1
    34   107   109   ar
    35    51    50    1
    36   115   116    1
    37   115   112    1
    38   111   102   am
    39   111   112    1
    40    59    56   am
    41   106   108   ar
    42   109   110   ar
    43   102   103    2
    44    57    56    2
    45   112   113    1
    46    56    55    1
    47   108   110   ar
    48    49    48    2
    49    50    47    1
    50    48    47    1
    51    48    54   am
    52   113   114    2
    53    47    46    1
    54    55    54    1
    55    55    58    1
    56   227   225    1
    57    26    25    1
    58   225   226    1
    59   225   224    2
    60    23    22    2
    61   136   134   ar
    62   125   124    1
    63   125   126    1
    64    46    41   am
    65   224   223    1
    66    35    36    1
    67   124   121    1
    68   134   135   ar
    69   134   133    1
    70    25    27    1
    71    25    24    1
    72    22    21    1
    73    22    28   am
    74   126   127    1
    75    42    41    2
    76   120   121    1
    77    41    40    1
    78    21    24    1
    79    21    20    1
    80   223   222    1
    81    30    31    2
    82    30    29    1
    83   133   132    1
    84   121   122    1
    85   222   221    1
    86    29    28    1
    87    29    32    1
    88    38    37    2
    89    36    37    1
    90    37    39   am
    91   128   122   am
    92   128   129    1
    93   132   129    1
    94    39    40    1
    95    40    43    1
    96   221   218    1
    97   122   123    2
    98   220   219    2
    99   208   206    1
   100    43    45    1
   101    43    44    1
   102   129   130    1
   103   218   219    1
   104   218   217    1
   105    34    32    1
   106    32    33    1
   107   209   207    1
   108    19    17   ar
   109    19    18   ar
   110    17    15   ar
   111    18    16   ar
   112   143   142    1
   113   206   207    1
   114   206   203    1
   115    15    14   ar
   116   130   131    2
   117    11    10    1
   118    11    12    2
   119   205   204    2
   120   152   150   ar
   121    16    14   ar
   122    14    13    1
   123    10    13    1
   124    10     9    1
   125   204   203    1
   126   204   210   am
   127   203   202    1
   128   142   141    1
   129   142   144    1
   130   216   214    1
   131   201   199    1
   132   169   168    1
   133   211   210    1
   134   211   214    1
   135   211   212    1
   136   200   199    1
   137   137   138    1
   138   141   138    1
   139   213   212    2
   140   150   151   ar
   141   150   149    1
   142   163   161    1
   143   168   165    1
   144     4     3    2
   145   214   215    1
   146    65    66    1
   147   199   196    1
   148   138   139    1
   149   162   161    1
   150   196   197    1
   151   196   195    1
   152   198   197    2
   153    74    72   ar
   154    74    75   ar
   155    72    70   ar
   156   161   160    2
   157   145   139   am
   158   145   146    1
   159   149   146    1
   160     3     2    1
   161    75    73   ar
   162   139   140    2
   163    70    69    1
   164    70    71   ar
   165   165   164    1
   166   165   166    1
   167    69    66    1
   168    66    67    1
   169   146   147    1
   170    67    68    2
   171   160   159    1
   172   192   191    1
   173   192   193    1
   174    73    71   ar
   175   166   167    2
   176     2     5    1
   177     2     1    1
   178     5     6    1
   179   191   184   am
   180     8     6    1
   181   185   184    2
   182   147   148    2
   183   184   183    1
   184   159   158    1
   185   193   194    2
   186     6     7    1
   187   183   182    1
   188   183   186    1
   189    76    77    1
   190    79    78    2
   191   182   172   am
   192   158   157    1
   193   186   187    1
   194    78    77    1
   195   187   188    1
   196   189   188   ar
   197    77    80    1
   198   172   171    1
   199   172   173    2
   200   157   154    1
   201   188   190   ar
   202   153   154    1
   203   171   174    1
   204   171   170    1
   205    80    81    1
   206    80    82    1
   207   174   175    1
   208   154   155    1
   209   175   177   ar
   210   175   176   ar
   211   177   179   ar
   212   155   156    2
   213   176   178   ar
   214   179   180   ar
   215   178   180   ar
   216   180   181    1
