@<TRIPOS>MOLECULE
tmp/4l1fB01.pdb
 199 191 0 0 0
SMALL
GASTEIGER

@<TRIPOS>ATOM
      1  N        137.0990    9.4870  -15.2920 N.3    93  LEU93      -0.1245
      2  CA       136.6000   10.0310  -16.5360 C.3    93  LEU93       0.1561
      3  C        137.6170   10.6470  -17.4830 C.2    93  LEU93       0.2260
      4  O        137.3870   10.6520  -18.6750 O.2    93  LEU93      -0.2867
      5  CB       135.4350   10.9850  -16.3160 C.3    93  LEU93       0.0270
      6  CG       134.1880   10.3950  -15.5430 C.3    93  LEU93       0.0019
      7  CD1      133.1890   11.5440  -15.4320 C.3    93  LEU93       0.0001
      8  CD2      133.6730    9.1490  -16.2290 C.3    93  LEU93       0.0001
      9  N        135.4650   15.3080  -18.6080 N.3   123  PHE123     -0.1241
     10  CA       135.0440   14.3630  -19.6640 C.3   123  PHE123      0.1605
     11  C        133.7800   15.0360  -20.2350 C.2   123  PHE123      0.2264
     12  O        132.8040   15.2220  -19.5380 O.2   123  PHE123     -0.2867
     13  CB       134.6520   13.0870  -18.9610 C.3   123  PHE123      0.0534
     14  CG       134.0170   12.0290  -19.8240 C.ar  123  PHE123     -0.0203
     15  CD1      134.7880   11.1160  -20.4430 C.ar  123  PHE123     -0.0042
     16  CD2      132.6640   11.8640  -19.8260 C.ar  123  PHE123     -0.0042
     17  CE1      134.2610   10.0700  -21.1360 C.ar  123  PHE123     -0.0003
     18  CE2      132.1050   10.8210  -20.5490 C.ar  123  PHE123     -0.0003
     19  CZ       132.9220    9.9260  -21.1960 C.ar  123  PHE123     -0.0000
     20  N        131.0480   14.6370  -22.8110 N.3   125  LEU125     -0.1231
     21  CA       130.2180   13.8220  -23.7030 C.3   125  LEU125      0.1693
     22  C        128.8600   14.4400  -23.9100 C.2   125  LEU125      0.2593
     23  O        128.4420   14.6560  -25.0300 O.2   125  LEU125     -0.2718
     24  CB       130.1000   12.4170  -23.1150 C.3   125  LEU125      0.0284
     25  CG       129.2770   11.4170  -23.9440 C.3   125  LEU125      0.0019
     26  CD1      129.8710   11.1330  -25.2550 C.3   125  LEU125      0.0001
     27  CD2      129.0800   10.1450  -23.1630 C.3   125  LEU125      0.0001
     28  N        128.1440   14.7190  -22.8620 N.am  126  THR126     -0.1939
     29  CA       126.7070   15.2080  -22.9250 C.3   126  THR126      0.2028
     30  C        126.5170   16.5450  -23.6290 C.2   126  THR126      0.2642
     31  O        127.2950   17.4860  -23.4590 O.2   126  THR126     -0.2714
     32  CB       126.1330   15.3090  -21.4880 C.3   126  THR126      0.1808
     33  OG1      126.3140   14.0210  -20.8520 O.3   126  THR126     -0.2208
     34  CG2      124.6900   15.7650  -21.4910 C.3   126  THR126      0.0379
     35  N        125.5090   16.5590  -24.4890 N.am  127  GLU127     -0.1963
     36  CA       125.0260   17.7280  -25.2030 C.3   127  GLU127      0.1718
     37  C        123.5810   18.0080  -24.9200 C.2   127  GLU127      0.2458
     38  O        122.8760   17.1060  -24.4630 O.2   127  GLU127     -0.2730
     39  CB       125.2550   17.5350  -26.6910 C.3   127  GLU127      0.0428
     40  CG       126.7080   17.3630  -27.0480 C.3   127  GLU127      0.1163
     41  CD       126.9270   17.1350  -28.5450 C.2   127  GLU127      0.3649
     42  OE1      125.8670   17.0460  -29.2620 O.co2 127  GLU127     -0.2457
     43  OE2      128.1300   17.0910  -28.9870 O.co2 127  GLU127     -0.2457
     44  N        123.0660   19.1990  -25.2290 N.am  128  PRO128     -0.2727
     45  CA       121.6360   19.4410  -25.0450 C.3   128  PRO128      0.1402
     46  C        120.7240   18.4200  -25.6910 C.2   128  PRO128      0.2269
     47  O        119.7280   18.1070  -25.0860 O.2   128  PRO128     -0.2865
     48  CB       121.4320   20.8200  -25.6750 C.3   128  PRO128      0.0296
     49  CG       122.7620   21.4900  -25.3760 C.3   128  PRO128      0.0237
     50  CD       123.7590   20.4250  -25.6480 C.3   128  PRO128      0.0939
     51  N        121.7880   13.2500  -24.1500 N.3   131  GLY131     -0.1210
     52  CA       121.9700   12.8810  -22.7810 C.3   131  GLY131      0.1956
     53  C        122.0670   11.3810  -22.6230 C.2   131  GLY131      0.2613
     54  O        123.1100   10.7770  -22.8120 O.2   131  GLY131     -0.2717
     55  N        120.9160   10.7620  -22.3460 N.am  132  THR132     -0.1938
     56  CA       120.8550    9.3080  -22.3400 C.3   132  THR132      0.2028
     57  C        121.1910    8.7750  -23.7170 C.2   132  THR132      0.2642
     58  O        121.8510    7.7840  -23.8280 O.2   132  THR132     -0.2714
     59  CB       119.4560    8.8310  -21.8710 C.3   132  THR132      0.1808
     60  OG1      119.2830    9.3100  -20.5440 O.3   132  THR132     -0.2208
     61  CG2      119.3870    7.3200  -21.8260 C.3   132  THR132      0.0379
     62  N        120.7130    9.4600  -24.7630 N.am  133  ASP133     -0.1971
     63  CA       120.9970    9.0690  -26.1610 C.3   133  ASP133      0.1709
     64  C        122.3600    9.6970  -26.5130 C.2   133  ASP133      0.2293
     65  O        122.4270   10.6350  -27.3140 O.2   133  ASP133     -0.2864
     66  CB       119.8590    9.5470  -27.0170 C.3   133  ASP133      0.1436
     67  CG       119.9770    9.1900  -28.5110 C.2   133  ASP133      0.3671
     68  OD1      120.7700    8.2890  -28.8740 O.co2 133  ASP133     -0.2456
     69  OD2      119.1760    9.8260  -29.2770 O.co2 133  ASP133     -0.2456
     70  N        127.2920   20.0640  -22.1160 N.3   155  ILE155     -0.1231
     71  CA       126.6620   20.6030  -20.9250 C.3   155  ILE155      0.1692
     72  C        126.7990   19.6430  -19.7360 C.2   155  ILE155      0.2592
     73  O        127.0050   18.4910  -19.9800 O.2   155  ILE155     -0.2718
     74  CB       125.1550   20.9140  -21.1200 C.3   155  ILE155      0.0266
     75  CG1      124.3880   19.6410  -21.4970 C.3   155  ILE155      0.0019
     76  CG2      125.0410   22.0410  -22.1350 C.3   155  ILE155      0.0020
     77  CD1      122.8820   19.8170  -21.4010 C.3   155  ILE155      0.0001
     78  N        126.7890   20.2010  -18.5320 N.am  156  PHE156     -0.1962
     79  CA       126.7910   19.4060  -17.2820 C.3   156  PHE156      0.1771
     80  C        128.1300   18.6730  -17.1260 C.2   156  PHE156      0.2619
     81  O        128.1620   17.4380  -16.7730 O.2   156  PHE156     -0.2715
     82  CB       125.6800   18.3490  -17.2830 C.3   156  PHE156      0.0574
     83  CG       124.2390   18.8610  -17.3350 C.ar  156  PHE156     -0.0200
     84  CD1      123.8540   20.0110  -16.7200 C.ar  156  PHE156     -0.0042
     85  CD2      123.2730   18.1210  -18.0300 C.ar  156  PHE156     -0.0042
     86  CE1      122.5520   20.4450  -16.7820 C.ar  156  PHE156     -0.0003
     87  CE2      121.9430   18.5570  -18.0760 C.ar  156  PHE156     -0.0003
     88  CZ       121.6110   19.7190  -17.4710 C.ar  156  PHE156     -0.0000
     89  N        129.2490   19.3930  -17.3790 N.am  157  ILE157     -0.1963
     90  CA       130.5470   18.7230  -17.3240 C.3   157  ILE157      0.1727
     91  C        131.1290   18.9570  -15.9190 C.2   157  ILE157      0.2616
     92  O        131.5030   20.0640  -15.5530 O.2   157  ILE157     -0.2715
     93  CB       131.4860   19.2590  -18.3980 C.3   157  ILE157      0.0290
     94  CG1      130.8210   19.0410  -19.7900 C.3   157  ILE157      0.0022
     95  CG2      132.8270   18.5140  -18.3410 C.3   157  ILE157      0.0023
     96  CD1      130.2650   17.6000  -20.0180 C.3   157  ILE157      0.0001
     97  N        131.3510   17.8510  -15.2170 N.am  158  THR158     -0.1951
     98  CA       131.9330   17.8640  -13.8860 C.3   158  THR158      0.1897
     99  C        133.3690   18.3370  -14.0590 C.2   158  THR158      0.2313
    100  O        134.1020   17.8280  -14.8890 O.2   158  THR158     -0.2863
    101  CB       131.9060   16.4770  -13.2390 C.3   158  THR158      0.1794
    102  OG1      130.5440   16.0970  -13.0720 O.3   158  THR158     -0.2208
    103  CG2      132.4840   16.4370  -11.9080 C.3   158  THR158      0.0378
    104  N        122.7400   24.1690   -8.6670 N.3   201  LYS201     -0.1245
    105  CA       122.0910   22.8070   -8.5220 C.3   201  LYS201      0.1561
    106  C        121.3720   22.6670   -7.2270 C.2   201  LYS201      0.2260
    107  O        121.4990   23.5020   -6.3190 O.2   201  LYS201     -0.2867
    108  CB       123.2070   21.7740   -8.5820 C.3   201  LYS201      0.0271
    109  CG       123.9720   21.7590   -9.9150 C.3   201  LYS201      0.0035
    110  CD       125.2200   20.8680   -9.9520 C.3   201  LYS201      0.0206
    111  CE       126.2750   21.3340   -8.9440 C.3   201  LYS201      0.1093
    112  NZ       127.5830   20.6890   -9.2210 N.3   201  LYS201     -0.1314
    113  N        130.2030   22.1940  -12.0800 N.3   209  THR209     -0.1218
    114  CA       129.5390   21.6720  -13.2690 C.3   209  THR209      0.1862
    115  C        129.3350   22.7920  -14.2700 C.2   209  THR209      0.2287
    116  O        128.6100   23.7610  -13.9700 O.2   209  THR209     -0.2866
    117  CB       128.1770   21.0640  -12.8910 C.3   209  THR209      0.1770
    118  OG1      128.3290   20.1110  -11.8000 O.3   209  THR209     -0.2211
    119  CG2      127.5650   20.3870  -14.0730 C.3   209  THR209      0.0375
    120  N        132.8000    5.2630  -19.1790 N.3   239  LEU239     -0.1245
    121  CA       131.6020    5.2880  -18.3120 C.3   239  LEU239      0.1561
    122  C        131.4310    4.0620  -17.4400 C.2   239  LEU239      0.2260
    123  O        130.9850    4.1860  -16.2900 O.2   239  LEU239     -0.2867
    124  CB       130.3540    5.5620  -19.1040 C.3   239  LEU239      0.0270
    125  CG       130.3690    7.0550  -19.4220 C.3   239  LEU239      0.0019
    126  CD1      129.4080    7.2680  -20.5320 C.3   239  LEU239      0.0001
    127  CD2      130.1340    8.0380  -18.2610 C.3   239  LEU239      0.0001
    128  N        121.6570   13.3270   -7.0890 N.3   358  ILE358     -0.1245
    129  CA       122.3840   13.3850   -8.3580 C.3   358  ILE358      0.1561
    130  C        123.0760   12.0790   -8.6670 C.2   358  ILE358      0.2260
    131  O        123.2410   11.7200   -9.8200 O.2   358  ILE358     -0.2867
    132  CB       123.3930   14.5470   -8.3610 C.3   358  ILE358      0.0252
    133  CG1      124.0400   14.7050   -9.7230 C.3   358  ILE358      0.0019
    134  CG2      124.4700   14.3090   -7.3880 C.3   358  ILE358      0.0019
    135  CD1      123.0840   14.8000  -10.8570 C.3   358  ILE358      0.0001
    136  N        121.3110    9.9700  -11.2510 N.3   361  ILE361     -0.1231
    137  CA       121.1590   10.6330  -12.5770 C.3   361  ILE361      0.1692
    138  C        122.4960   10.6640  -13.3240 C.2   361  ILE361      0.2592
    139  O        122.4940   10.3490  -14.5180 O.2   361  ILE361     -0.2718
    140  CB       120.6870   12.0260  -12.3650 C.3   361  ILE361      0.0266
    141  CG1      119.2450   11.9660  -11.8550 C.3   361  ILE361      0.0019
    142  CG2      120.7430   12.8380  -13.6870 C.3   361  ILE361      0.0020
    143  CD1      118.6640   13.2690  -11.3960 C.3   361  ILE361      0.0001
    144  N        123.5690   11.1410  -12.7100 N.am  362  TYR362     -0.1962
    145  CA       124.8230   11.2970  -13.4770 C.3   362  TYR362      0.1771
    146  C        125.6420   10.0390  -13.6810 C.2   362  TYR362      0.2619
    147  O        125.4060    9.0710  -13.0350 O.2   362  TYR362     -0.2715
    148  CB       125.7000   12.4490  -13.0630 C.3   362  TYR362      0.0574
    149  CG       126.3940   12.5160  -11.7320 C.ar  362  TYR362     -0.0198
    150  CD1      126.3960   11.4980  -10.8090 C.ar  362  TYR362     -0.0009
    151  CD2      127.0170   13.6900  -11.4150 C.ar  362  TYR362     -0.0009
    152  CE1      127.0220   11.6620   -9.5820 C.ar  362  TYR362      0.0417
    153  CE2      127.6240   13.9050  -10.2270 C.ar  362  TYR362      0.0417
    154  CZ       127.6780   12.8690   -9.3020 C.ar  362  TYR362      0.1957
    155  OH       128.2040   13.1420   -8.1010 O.3   362  TYR362     -0.2866
    156  N        126.5640   10.1090  -14.6700 N.am  363  GLU363     -0.1963
    157  CA       127.1760    8.9290  -15.2550 C.3   363  GLU363      0.1733
    158  C        126.1840    7.8950  -15.7960 C.2   363  GLU363      0.2617
    159  O        126.5470    6.7420  -15.9060 O.2   363  GLU363     -0.2715
    160  CB       128.2220    8.3420  -14.2990 C.3   363  GLU363      0.0429
    161  CG       129.1740    9.5200  -14.0190 C.3   363  GLU363      0.1163
    162  CD       130.5340    9.1900  -13.5600 C.2   363  GLU363      0.3649
    163  OE1      131.0400    8.1220  -13.9730 O.co2 363  GLU363     -0.2457
    164  OE2      131.0850   10.0840  -12.8320 O.co2 363  GLU363     -0.2457
    165  N        125.0060    8.3620  -16.2470 N.am  364  GLY364     -0.1940
    166  CA       124.0100    7.4710  -16.7940 C.3   364  GLY364      0.2014
    167  C        122.9640    7.3880  -15.7230 C.2   364  GLY364      0.2639
    168  O        123.2650    7.1240  -14.5660 O.2   364  GLY364     -0.2714
    169  N        121.7220    7.6230  -16.0770 N.am  365  THR365     -0.1950
    170  CA       120.7000    7.5540  -15.0630 C.3   365  THR365      0.1897
    171  C        120.4520    6.0850  -14.6250 C.2   365  THR365      0.2313
    172  O        120.8190    5.1380  -15.3150 O.2   365  THR365     -0.2863
    173  CB       119.3590    8.0360  -15.5950 C.3   365  THR365      0.1794
    174  OG1      118.9440    7.1340  -16.6330 O.3   365  THR365     -0.2208
    175  CG2      119.4680    9.3950  -16.1760 C.3   365  THR365      0.0378
    176  N        117.8200    4.5460  -14.9450 N.3   367  GLN367     -0.1231
    177  CA       117.0760    3.8600  -16.0040 C.3   367  GLN367      0.1698
    178  C        118.1240    3.2440  -16.9420 C.2   367  GLN367      0.2592
    179  O        117.9370    2.0720  -17.3630 O.2   367  GLN367     -0.2718
    180  CB       116.1460    4.8150  -16.7830 C.3   367  GLN367      0.0381
    181  CG       114.9600    5.2890  -15.9020 C.3   367  GLN367      0.0905
    182  CD       115.3440    6.1140  -14.6520 C.2   367  GLN367      0.2608
    183  OE1      116.1480    7.0640  -14.7340 O.2   367  GLN367     -0.2717
    184  NE2      114.8540    5.7120  -13.5140 N.am  367  GLN367     -0.0878
    185  N        119.1700    4.0150  -17.3300 N.am  368  VAL368     -0.1980
    186  CA       120.2350    3.4400  -18.1790 C.3   368  VAL368      0.1595
    187  C        120.8220    2.2470  -17.4900 C.2   368  VAL368      0.2287
    188  O        121.1100    1.2220  -18.1370 O.2   368  VAL368     -0.2864
    189  CB       121.3970    4.4100  -18.4820 C.3   368  VAL368      0.0276
    190  CG1      122.5520    3.6600  -19.2060 C.3   368  VAL368      0.0022
    191  CG2      120.8480    5.5730  -19.3040 C.3   368  VAL368      0.0022
    192  N        118.7540   -0.7100  -18.1440 N.3   371  ILE371     -0.1245
    193  CA       118.8710   -1.1230  -19.5510 C.3   371  ILE371      0.1561
    194  C        120.1190   -1.9730  -19.6100 C.2   371  ILE371      0.2260
    195  O        120.1240   -3.0750  -20.1710 O.2   371  ILE371     -0.2867
    196  CB       118.8710    0.0950  -20.5250 C.3   371  ILE371      0.0252
    197  CG1      117.5090    0.8010  -20.4750 C.3   371  ILE371      0.0019
    198  CG2      119.3550   -0.2920  -21.9080 C.3   371  ILE371      0.0019
    199  CD1      117.5100    2.0820  -21.2640 C.3   371  ILE371      0.0001
@<TRIPOS>BOND
     1    69    67   ar
     2    42    41   ar
     3    43    41   ar
     4    68    67   ar
     5    41    40    1
     6    67    66    1
     7    65    64    2
     8    40    39    1
     9    66    63    1
    10    39    36    1
    11    64    63    1
    12    63    62    1
    13    46    47    2
    14    46    45    1
    15    48    49    1
    16    48    45    1
    17    50    49    1
    18    50    44    1
    19    26    25    1
    20    44    45    1
    21    44    37   am
    22    36    37    1
    23    36    35    1
    24    23    22    2
    25    37    38    2
    26    62    57   am
    27    35    30   am
    28    51    52    1
    29    25    27    1
    30    25    24    1
    31    22    21    1
    32    22    28   am
    33    58    57    2
    34    57    56    1
    35    21    24    1
    36    21    20    1
    37    30    31    2
    38    30    29    1
    39    29    28    1
    40    29    32    1
    41    54    53    2
    42    52    53    1
    43    53    55   am
    44    55    56    1
    45    56    59    1
    46    76    74    1
    47    70    71    1
    48   198   196    1
    49    59    61    1
    50    59    60    1
    51    75    77    1
    52    75    74    1
    53    34    32    1
    54    32    33    1
    55   199   197    1
    56    19    17   ar
    57    19    18   ar
    58    17    15   ar
    59    74    71    1
    60    71    72    1
    61    18    16   ar
    62   126   125    1
    63   196   197    1
    64   196   193    1
    65    15    14   ar
    66    11    10    1
    67    11    12    2
    68   195   194    2
    69    96    94    1
    70    73    72    2
    71    16    14   ar
    72    14    13    1
    73    94    93    1
    74    72    78   am
    75    10    13    1
    76    10     9    1
    77   194   193    1
    78   193   192    1
    79   125   124    1
    80   125   127    1
    81   191   189    1
    82   190   189    1
    83   120   121    1
    84   124   121    1
    85     4     3    2
    86    78    79    1
    87   189   186    1
    88    93    95    1
    89    93    90    1
    90   121   122    1
    91   186   187    1
    92   186   185    1
    93   188   187    2
    94    87    85   ar
    95    87    88   ar
    96    85    83   ar
    97     3     2    1
    98    88    86   ar
    99   122   123    2
   100    89    90    1
   101    89    80   am
   102   179   178    2
   103    83    82    1
   104    83    84   ar
   105   185   178   am
   106    90    91    1
   107    82    79    1
   108    79    80    1
   109    80    81    2
   110   178   177    1
   111   166   165    1
   112   166   167    1
   113   180   177    1
   114   180   181    1
   115    86    84   ar
   116   174   173    1
   117     2     5    1
   118     2     1    1
   119     5     6    1
   120   165   158   am
   121     8     6    1
   122   175   173    1
   123   169   167   am
   124   169   170    1
   125   177   176    1
   126    91    92    2
   127    91    97   am
   128   159   158    2
   129   181   182    1
   130   158   157    1
   131   167   168    2
   132   173   170    1
   133     6     7    1
   134   172   171    2
   135   157   156    1
   136   157   160    1
   137    97    98    1
   138   170   171    1
   139   100    99    2
   140   183   182    2
   141   156   146   am
   142   182   184   am
   143   139   138    2
   144   160   161    1
   145   115   116    2
   146   115   114    1
   147   119   117    1
   148    99    98    1
   149   161   162    1
   150   163   162   ar
   151    98   101    1
   152   142   140    1
   153   146   145    1
   154   146   147    2
   155   162   164   ar
   156   145   148    1
   157   145   144    1
   158   138   144   am
   159   138   137    1
   160   114   117    1
   161   114   113    1
   162   101   102    1
   163   101   103    1
   164   148   149    1
   165   117   118    1
   166   137   140    1
   167   137   136    1
   168   140   141    1
   169   141   143    1
   170   149   151   ar
   171   149   150   ar
   172   151   153   ar
   173   135   133    1
   174   150   152   ar
   175   153   154   ar
   176   110   109    1
   177   110   111    1
   178   109   108    1
   179   131   130    2
   180   133   132    1
   181   152   154   ar
   182   154   155    1
   183   112   111    1
   184   130   129    1
   185   104   105    1
   186   108   105    1
   187   105   106    1
   188   132   129    1
   189   132   134    1
   190   129   128    1
   191   106   107    2
