@<TRIPOS>MOLECULE
tmp/4l1fB00.pdb
 142 140 0 0 0
SMALL
GASTEIGER

@<TRIPOS>ATOM
      1  N        123.5600   10.9420   16.4390 N.3   264  TYR264     -0.1241
      2  CA       122.5360   11.8390   16.9350 C.3   264  TYR264      0.1605
      3  C        121.4790   11.1060   17.7340 C.2   264  TYR264      0.2264
      4  O        121.0230   11.5590   18.7780 O.2   264  TYR264     -0.2867
      5  CB       121.9320   12.5830   15.7600 C.3   264  TYR264      0.0534
      6  CG       120.8970   13.6160   16.1770 C.ar  264  TYR264     -0.0201
      7  CD1      121.3030   14.8460   16.7390 C.ar  264  TYR264     -0.0009
      8  CD2      119.5490   13.3260   16.1160 C.ar  264  TYR264     -0.0009
      9  CE1      120.3550   15.7900   17.1130 C.ar  264  TYR264      0.0417
     10  CE2      118.5960   14.2850   16.4980 C.ar  264  TYR264      0.0417
     11  CZ       119.0490   15.5370   17.0310 C.ar  264  TYR264      0.1957
     12  OH       118.0930   16.5150   17.4640 O.3   264  TYR264     -0.2866
     13  N        120.2700   12.4780   21.3530 N.3   268  ARG268     -0.1245
     14  CA       118.9930   13.1800   21.4180 C.3   268  ARG268      0.1563
     15  C        117.9860   12.3920   22.2520 C.2   268  ARG268      0.2260
     16  O        117.7350   11.2560   21.9430 O.2   268  ARG268     -0.2867
     17  CB       118.3950   13.3600   20.0090 C.3   268  ARG268      0.0307
     18  CG       116.9880   13.9190   19.9620 C.3   268  ARG268      0.0489
     19  CD       116.9630   15.2670   20.6290 C.3   268  ARG268      0.2205
     20  NE       115.6420   15.8890   20.3700 N.pl3 268  ARG268     -0.0865
     21  CZ       115.3010   17.0870   20.8080 C.cat 268  ARG268      0.5346
     22  NH1      116.1660   17.7390   21.5890 N.pl3 268  ARG268      0.1354
     23  NH2      114.1490   17.5880   20.4680 N.pl3 268  ARG268      0.1354
     24  N        114.0080   12.2260   23.8890 N.3   270  GLN270     -0.1231
     25  CA       112.5940   12.6490   24.0150 C.3   270  GLN270      0.1698
     26  C        111.9310   11.5720   24.8760 C.2   270  GLN270      0.2592
     27  O        112.3570   10.4030   24.7670 O.2   270  GLN270     -0.2718
     28  CB       111.9120   12.6890   22.6360 C.3   270  GLN270      0.0381
     29  CG       112.3700   13.8490   21.7370 C.3   270  GLN270      0.0905
     30  CD       111.8850   15.1660   22.3220 C.2   270  GLN270      0.2608
     31  OE1      110.7520   15.6210   22.1000 O.2   270  GLN270     -0.2717
     32  NE2      112.7090   15.7670   23.1100 N.am  270  GLN270     -0.0878
     33  N        110.9130   11.9330   25.6990 N.am  271  PHE271     -0.1976
     34  CA       110.2190   11.0230   26.5730 C.3   271  PHE271      0.1639
     35  C        111.1950   10.3540   27.5560 C.2   271  PHE271      0.2290
     36  O        110.9830    9.2170   27.9160 O.2   271  PHE271     -0.2864
     37  CB       109.4510    9.9370   25.7550 C.3   271  PHE271      0.0560
     38  CG       108.4910   10.4900   24.7150 C.ar  271  PHE271     -0.0200
     39  CD1      107.2160   10.8890   25.0710 C.ar  271  PHE271     -0.0042
     40  CD2      108.8720   10.6490   23.3840 C.ar  271  PHE271     -0.0042
     41  CE1      106.3430   11.4070   24.1250 C.ar  271  PHE271     -0.0003
     42  CE2      107.9800   11.1710   22.4450 C.ar  271  PHE271     -0.0003
     43  CZ       106.7250   11.5550   22.7990 C.ar  271  PHE271     -0.0000
     44  N        116.4800    8.7000   21.5550 N.3   275  ILE275     -0.1245
     45  CA       115.4730    8.3120   20.5380 C.3   275  ILE275      0.1561
     46  C        115.8540    6.9460   19.9220 C.2   275  ILE275      0.2260
     47  O        115.0170    6.2290   19.3930 O.2   275  ILE275     -0.2867
     48  CB       115.2350    9.3960   19.5030 C.3   275  ILE275      0.0252
     49  CG1      116.5050    9.7700   18.8290 C.3   275  ILE275      0.0019
     50  CG2      114.6030   10.5820   20.1830 C.3   275  ILE275      0.0019
     51  CD1      116.3140   10.6510   17.5800 C.3   275  ILE275      0.0001
     52  N        113.6470    3.8530   20.7100 N.3   278  PHE278     -0.1241
     53  CA       112.3240    3.5650   20.1300 C.3   278  PHE278      0.1605
     54  C        112.4870    2.5340   18.9880 C.2   278  PHE278      0.2264
     55  O        113.2480    2.7450   18.0210 O.2   278  PHE278     -0.2867
     56  CB       111.6950    4.8400   19.5950 C.3   278  PHE278      0.0534
     57  CG       111.3250    5.7680   20.7130 C.ar  278  PHE278     -0.0203
     58  CD1      110.3380    5.3670   21.6600 C.ar  278  PHE278     -0.0042
     59  CD2      111.9900    6.9460   20.8890 C.ar  278  PHE278     -0.0042
     60  CE1      110.0670    6.1890   22.7760 C.ar  278  PHE278     -0.0003
     61  CE2      111.7530    7.7490   21.9960 C.ar  278  PHE278     -0.0003
     62  CZ       110.8130    7.3700   22.9240 C.ar  278  PHE278     -0.0000
     63  N        110.7840    1.6480   16.2720 N.3   280  ALA280     -0.1231
     64  CA       110.5990    2.0150   14.8970 C.3   280  ALA280      0.1694
     65  C        111.8900    2.6480   14.4050 C.2   280  ALA280      0.2591
     66  O        112.2690    2.4320   13.2690 O.2   280  ALA280     -0.2718
     67  CB       109.4790    3.0370   14.7690 C.3   280  ALA280      0.0304
     68  N        112.5390    3.4790   15.2020 N.am  281  LEU281     -0.1980
     69  CA       113.8040    4.1040   14.7690 C.3   281  LEU281      0.1596
     70  C        114.9820    3.1120   14.7140 C.2   281  LEU281      0.2287
     71  O        115.8610    3.1400   13.8130 O.2   281  LEU281     -0.2864
     72  CB       114.1790    5.2800   15.6120 C.3   281  LEU281      0.0297
     73  CG       113.3730    6.5470   15.6160 C.3   281  LEU281      0.0022
     74  CD1      114.2460    7.5890   16.3430 C.3   281  LEU281      0.0001
     75  CD2      113.0700    6.9810   14.1890 C.3   281  LEU281      0.0001
     76  N        115.0210   12.3450    8.4920 N.3   336  GLN336     -0.1231
     77  CA       113.9160   12.0290    9.3430 C.3   336  GLN336      0.1698
     78  C        114.3210   11.8190   10.8090 C.2   336  GLN336      0.2592
     79  O        113.6610   12.3100   11.7320 O.2   336  GLN336     -0.2718
     80  CB       113.1510   10.8320    8.8160 C.3   336  GLN336      0.0381
     81  CG       111.8080   10.6170    9.4640 C.3   336  GLN336      0.0905
     82  CD       110.7970   11.6080    9.0190 C.2   336  GLN336      0.2608
     83  OE1      110.9730   12.2620    7.9420 O.2   336  GLN336     -0.2717
     84  NE2      109.7460   11.7940    9.8160 N.am  336  GLN336     -0.0878
     85  N        115.4220   11.1050   11.0180 N.am  337  ILE337     -0.1966
     86  CA       115.9000   10.7880   12.3770 C.3   337  ILE337      0.1727
     87  C        116.2980   12.0610   13.1630 C.2   337  ILE337      0.2616
     88  O        116.1680   12.1280   14.3760 O.2   337  ILE337     -0.2715
     89  CB       117.0870    9.8110   12.2870 C.3   337  ILE337      0.0290
     90  CG1      116.4940    8.4550   11.8890 C.3   337  ILE337      0.0022
     91  CG2      117.8450    9.7870   13.5700 C.3   337  ILE337      0.0023
     92  CD1      117.4880    7.4820   11.3720 C.3   337  ILE337      0.0001
     93  N        116.8040   13.0750   12.4530 N.am  338  PHE338     -0.1960
     94  CA       117.1410   14.3860   13.0960 C.3   338  PHE338      0.1771
     95  C        115.9100   15.2770   13.3590 C.2   338  PHE338      0.2620
     96  O        115.9650   16.2520   14.1140 O.2   338  PHE338     -0.2715
     97  CB       118.0870   15.1710   12.2430 C.3   338  PHE338      0.0574
     98  CG       119.5160   14.7560   12.2850 C.ar  338  PHE338     -0.0200
     99  CD1      119.9670   13.7560   11.4670 C.ar  338  PHE338     -0.0042
    100  CD2      120.4290   15.4190   13.1630 C.ar  338  PHE338     -0.0042
    101  CE1      121.2980   13.3720   11.5340 C.ar  338  PHE338     -0.0003
    102  CE2      121.7580   15.0290   13.2340 C.ar  338  PHE338     -0.0003
    103  CZ       122.1970   14.0190   12.3790 C.ar  338  PHE338     -0.0000
    104  N        114.7780   14.8880   12.8220 N.am  339  GLY339     -0.1940
    105  CA       113.5220   15.6090   13.0300 C.3   339  GLY339      0.2014
    106  C        113.6140   16.9850   12.4090 C.2   339  GLY339      0.2639
    107  O        114.2630   17.1790   11.3790 O.2   339  GLY339     -0.2714
    108  N        113.0580   17.9900   13.1010 N.am  340  GLY340     -0.1939
    109  CA       113.0950   19.3380   12.5430 C.3   340  GLY340      0.2014
    110  C        114.5230   19.8310   12.2730 C.2   340  GLY340      0.2638
    111  O        114.8240   20.4880   11.2800 O.2   340  GLY340     -0.2714
    112  N        115.4230   19.5610   13.1920 N.am  341  TYR341     -0.1973
    113  CA       116.8450   19.8810   13.0680 C.3   341  TYR341      0.1639
    114  C        117.4030   19.4250   11.7390 C.2   341  TYR341      0.2290
    115  O        118.2670   20.0790   11.1060 O.2   341  TYR341     -0.2864
    116  CB       117.6500   19.2520   14.2370 C.3   341  TYR341      0.0560
    117  CG       117.1070   19.7360   15.5810 C.ar  341  TYR341     -0.0198
    118  CD1      117.5600   20.9100   16.1270 C.ar  341  TYR341     -0.0009
    119  CD2      116.1020   19.0500   16.2290 C.ar  341  TYR341     -0.0009
    120  CE1      117.0260   21.3850   17.3430 C.ar  341  TYR341      0.0417
    121  CE2      115.5520   19.5110   17.4380 C.ar  341  TYR341      0.0417
    122  CZ       116.0310   20.7050   17.9630 C.ar  341  TYR341      0.1957
    123  OH       115.5340   21.1000   19.2090 O.3   341  TYR341     -0.2866
    124  N        116.0570   19.3330    8.9020 N.3   343  TYR343     -0.1227
    125  CA       115.6470   20.1190    7.7480 C.3   343  TYR343      0.1736
    126  C        116.4370   21.4380    7.7590 C.2   343  TYR343      0.2596
    127  O        116.2270   22.3100    6.8820 O.2   343  TYR343     -0.2718
    128  CB       114.1580   20.4320    7.8140 C.3   343  TYR343      0.0548
    129  CG       113.5670   20.8650    6.4910 C.ar  343  TYR343     -0.0200
    130  CD1      113.5370   19.9350    5.3950 C.ar  343  TYR343     -0.0009
    131  CD2      112.9790   22.1030    6.3070 C.ar  343  TYR343     -0.0009
    132  CE1      113.0470   20.2940    4.1820 C.ar  343  TYR343      0.0417
    133  CE2      112.4370   22.4520    5.0820 C.ar  343  TYR343      0.0417
    134  CZ       112.4410   21.5700    4.0080 C.ar  343  TYR343      0.1957
    135  OH       111.9060   21.9450    2.7620 O.3   343  TYR343     -0.2866
    136  N        117.3800   21.6010    8.7010 N.am  344  THR344     -0.1953
    137  CA       118.1540   22.8350    8.7780 C.3   344  THR344      0.1897
    138  C        119.6040   22.6260    8.3640 C.2   344  THR344      0.2313
    139  O        120.2010   21.5660    8.5150 O.2   344  THR344     -0.2863
    140  CB       118.1030   23.4830   10.1760 C.3   344  THR344      0.1794
    141  OG1      118.8680   22.6950   11.0970 O.3   344  THR344     -0.2208
    142  CG2      116.7130   23.5340   10.6570 C.3   344  THR344      0.0378
@<TRIPOS>BOND
     1   135   134    1
     2   134   132   ar
     3   134   133   ar
     4   132   130   ar
     5   133   131   ar
     6   130   129   ar
     7   131   129   ar
     8   129   128    1
     9   127   126    2
    10   125   126    1
    11   125   128    1
    12   125   124    1
    13   126   136   am
    14    83    82    2
    15   138   139    2
    16   138   137    1
    17    76    77    1
    18   136   137    1
    19   137   140    1
    20    80    77    1
    21    80    81    1
    22    82    81    1
    23    82    84   am
    24    77    78    1
    25   140   142    1
    26   140   141    1
    27    78    85   am
    28    78    79    2
    29    85    86    1
    30   115   114    2
    31   111   110    2
    32    92    90    1
    33   107   106    2
    34    99   101   ar
    35    99    98   ar
    36   101   103   ar
    37   114   113    1
    38    90    89    1
    39    97    98    1
    40    97    94    1
    41   110   109    1
    42   110   112   am
    43    98   100   ar
    44    89    86    1
    45    89    91    1
    46    86    87    1
    47   103   102   ar
    48   106   105    1
    49   106   108   am
    50    93    94    1
    51    93    87   am
    52   109   108    1
    53   104   105    1
    54   104    95   am
    55   113   112    1
    56   113   116    1
    57    94    95    1
    58    87    88    2
    59   100   102   ar
    60    66    65    2
    61    95    96    2
    62    71    70    2
    63    75    73    1
    64   116   117    1
    65    65    64    1
    66    65    68   am
    67    70    69    1
    68    67    64    1
    69    69    68    1
    70    69    72    1
    71    64    63    1
    72   117   118   ar
    73   117   119   ar
    74    72    73    1
    75    73    74    1
    76     5     6    1
    77     5     2    1
    78     8     6   ar
    79     8    10   ar
    80   118   120   ar
    81     6     7   ar
    82   119   121   ar
    83     1     2    1
    84    10    11   ar
    85     7     9   ar
    86     2     3    1
    87    11     9   ar
    88    11    12    1
    89   120   122   ar
    90   121   122   ar
    91    51    49    1
    92     3     4    2
    93   122   123    1
    94    55    54    2
    95    49    48    1
    96    54    53    1
    97    47    46    2
    98    48    50    1
    99    48    45    1
   100    56    53    1
   101    56    57    1
   102    46    45    1
   103    18    17    1
   104    18    19    1
   105    17    14    1
   106    53    52    1
   107    20    19    1
   108    20    21    2
   109    23    21    1
   110    45    44    1
   111    57    59   ar
   112    57    58   ar
   113    21    22    1
   114    59    61   ar
   115    13    14    1
   116    14    15    1
   117    58    60   ar
   118    29    30    1
   119    29    28    1
   120    16    15    2
   121    61    62   ar
   122    31    30    2
   123    30    32   am
   124    42    43   ar
   125    42    40   ar
   126    28    25    1
   127    60    62   ar
   128    43    41   ar
   129    40    38   ar
   130    24    25    1
   131    25    26    1
   132    41    39   ar
   133    38    39   ar
   134    38    37    1
   135    27    26    2
   136    26    33   am
   137    33    34    1
   138    37    34    1
   139    34    35    1
   140    35    36    2
