@<TRIPOS>MOLECULE
tmp/4l1jB02.pdb
 82 81 0 0 0
SMALL
GASTEIGER

@<TRIPOS>ATOM
      1  N        -27.0750  -21.1450   22.3100 N.3    26  ARG26      -0.1245
      2  CA       -26.1990  -22.2920   22.4220 C.3    26  ARG26       0.1563
      3  C        -26.8300  -23.3120   23.3690 C.2    26  ARG26       0.2260
      4  O        -27.0090  -23.0550   24.5650 O.2    26  ARG26      -0.2867
      5  CB       -24.8090  -21.8320   22.8570 C.3    26  ARG26       0.0307
      6  CG       -24.0690  -21.1580   21.7070 C.3    26  ARG26       0.0489
      7  CD       -23.0920  -22.1320   21.0690 C.3    26  ARG26       0.2205
      8  NE       -21.9220  -22.2970   21.9300 N.pl3  26  ARG26      -0.0865
      9  CZ       -21.0700  -23.3160   21.8530 C.cat  26  ARG26       0.5346
     10  NH1      -21.2610  -24.2750   20.9550 N.pl3  26  ARG26       0.1354
     11  NH2      -20.0330  -23.3820   22.6880 N.pl3  26  ARG26       0.1354
     12  N        -26.1480  -26.2050   24.8080 N.3    28  GLY28      -0.1210
     13  CA       -25.4920  -26.7170   26.0060 C.3    28  GLY28       0.1956
     14  C        -25.8680  -25.9190   27.2410 C.2    28  GLY28       0.2611
     15  O        -26.1430  -26.4770   28.3060 O.2    28  GLY28      -0.2717
     16  N        -25.8780  -24.5960   27.1020 N.am   29  TRP29      -0.1976
     17  CA       -26.2610  -23.7260   28.2200 C.3    29  TRP29       0.1640
     18  C        -27.7660  -23.7580   28.4840 C.2    29  TRP29       0.2290
     19  O        -28.1890  -23.7200   29.6310 O.2    29  TRP29      -0.2864
     20  CB       -25.8300  -22.2820   27.9640 C.3    29  TRP29       0.0576
     21  CG       -24.4660  -22.1070   27.3960 C.ar   29  TRP29       0.0006
     22  CD1      -24.1360  -21.4090   26.2600 C.ar   29  TRP29       0.0946
     23  CD2      -23.2360  -22.6230   27.9180 C.ar   29  TRP29       0.0152
     24  NE1      -22.7820  -21.4510   26.0610 N.ar   29  TRP29      -0.2442
     25  CE2      -22.2060  -22.1950   27.0590 C.ar   29  TRP29       0.0810
     26  CE3      -22.9020  -23.4000   29.0340 C.ar   29  TRP29       0.0012
     27  CZ2      -20.8710  -22.5250   27.2710 C.ar   29  TRP29       0.0191
     28  CZ3      -21.5680  -23.7250   29.2430 C.ar   29  TRP29       0.0001
     29  CH2      -20.5740  -23.2860   28.3690 C.ar   29  TRP29       0.0015
     30  N        -28.8610  -25.8670   16.9580 N.3    75  ASP75      -0.1225
     31  CA       -27.6390  -26.2740   17.6330 C.3    75  ASP75       0.1805
     32  C        -27.8530  -27.6240   18.3180 C.2    75  ASP75       0.2598
     33  O        -28.4070  -27.7120   19.4230 O.2    75  ASP75      -0.2718
     34  CB       -27.2020  -25.1940   18.6310 C.3    75  ASP75       0.1424
     35  CG       -25.9410  -25.5660   19.3920 C.2    75  ASP75       0.3668
     36  OD1      -25.2180  -26.5040   18.9800 O.co2  75  ASP75      -0.2456
     37  OD2      -25.6720  -24.9170   20.4170 O.co2  75  ASP75      -0.2456
     38  N        -27.4140  -28.6810   17.6470 N.am   76  ILE76      -0.1966
     39  CA       -27.5640  -30.0330   18.1700 C.3    76  ILE76       0.1727
     40  C        -26.5400  -30.3200   19.2660 C.2    76  ILE76       0.2616
     41  O        -25.3300  -30.2030   19.0500 O.2    76  ILE76      -0.2715
     42  CB       -27.4140  -31.0640   17.0460 C.3    76  ILE76       0.0290
     43  CG1      -28.5360  -30.8700   16.0250 C.3    76  ILE76       0.0022
     44  CG2      -27.4230  -32.4800   17.6050 C.3    76  ILE76       0.0023
     45  CD1      -28.4060  -31.7660   14.8090 C.3    76  ILE76       0.0001
     46  N        -27.0350  -30.7090   20.4380 N.am   77  ALA77      -0.1964
     47  CA       -26.1730  -30.9970   21.5810 C.3    77  ALA77       0.1713
     48  C        -26.1310  -32.5030   21.8380 C.2    77  ALA77       0.2458
     49  O        -26.9940  -33.2470   21.3480 O.2    77  ALA77      -0.2730
     50  CB       -26.6780  -30.2470   22.8250 C.3    77  ALA77       0.0333
     51  N        -25.1340  -32.9650   22.6120 N.am   78  PRO78      -0.2727
     52  CA       -25.0430  -34.4000   22.8970 C.3    78  PRO78       0.1402
     53  C        -26.3480  -34.9810   23.4210 C.2    78  PRO78       0.2269
     54  O        -26.7300  -36.0920   23.0290 O.2    78  PRO78      -0.2865
     55  CB       -23.9590  -34.4600   23.9740 C.3    78  PRO78       0.0296
     56  CG       -23.0330  -33.3660   23.5860 C.3    78  PRO78       0.0237
     57  CD       -23.9460  -32.2410   23.1080 C.3    78  PRO78       0.0939
     58  N        -19.5690  -30.4870   34.2030 N.3   153  ASP153     -0.1225
     59  CA       -19.7470  -31.4360   33.0940 C.3   153  ASP153      0.1805
     60  C        -19.0480  -30.9970   31.8050 C.2   153  ASP153      0.2597
     61  O        -18.5300  -31.8300   31.0600 O.2   153  ASP153     -0.2718
     62  CB       -21.2330  -31.7220   32.8160 C.3   153  ASP153      0.1424
     63  CG       -21.8730  -32.6100   33.8710 C.2   153  ASP153      0.3668
     64  OD1      -21.1490  -33.1240   34.7520 O.co2 153  ASP153     -0.2456
     65  OD2      -23.1100  -32.8140   33.8120 O.co2 153  ASP153     -0.2456
     66  N        -19.0270  -29.6930   31.5420 N.am  154  PHE154     -0.1976
     67  CA       -18.3610  -29.1720   30.3510 C.3   154  PHE154      0.1639
     68  C        -16.8510  -29.3820   30.3910 C.2   154  PHE154      0.2290
     69  O        -16.2380  -29.7090   29.3760 O.2   154  PHE154     -0.2864
     70  CB       -18.6800  -27.6900   30.1350 C.3   154  PHE154      0.0560
     71  CG       -20.0980  -27.4420   29.7410 C.ar  154  PHE154     -0.0200
     72  CD1      -21.0700  -27.2550   30.7060 C.ar  154  PHE154     -0.0042
     73  CD2      -20.4650  -27.4140   28.4060 C.ar  154  PHE154     -0.0042
     74  CE1      -22.3890  -27.0360   30.3540 C.ar  154  PHE154     -0.0003
     75  CE2      -21.7880  -27.1980   28.0440 C.ar  154  PHE154     -0.0003
     76  CZ       -22.7470  -27.0090   29.0220 C.ar  154  PHE154     -0.0000
     77  N        -16.0380  -33.0270   29.8050 N.3   157  SER157     -0.1217
     78  CA       -16.2230  -33.4080   28.4110 C.3   157  SER157      0.1889
     79  C        -15.0120  -33.0690   27.5390 C.2   157  SER157      0.2288
     80  O        -14.8650  -33.6130   26.4510 O.2   157  SER157     -0.2866
     81  CB       -17.4760  -32.7500   27.8170 C.3   157  SER157      0.2089
     82  OG       -17.2240  -31.4030   27.4520 O.3   157  SER157     -0.2183
@<TRIPOS>BOND
     1    45    43    1
     2    43    42    1
     3    30    31    1
     4    42    44    1
     5    42    39    1
     6    31    32    1
     7    31    34    1
     8    38    39    1
     9    38    32   am
    10    39    40    1
    11    32    33    2
    12    34    35    1
    13    36    35   ar
    14    41    40    2
    15    40    46   am
    16    35    37   ar
    17    46    47    1
    18    10     9    1
    19     7     6    1
    20     7     8    1
    21    49    48    2
    22    47    48    1
    23    47    50    1
    24     6     5    1
    25    48    51   am
    26     9     8    2
    27     9    11    1
    28     1     2    1
    29     2     5    1
    30     2     3    1
    31    51    52    1
    32    51    57    1
    33    52    53    1
    34    52    55    1
    35    54    53    2
    36    57    56    1
    37     3     4    2
    38    56    55    1
    39    12    13    1
    40    13    14    1
    41    24    22   ar
    42    24    25   ar
    43    22    21   ar
    44    80    79    2
    45    25    27   ar
    46    25    23   ar
    47    16    14   am
    48    16    17    1
    49    14    15    2
    50    27    29   ar
    51    21    23   ar
    52    21    20    1
    53    82    81    1
    54    79    78    1
    55    81    78    1
    56    23    26   ar
    57    20    17    1
    58    75    73   ar
    59    75    76   ar
    60    17    18    1
    61    29    28   ar
    62    73    71   ar
    63    78    77    1
    64    18    19    2
    65    76    74   ar
    66    26    28   ar
    67    69    68    2
    68    71    70    1
    69    71    72   ar
    70    70    67    1
    71    67    68    1
    72    67    66    1
    73    74    72   ar
    74    61    60    2
    75    66    60   am
    76    60    59    1
    77    62    59    1
    78    62    63    1
    79    59    58    1
    80    65    63   ar
    81    63    64   ar
