@<TRIPOS>MOLECULE
tmp/4l1kA00.pdb
 144 133 0 0 0
SMALL
GASTEIGER

@<TRIPOS>ATOM
      1  N          0.4470    9.1730   17.5430 N.3   138  LYS138     -0.1245
      2  CA         0.0500   10.5750   17.6190 C.3   138  LYS138      0.1561
      3  C         -1.4190   10.8130   17.4940 C.2   138  LYS138      0.2260
      4  O         -1.9440   11.7140   18.1140 O.2   138  LYS138     -0.2867
      5  CB         0.8050   11.4280   16.6070 C.3   138  LYS138      0.0271
      6  CG         2.2040   11.7500   17.0700 C.3   138  LYS138      0.0035
      7  CD         2.9560   12.5160   15.9640 C.3   138  LYS138      0.0206
      8  CE         3.1520   13.9890   16.3230 C.3   138  LYS138      0.1093
      9  NZ         4.4930   14.3490   15.8740 N.3   138  LYS138     -0.1314
     10  N         -3.6630   20.4570   18.2350 N.3   153  ALA153     -0.1245
     11  CA        -4.0370   20.9570   16.9030 C.3   153  ALA153      0.1562
     12  C         -5.2400   20.2100   16.3460 C.2   153  ALA153      0.2260
     13  O         -5.3000   18.9740   16.3980 O.2   153  ALA153     -0.2867
     14  CB        -2.8960   20.8420   15.9330 C.3   153  ALA153      0.0290
     15  N         -0.3320   20.6020    8.1620 N.3   180  PHE180     -0.1241
     16  CA         0.8230   19.8010    8.5020 C.3   180  PHE180      0.1605
     17  C          0.4660   18.3410    8.3340 C.2   180  PHE180      0.2264
     18  O         -0.5050   17.8460    8.8930 O.2   180  PHE180     -0.2867
     19  CB         1.3770   20.1720    9.8550 C.3   180  PHE180      0.0534
     20  CG         2.0740   21.5260    9.8610 C.ar  180  PHE180     -0.0203
     21  CD1        1.3420   22.7060   10.0170 C.ar  180  PHE180     -0.0042
     22  CD2        3.4500   21.6010    9.6810 C.ar  180  PHE180     -0.0042
     23  CE1        1.9710   23.9370   10.0090 C.ar  180  PHE180     -0.0003
     24  CE2        4.1230   22.8290    9.6470 C.ar  180  PHE180     -0.0003
     25  CZ         3.3850   24.0050    9.8200 C.ar  180  PHE180     -0.0000
     26  N          1.4940   14.3810    8.5980 N.3   182  LYS182     -0.1245
     27  CA         2.4360   13.5400    9.3450 C.3   182  LYS182      0.1561
     28  C          1.9750   12.1250    9.5560 C.2   182  LYS182      0.2260
     29  O          0.7740   11.8600    9.6550 O.2   182  LYS182     -0.2867
     30  CB         2.8270   14.2110   10.6720 C.3   182  LYS182      0.0271
     31  CG         1.6660   14.5830   11.5850 C.3   182  LYS182      0.0035
     32  CD         2.1590   15.3380   12.8490 C.3   182  LYS182      0.0206
     33  CE         2.5580   16.8030   12.5820 C.3   182  LYS182      0.1093
     34  NZ         2.6970   17.5960   13.8940 N.3   182  LYS182     -0.1314
     35  N          5.3060    7.8300   13.8760 N.3   186  GLN186     -0.1245
     36  CA         6.6480    8.3280   14.0970 C.3   186  GLN186      0.1566
     37  C          7.8890    7.6630   13.4430 C.2   186  GLN186      0.2260
     38  O          7.9880    7.4700   12.2160 O.2   186  GLN186     -0.2867
     39  CB         6.9100    8.5060   15.6160 C.3   186  GLN186      0.0367
     40  CG         5.8300    9.1930   16.4480 C.3   186  GLN186      0.0905
     41  CD         6.4420    9.9780   17.5930 C.2   186  GLN186      0.2608
     42  OE1        7.5900   10.3540   17.5100 O.2   186  GLN186     -0.2717
     43  NE2        5.6870   10.2290   18.6600 N.am  186  GLN186     -0.0878
     44  N          9.8170    9.4830   13.7160 N.3   188  SER188     -0.1202
     45  CA         9.3400   10.7070   13.0850 C.3   188  SER188      0.2020
     46  C         10.1940   11.9730   12.9740 C.2   188  SER188      0.2619
     47  O         11.2210   12.1520   13.5910 O.2   188  SER188     -0.2717
     48  CB         7.9070   11.0440   13.5140 C.3   188  SER188      0.2103
     49  OG         7.0180   11.0900   12.4130 O.3   188  SER188     -0.2182
     50  N          9.7200   12.8360   12.0880 N.am  189  SER189     -0.1951
     51  CA        10.5320   13.8460   11.4590 C.3   189  SER189      0.1924
     52  C         10.6470   13.3650   10.0210 C.2   189  SER189      0.2314
     53  O         10.9910   14.1310    9.1210 O.2   189  SER189     -0.2863
     54  CB        11.9110   13.9200   12.1110 C.3   189  SER189      0.2116
     55  OG        12.5930   12.6830   12.0030 O.3   189  SER189     -0.2180
     56  N          7.0730   14.1850    7.3250 N.3   192  VAL192     -0.1245
     57  CA         6.3780   15.4190    7.7650 C.3   192  VAL192      0.1561
     58  C          6.4720   16.5310    6.7250 C.2   192  VAL192      0.2260
     59  O          7.5660   16.9820    6.4010 O.2   192  VAL192     -0.2867
     60  CB         6.9120   15.9790    9.1110 C.3   192  VAL192      0.0252
     61  CG1        6.1160   17.2220    9.5320 C.3   192  VAL192      0.0019
     62  CG2        6.8100   14.9250   10.1890 C.3   192  VAL192      0.0019
     63  N         -3.0510   18.0820   10.0800 N.3   218  GLU218     -0.1231
     64  CA        -3.4130   19.0430   11.1190 C.3   218  GLU218      0.1699
     65  C         -3.4700   20.4460   10.5810 C.2   218  GLU218      0.2592
     66  O         -2.7170   20.7710    9.6640 O.2   218  GLU218     -0.2718
     67  CB        -2.3830   19.0980   12.2790 C.3   218  GLU218      0.0402
     68  CG        -1.7350   17.8340   12.6930 C.3   218  GLU218      0.1161
     69  CD        -0.9690   17.9950   14.0160 C.2   218  GLU218      0.3649
     70  OE1       -1.2170   17.2010   14.9480 O.co2 218  GLU218     -0.2457
     71  OE2       -0.1690   18.9400   14.1490 O.co2 218  GLU218     -0.2457
     72  N         -4.3190   21.2810   11.1860 N.am  219  ALA219     -0.1966
     73  CA        -4.2590   22.7570   11.0360 C.3   219  ALA219      0.1728
     74  C         -2.9560   23.3180   11.6090 C.2   219  ALA219      0.2616
     75  O         -2.3710   22.7240   12.5060 O.2   219  ALA219     -0.2715
     76  CB        -5.4360   23.3880   11.7970 C.3   219  ALA219      0.0334
     77  N         -2.5370   24.4780   11.1250 N.am  220  ALA220     -0.1963
     78  CA        -1.3630   25.1840   11.6430 C.3   220  ALA220      0.1728
     79  C         -1.6740   25.7620   12.9870 C.2   220  ALA220      0.2616
     80  O         -2.7490   26.3240   13.2130 O.2   220  ALA220     -0.2715
     81  CB        -0.9320   26.3020   10.7080 C.3   220  ALA220      0.0334
     82  N         -0.7230   25.6380   13.8960 N.am  221  VAL221     -0.1977
     83  CA        -0.8460   26.3350   15.1400 C.3   221  VAL221      0.1596
     84  C          0.1820   27.4280   15.0550 C.2   221  VAL221      0.2287
     85  O          1.3810   27.1430   14.9060 O.2   221  VAL221     -0.2864
     86  CB        -0.5710   25.4350   16.3100 C.3   221  VAL221      0.0276
     87  CG1       -0.9690   26.1310   17.5830 C.3   221  VAL221      0.0022
     88  CG2       -1.3510   24.1280   16.1460 C.3   221  VAL221      0.0022
     89  N          7.2210   27.7510   20.2110 N.3   225  GLU225     -0.1245
     90  CA         7.4480   26.3400   20.4520 C.3   225  GLU225      0.1567
     91  C          8.1880   26.1860   21.7260 C.2   225  GLU225      0.2260
     92  O          9.3580   26.5160   21.8130 O.2   225  GLU225     -0.2867
     93  CB         8.2450   25.7210   19.3230 C.3   225  GLU225      0.0388
     94  CG         7.3980   25.5870   18.1040 C.3   225  GLU225      0.1160
     95  CD         7.8850   24.5300   17.1840 C.2   225  GLU225      0.3649
     96  OE1        7.9660   23.3540   17.6000 O.co2 225  GLU225     -0.2457
     97  OE2        8.1630   24.8820   16.0330 O.co2 225  GLU225     -0.2457
     98  N          9.4720   14.2460   27.2940 N.3   280  ARG280     -0.1245
     99  CA         9.5320   15.6510   26.8840 C.3   280  ARG280      0.1563
    100  C          8.2210   16.0250   26.2210 C.2   280  ARG280      0.2260
    101  O          7.7740   15.3440   25.2670 O.2   280  ARG280     -0.2867
    102  CB        10.7190   15.8890   25.9500 C.3   280  ARG280      0.0307
    103  CG        10.9730   17.3480   25.6630 C.3   280  ARG280      0.0489
    104  CD        11.8770   17.5530   24.4310 C.3   280  ARG280      0.2205
    105  NE        11.1480   17.3060   23.1950 N.pl3 280  ARG280     -0.0865
    106  CZ        11.4170   16.3060   22.3550 C.cat 280  ARG280      0.5346
    107  NH1       12.4030   15.4480   22.5920 N.pl3 280  ARG280      0.1354
    108  NH2       10.7020   16.1730   21.2560 N.pl3 280  ARG280      0.1354
    109  N          6.1790   18.9090   24.1730 N.3   282  ASP282     -0.1239
    110  CA         6.4110   20.0130   23.1910 C.3   282  ASP282      0.1674
    111  C          5.0320   20.6270   22.9740 C.2   282  ASP282      0.2266
    112  O          4.0450   19.9360   22.6110 O.2   282  ASP282     -0.2867
    113  CB         6.9390   19.4380   21.8520 C.3   282  ASP282      0.1410
    114  CG         8.2430   18.6660   21.9970 C.2   282  ASP282      0.3668
    115  OD1        8.9700   18.8340   23.0120 O.co2 282  ASP282     -0.2456
    116  OD2        8.6050   17.9000   21.0670 O.co2 282  ASP282     -0.2456
    117  N          2.8740   24.4780   21.8680 N.3   284  PHE284     -0.1241
    118  CA         2.8640   25.7140   21.1580 C.3   284  PHE284      0.1605
    119  C          2.3240   26.7340   22.0970 C.2   284  PHE284      0.2264
    120  O          1.4170   26.4530   22.8020 O.2   284  PHE284     -0.2867
    121  CB         1.8950   25.6620   19.9970 C.3   284  PHE284      0.0534
    122  CG         2.3290   24.8380   18.8710 C.ar  284  PHE284     -0.0203
    123  CD1        3.3930   25.1970   18.1150 C.ar  284  PHE284     -0.0042
    124  CD2        1.6360   23.7200   18.5230 C.ar  284  PHE284     -0.0042
    125  CE1        3.7610   24.4370   17.0540 C.ar  284  PHE284     -0.0003
    126  CE2        2.0130   22.9780   17.4850 C.ar  284  PHE284     -0.0003
    127  CZ         3.0680   23.3290   16.7460 C.ar  284  PHE284     -0.0000
    128  N          1.7590   19.8190   21.0500 N.3   294  ASN294     -0.1225
    129  CA         2.1410   19.1910   19.7630 C.3   294  ASN294      0.1785
    130  C          2.4240   17.6990   19.9510 C.2   294  ASN294      0.2597
    131  O          1.8130   16.8390   19.2730 O.2   294  ASN294     -0.2718
    132  CB         3.3670   19.8950   19.1540 C.3   294  ASN294      0.1169
    133  CG         3.7340   19.3280   17.7870 C.2   294  ASN294      0.2627
    134  OD1        2.8740   19.1510   16.9270 O.2   294  ASN294     -0.2716
    135  ND2        5.0080   18.9990   17.5930 N.am  294  ASN294     -0.0877
    136  N          3.3460   17.3980   20.8520 N.am  295  GLU295     -0.1979
    137  CA         3.9160   16.0770   21.0500 C.3   295  GLU295      0.1602
    138  C          4.2150   15.7230   22.5150 C.2   295  GLU295      0.2287
    139  O          4.6510   16.5450   23.2600 O.2   295  GLU295     -0.2864
    140  CB         5.2180   16.0290   20.2700 C.3   295  GLU295      0.0415
    141  CG         5.7940   14.6710   19.9450 C.3   295  GLU295      0.1163
    142  CD         7.0180   14.7410   19.0560 C.2   295  GLU295      0.3649
    143  OE1        7.9320   13.9550   19.2270 O.co2 295  GLU295     -0.2457
    144  OE2        7.0810   15.6000   18.1980 O.co2 295  GLU295     -0.2457
@<TRIPOS>BOND
     1    59    58    2
     2    58    57    1
     3    56    57    1
     4    57    60    1
     5    15    16    1
     6    17    16    1
     7    17    18    2
     8    16    19    1
     9    26    27    1
    10    60    61    1
    11    60    62    1
    12    53    52    2
    13    27    28    1
    14    27    30    1
    15    28    29    2
    16    24    22   ar
    17    24    25   ar
    18    66    65    2
    19    22    20   ar
    20    25    23   ar
    21    19    20    1
    22    20    21   ar
    23    23    21   ar
    24    52    51    1
    25    63    64    1
    26    65    64    1
    27    65    72   am
    28    30    31    1
    29    81    78    1
    30    73    72    1
    31    73    74    1
    32    73    76    1
    33    64    67    1
    34    77    74   am
    35    77    78    1
    36    51    50    1
    37    51    54    1
    38    31    32    1
    39    74    75    2
    40    78    79    1
    41    55    54    1
    42    50    46   am
    43    38    37    2
    44    67    68    1
    45    49    48    1
    46    33    32    1
    47    33    34    1
    48    68    69    1
    49    46    45    1
    50    46    47    2
    51    79    80    2
    52    79    82   am
    53    45    48    1
    54    45    44    1
    55    37    36    1
    56    35    36    1
    57    82    83    1
    58    69    71   ar
    59    69    70   ar
    60    36    39    1
    61    85    84    2
    62    84    83    1
    63    83    86    1
    64    39    40    1
    65     9     8    1
    66    14    11    1
    67     7     8    1
    68     7     6    1
    69    97    95   ar
    70    88    86    1
    71    86    87    1
    72    12    13    2
    73    12    11    1
    74    40    41    1
    75     5     6    1
    76     5     2    1
    77   127   125   ar
    78   127   126   ar
    79    11    10    1
    80   134   133    2
    81   125   123   ar
    82    95    96   ar
    83    95    94    1
    84   126   124   ar
    85     3     2    1
    86     3     4    2
    87    42    41    2
    88     1     2    1
    89   135   133   am
    90    41    43   am
    91   133   132    1
    92    94    93    1
    93   123   122   ar
    94   144   142   ar
    95   124   122   ar
    96   122   121    1
    97   142   143   ar
    98   142   141    1
    99   132   129    1
   100   131   130    2
   101    93    90    1
   102   129   130    1
   103   129   128    1
   104   141   140    1
   105   130   136   am
   106   121   118    1
   107    89    90    1
   108   140   137    1
   109    90    91    1
   110   136   137    1
   111   137   138    1
   112   116   114   ar
   113   118   117    1
   114   118   119    1
   115   108   106    1
   116    91    92    2
   117   113   114    1
   118   113   110    1
   119   114   115   ar
   120   119   120    2
   121   106   107    1
   122   106   105    2
   123   138   139    2
   124   112   111    2
   125   111   110    1
   126   110   109    1
   127   105   104    1
   128   104   103    1
   129   101   100    2
   130   103   102    1
   131   102    99    1
   132   100    99    1
   133    99    98    1
