@<TRIPOS>MOLECULE
tmp/4l1oA00.pdb
 150 143 0 0 0
SMALL
GASTEIGER

@<TRIPOS>ATOM
      1  N         17.8240   10.7880   72.3330 N.3    61  GLU61      -0.1245
      2  CA        16.6350   11.3890   71.7300 C.3    61  GLU61       0.1567
      3  C         16.9670   12.3020   70.5500 C.2    61  GLU61       0.2260
      4  O         16.0840   12.9890   70.0410 O.2    61  GLU61      -0.2867
      5  CB        15.8210   12.1470   72.7860 C.3    61  GLU61       0.0388
      6  CG        15.3640   11.2660   73.9450 C.3    61  GLU61       0.1160
      7  CD        14.5840   12.0150   75.0160 C.2    61  GLU61       0.3649
      8  OE1       14.4760   13.2610   74.9490 O.co2  61  GLU61      -0.2457
      9  OE2       14.0740   11.3470   75.9350 O.co2  61  GLU61      -0.2457
     10  N         20.1430    9.1500   66.2890 N.3    65  TYR65      -0.1241
     11  CA        19.3910    8.9870   65.0420 C.3    65  TYR65       0.1605
     12  C         20.1940    9.4590   63.8400 C.2    65  TYR65       0.2264
     13  O         20.1180    8.8560   62.7680 O.2    65  TYR65      -0.2867
     14  CB        18.0250    9.6870   65.1220 C.3    65  TYR65       0.0534
     15  CG        17.1830    9.1450   66.2590 C.ar   65  TYR65      -0.0201
     16  CD1       16.8960    7.7900   66.3390 C.ar   65  TYR65      -0.0009
     17  CD2       16.7120    9.9770   67.2710 C.ar   65  TYR65      -0.0009
     18  CE1       16.1510    7.2730   67.3840 C.ar   65  TYR65       0.0417
     19  CE2       15.9540    9.4680   68.3230 C.ar   65  TYR65       0.0417
     20  CZ        15.6810    8.1150   68.3720 C.ar   65  TYR65       0.1957
     21  OH        14.9440    7.5800   69.4020 O.3    65  TYR65      -0.2866
     22  N         14.3240   23.1750   67.7790 N.3   114  ASN114     -0.1225
     23  CA        13.9140   22.2600   68.8480 C.3   114  ASN114      0.1785
     24  C         14.7530   20.9850   68.9240 C.2   114  ASN114      0.2597
     25  O         14.9630   20.4360   70.0110 O.2   114  ASN114     -0.2718
     26  CB        12.4140   21.9400   68.7660 C.3   114  ASN114      0.1169
     27  CG        12.0240   21.2370   67.4820 C.2   114  ASN114      0.2627
     28  OD1       12.5900   21.4930   66.4160 O.2   114  ASN114     -0.2716
     29  ND2       11.0350   20.3540   67.5710 N.am  114  ASN114     -0.0877
     30  N         15.2140   20.5140   67.7720 N.am  115  TYR115     -0.1976
     31  CA        16.2010   19.4370   67.6950 C.3   115  TYR115      0.1639
     32  C         17.2510   19.9170   66.7080 C.2   115  TYR115      0.2290
     33  O         17.2850   19.4730   65.5590 O.2   115  TYR115     -0.2864
     34  CB        15.5560   18.1270   67.2430 C.3   115  TYR115      0.0560
     35  CG        14.6640   17.5250   68.2940 C.ar  115  TYR115     -0.0198
     36  CD1       13.3330   17.9170   68.4190 C.ar  115  TYR115     -0.0009
     37  CD2       15.1530   16.5790   69.1820 C.ar  115  TYR115     -0.0009
     38  CE1       12.5130   17.3720   69.4000 C.ar  115  TYR115      0.0417
     39  CE2       14.3450   16.0280   70.1600 C.ar  115  TYR115      0.0417
     40  CZ        13.0290   16.4280   70.2700 C.ar  115  TYR115      0.1957
     41  OH        12.2320   15.8600   71.2420 O.3   115  TYR115     -0.2866
     42  N         19.7760   17.2240   65.0330 N.3   118  ASN118     -0.1225
     43  CA        19.0740   16.2790   64.1690 C.3   118  ASN118      0.1785
     44  C         18.4980   16.9680   62.9400 C.2   118  ASN118      0.2597
     45  O         18.7550   16.5490   61.8080 O.2   118  ASN118     -0.2718
     46  CB        17.9610   15.5650   64.9360 C.3   118  ASN118      0.1169
     47  CG        17.2290   14.5420   64.0910 C.2   118  ASN118      0.2627
     48  OD1       17.4250   13.3460   64.2550 O.2   118  ASN118     -0.2716
     49  ND2       16.3850   15.0070   63.1860 N.am  118  ASN118     -0.0877
     50  N         17.7510   18.0480   63.1640 N.am  119  LEU119     -0.1980
     51  CA        17.0060   18.7030   62.0760 C.3   119  LEU119      0.1596
     52  C         17.8510   19.6050   61.1800 C.2   119  LEU119      0.2287
     53  O         17.3340   20.2240   60.2470 O.2   119  LEU119     -0.2864
     54  CB        15.7950   19.4420   62.6390 C.3   119  LEU119      0.0297
     55  CG        14.8330   18.4900   63.3660 C.3   119  LEU119      0.0022
     56  CD1       13.8020   19.2390   64.1920 C.3   119  LEU119      0.0001
     57  CD2       14.1380   17.5730   62.3730 C.3   119  LEU119      0.0001
     58  N         12.3870   22.8290   57.8380 N.3   186  THR186     -0.1218
     59  CA        11.5550   22.3900   58.9470 C.3   186  THR186      0.1862
     60  C         11.1790   23.6190   59.7570 C.2   186  THR186      0.2287
     61  O         12.0400   24.4250   60.1020 O.2   186  THR186     -0.2866
     62  CB        12.2810   21.3630   59.8310 C.3   186  THR186      0.1770
     63  OG1       12.7480   20.2780   59.0160 O.3   186  THR186     -0.2211
     64  CG2       11.3410   20.8270   60.9100 C.3   186  THR186      0.0375
     65  N          8.5980   20.3800   56.1370 N.3   209  GLU209     -0.1245
     66  CA         8.0700   19.6970   57.3140 C.3   209  GLU209      0.1567
     67  C          7.5730   20.7630   58.2680 C.2   209  GLU209      0.2260
     68  O          8.3620   21.4570   58.9090 O.2   209  GLU209     -0.2867
     69  CB         9.1320   18.8230   57.9830 C.3   209  GLU209      0.0388
     70  CG         8.5700   17.8800   59.0450 C.3   209  GLU209      0.1160
     71  CD         8.8130   18.3520   60.4670 C.2   209  GLU209      0.3649
     72  OE1        8.0120   19.1630   60.9910 O.co2 209  GLU209     -0.2457
     73  OE2        9.8100   17.8990   61.0680 O.co2 209  GLU209     -0.2457
     74  N          8.6610   14.9240   76.6440 N.3   237  MET237     -0.1245
     75  CA        10.0680   14.9850   76.2570 C.3   237  MET237      0.1570
     76  C         10.3280   16.3570   75.6340 C.2   237  MET237      0.2261
     77  O          9.4250   16.9720   75.0500 O.2   237  MET237     -0.2867
     78  CB        10.4770   13.8420   75.3030 C.3   237  MET237      0.0387
     79  CG         9.8200   13.8350   73.9320 C.3   237  MET237      0.0595
     80  SD        10.7440   12.8770   72.6980 S.3   237  MET237     -0.1393
     81  CE        10.7070   11.2330   73.4050 C.3   237  MET237      0.0692
     82  N          8.2070   19.0930   70.3380 N.3   242  THR242     -0.1203
     83  CA         8.4530   18.0690   69.3300 C.3   242  THR242      0.1994
     84  C          7.3810   18.1280   68.2560 C.2   242  THR242      0.2618
     85  O          6.1920   18.2550   68.5590 O.2   242  THR242     -0.2717
     86  CB         8.4770   16.6620   69.9500 C.3   242  THR242      0.1784
     87  OG1        9.3050   16.6730   71.1130 O.3   242  THR242     -0.2211
     88  CG2        9.0270   15.6490   68.9700 C.3   242  THR242      0.0376
     89  N          7.8140   18.0180   67.0050 N.am  243  CYS243     -0.1969
     90  CA         6.9210   18.1240   65.8580 C.3   243  CYS243      0.1712
     91  C          5.7780   17.1130   65.9070 C.2   243  CYS243      0.2296
     92  O          4.6510   17.4340   65.5350 O.2   243  CYS243     -0.2864
     93  CB         7.7080   17.9710   64.5530 C.3   243  CYS243      0.0983
     94  SG         8.7190   16.4670   64.4130 S.3   243  CYS243     -0.0798
     95  N          5.7180    9.1400   68.6810 N.3   391  ILE391     -0.1245
     96  CA         7.0950    9.5260   68.3140 C.3   391  ILE391      0.1561
     97  C          7.8410    8.4820   67.4860 C.2   391  ILE391      0.2260
     98  O          8.3570    8.7880   66.4220 O.2   391  ILE391     -0.2867
     99  CB         7.9800    9.8210   69.5570 C.3   391  ILE391      0.0252
    100  CG1        7.2900   10.7570   70.5590 C.3   391  ILE391      0.0019
    101  CG2        9.3190   10.4070   69.1340 C.3   391  ILE391      0.0019
    102  CD1        7.0040   12.1500   70.0450 C.3   391  ILE391      0.0001
    103  N          8.6760    8.0860   63.4530 N.3   394  ILE394     -0.1231
    104  CA         9.4890    8.9790   62.6230 C.3   394  ILE394      0.1692
    105  C         10.9890    8.6610   62.6900 C.2   394  ILE394      0.2592
    106  O         11.7880    9.3500   62.0700 O.2   394  ILE394     -0.2718
    107  CB         9.2420   10.4710   62.9490 C.3   394  ILE394      0.0266
    108  CG1        9.9100   10.8970   64.2640 C.3   394  ILE394      0.0019
    109  CG2        7.7500   10.7640   62.9910 C.3   394  ILE394      0.0020
    110  CD1        9.9000   12.3980   64.4650 C.3   394  ILE394      0.0001
    111  N         11.3620    7.6160   63.4250 N.am  395  THR395     -0.1953
    112  CA        12.7630    7.2390   63.5990 C.3   395  THR395      0.1897
    113  C         13.1450    5.9720   62.8070 C.2   395  THR395      0.2313
    114  O         14.3070    5.5750   62.7980 O.2   395  THR395     -0.2863
    115  CB        13.0850    7.0280   65.1010 C.3   395  THR395      0.1794
    116  OG1       12.4900    5.8190   65.5740 O.3   395  THR395     -0.2208
    117  CG2       12.5340    8.1640   65.9340 C.3   395  THR395      0.0378
    118  N          9.4280    9.8320   56.4230 N.3   401  PHE401     -0.1241
    119  CA         8.8610   10.8110   57.3220 C.3   401  PHE401      0.1605
    120  C          8.5570   12.1010   56.5690 C.2   401  PHE401      0.2264
    121  O          9.3870   12.5980   55.8210 O.2   401  PHE401     -0.2867
    122  CB         9.8040   11.0810   58.4880 C.3   401  PHE401      0.0534
    123  CG         9.4760   12.3360   59.2250 C.ar  401  PHE401     -0.0203
    124  CD1        8.4070   12.3800   60.0980 C.ar  401  PHE401     -0.0042
    125  CD2       10.2000   13.4870   59.0000 C.ar  401  PHE401     -0.0042
    126  CE1        8.0850   13.5450   60.7670 C.ar  401  PHE401     -0.0003
    127  CE2        9.8790   14.6560   59.6530 C.ar  401  PHE401     -0.0003
    128  CZ         8.8240   14.6870   60.5470 C.ar  401  PHE401     -0.0000
    129  N         11.5230   12.5250   53.7750 N.3   412  TYR412     -0.1227
    130  CA        12.9120   12.0710   53.8000 C.3   412  TYR412      0.1736
    131  C         13.1190   11.0170   54.8860 C.2   412  TYR412      0.2595
    132  O         12.1410   10.4840   55.4150 O.2   412  TYR412     -0.2718
    133  CB        13.8750   13.2660   53.9260 C.3   412  TYR412      0.0548
    134  CG        13.9370   13.9520   55.2760 C.ar  412  TYR412     -0.0200
    135  CD1       12.8410   14.6340   55.7900 C.ar  412  TYR412     -0.0009
    136  CD2       15.1190   13.9760   56.0080 C.ar  412  TYR412     -0.0009
    137  CE1       12.9090   15.2860   57.0120 C.ar  412  TYR412      0.0417
    138  CE2       15.1940   14.6190   57.2340 C.ar  412  TYR412      0.0417
    139  CZ        14.0890   15.2750   57.7290 C.ar  412  TYR412      0.1957
    140  OH        14.1690   15.9200   58.9410 O.3   412  TYR412     -0.2866
    141  N         14.3850   10.7230   55.1890 N.am  413  HIS413     -0.1975
    142  CA        14.8070    9.6190   56.0630 C.3   413  HIS413      0.1656
    143  C         15.0380    8.3650   55.2510 C.2   413  HIS413      0.2291
    144  O         14.1890    7.9700   54.4570 O.2   413  HIS413     -0.2864
    145  CB        13.8230    9.3250   57.2020 C.3   413  HIS413      0.0771
    146  CG        13.9020   10.3030   58.3250 C.ar  413  HIS413      0.0820
    147  ND1       13.2320   10.1220   59.5140 N.ar  413  HIS413     -0.2267
    148  CD2       14.6040   11.4510   58.4580 C.ar  413  HIS413      0.1154
    149  CE1       13.5000   11.1300   60.3220 C.ar  413  HIS413      0.1986
    150  NE2       14.3290   11.9510   59.7050 N.ar  413  HIS413     -0.2212
@<TRIPOS>BOND
     1   129   130    1
     2   130   133    1
     3   130   131    1
     4   133   134    1
     5   144   143    2
     6   131   141   am
     7   131   132    2
     8   141   142    1
     9   143   142    1
    10   134   135   ar
    11   134   136   ar
    12   135   137   ar
    13   121   120    2
    14   136   138   ar
    15   142   145    1
    16    65    66    1
    17   118   119    1
    18   120   119    1
    19   137   139   ar
    20   145   146    1
    21   138   139   ar
    22    66    69    1
    23    66    67    1
    24   119   122    1
    25   139   140    1
    26    58    59    1
    27    69    70    1
    28    67    68    2
    29   146   148   ar
    30   146   147   ar
    31   148   150   ar
    32   122   123    1
    33    59    60    1
    34    59    62    1
    35   125   123   ar
    36   125   127   ar
    37    63    62    1
    38    70    71    1
    39   123   124   ar
    40   147   149   ar
    41   127   128   ar
    42   150   149   ar
    43    60    61    2
    44    62    64    1
    45   124   126   ar
    46    53    52    2
    47    71    72   ar
    48    71    73   ar
    49   128   126   ar
    50    52    51    1
    51    45    44    2
    52   106   105    2
    53    51    54    1
    54    51    50    1
    55    57    55    1
    56   104   105    1
    57   104   107    1
    58   104   103    1
    59    54    55    1
    60   105   111   am
    61    13    12    2
    62   114   113    2
    63   113   112    1
    64    44    50   am
    65    44    43    1
    66   107   109    1
    67   107   108    1
    68    49    47   am
    69    55    56    1
    70   111   112    1
    71   112   115    1
    72    12    11    1
    73    47    48    2
    74    47    46    1
    75    43    46    1
    76    43    42    1
    77   108   110    1
    78    94    93    1
    79    93    90    1
    80    11    14    1
    81    11    10    1
    82   115   116    1
    83   115   117    1
    84    14    15    1
    85    92    91    2
    86    33    32    2
    87    90    91    1
    88    90    89    1
    89    15    16   ar
    90    15    17   ar
    91    16    18   ar
    92    28    27    2
    93    98    97    2
    94    32    31    1
    95    89    84   am
    96    34    31    1
    97    34    35    1
    98    17    19   ar
    99    18    20   ar
   100    27    29   am
   101    27    26    1
   102    97    96    1
   103    31    30    1
   104    30    24   am
   105    22    23    1
   106    84    85    2
   107    84    83    1
   108    35    36   ar
   109    35    37   ar
   110    96    95    1
   111    96    99    1
   112    19    20   ar
   113    20    21    1
   114    36    38   ar
   115    26    23    1
   116    23    24    1
   117    24    25    2
   118    88    86    1
   119   101    99    1
   120    37    39   ar
   121    83    86    1
   122    83    82    1
   123    38    40   ar
   124    99   100    1
   125    86    87    1
   126     4     3    2
   127   102   100    1
   128    39    40   ar
   129    40    41    1
   130     3     2    1
   131     2     1    1
   132     2     5    1
   133    80    81    1
   134    80    79    1
   135     5     6    1
   136    79    78    1
   137     6     7    1
   138     8     7   ar
   139     7     9   ar
   140    77    76    2
   141    78    75    1
   142    76    75    1
   143    75    74    1
