@<TRIPOS>MOLECULE
tmp/4l1tB00.pdb
 86 78 0 0 0
SMALL
GASTEIGER

@<TRIPOS>ATOM
      1  N         -2.1570  -11.3250  -32.3500 N.3     4  MET4       -0.1245
      2  CA        -0.9440  -10.5070  -32.4970 C.3     4  MET4        0.1570
      3  C         -0.4500  -10.1650  -31.1020 C.2     4  MET4        0.2261
      4  O         -1.2380  -10.0560  -30.1580 O.2     4  MET4       -0.2867
      5  CB        -1.2460   -9.1980  -33.2440 C.3     4  MET4        0.0387
      6  CG         0.0330   -8.3950  -33.6950 C.3     4  MET4        0.0595
      7  SD         0.7050   -7.1610  -32.5480 S.3     4  MET4       -0.1393
      8  CE        -0.0730   -5.6460  -33.0650 C.3     4  MET4        0.0692
      9  N          2.1760   -7.4240  -29.0450 N.3     6  LYS6       -0.1245
     10  CA         2.9120   -6.1670  -29.0920 C.3     6  LYS6        0.1561
     11  C          3.6100   -5.9700  -27.7580 C.2     6  LYS6        0.2260
     12  O          2.9480   -6.0510  -26.7170 O.2     6  LYS6       -0.2867
     13  CB         1.9320   -5.0230  -29.3500 C.3     6  LYS6        0.0271
     14  CG         2.5890   -3.6190  -29.2550 C.3     6  LYS6        0.0035
     15  CD         3.2910   -3.2060  -30.5010 C.3     6  LYS6        0.0206
     16  CE         3.7460   -1.7220  -30.4910 C.3     6  LYS6        0.1093
     17  NZ         4.3030   -1.4050  -31.7890 N.3     6  LYS6       -0.1314
     18  N          6.3120   -3.4390  -25.4900 N.3     8  LEU8       -0.1245
     19  CA         6.9420   -2.1300  -25.3160 C.3     8  LEU8        0.1561
     20  C          7.8290   -2.1220  -24.0940 C.2     8  LEU8        0.2260
     21  O          7.6070   -2.8580  -23.1310 O.2     8  LEU8       -0.2867
     22  CB         5.8470   -1.0620  -25.1720 C.3     8  LEU8        0.0270
     23  CG         4.9670   -0.8090  -26.3850 C.3     8  LEU8        0.0019
     24  CD1        3.9140    0.2070  -26.0130 C.3     8  LEU8        0.0001
     25  CD2        5.7660   -0.3380  -27.5960 C.3     8  LEU8        0.0001
     26  N          6.4970   -6.1060  -32.4940 N.3    45  GLU45      -0.1245
     27  CA         5.3000   -6.8690  -32.8420 C.3    45  GLU45       0.1567
     28  C          5.6510   -8.2450  -33.3060 C.2    45  GLU45       0.2260
     29  O          6.7030   -8.4980  -33.8650 O.2    45  GLU45      -0.2867
     30  CB         4.5090   -6.1460  -33.9330 C.3    45  GLU45       0.0388
     31  CG         3.9780   -4.8010  -33.4410 C.3    45  GLU45       0.1160
     32  CD         3.2640   -3.9250  -34.4750 C.2    45  GLU45       0.3649
     33  OE1        2.7610   -4.4320  -35.4880 O.co2  45  GLU45      -0.2457
     34  OE2        3.1750   -2.6850  -34.2460 O.co2  45  GLU45      -0.2457
     35  N         -5.2830   -8.7130  -29.9370 N.3    97  THR97      -0.1218
     36  CA        -3.9470   -8.1970  -29.7270 C.3    97  THR97       0.1862
     37  C         -3.6510   -8.2360  -28.2390 C.2    97  THR97       0.2287
     38  O         -4.4090   -7.6780  -27.4380 O.2    97  THR97      -0.2866
     39  CB        -3.7630   -6.7770  -30.2550 C.3    97  THR97       0.1770
     40  OG1       -3.9230   -6.7880  -31.6670 O.3    97  THR97      -0.2211
     41  CG2       -2.3820   -6.2540  -29.9350 C.3    97  THR97       0.0375
     42  N         -1.0560   -6.9130  -25.6770 N.3    99  ALA99      -0.1231
     43  CA        -0.0330   -5.8900  -25.5460 C.3    99  ALA99       0.1694
     44  C          0.5490   -5.9510  -24.1440 C.2    99  ALA99       0.2592
     45  O         -0.1600   -6.1520  -23.1600 O.2    99  ALA99      -0.2718
     46  CB        -0.5910   -4.5350  -25.8540 C.3    99  ALA99       0.0304
     47  N          1.8680   -5.7800  -24.0390 N.am  100  ALA100     -0.1966
     48  CA         2.5570   -5.7670  -22.7740 C.3   100  ALA100      0.1728
     49  C          3.5450   -4.6100  -22.7360 C.2   100  ALA100      0.2616
     50  O          4.2280   -4.3370  -23.7220 O.2   100  ALA100     -0.2715
     51  CB         3.3060   -7.0660  -22.5060 C.3   100  ALA100      0.0334
     52  N          3.6300   -3.9450  -21.5910 N.am  101  LEU101     -0.1977
     53  CA         4.5180   -2.8210  -21.3400 C.3   101  LEU101      0.1596
     54  C          5.4380   -3.2220  -20.1790 C.2   101  LEU101      0.2287
     55  O          4.9490   -3.4850  -19.0590 O.2   101  LEU101     -0.2864
     56  CB         3.7020   -1.5890  -21.0010 C.3   101  LEU101      0.0297
     57  CG         4.5090   -0.3530  -20.5840 C.3   101  LEU101      0.0022
     58  CD1        5.4360    0.1240  -21.7140 C.3   101  LEU101      0.0001
     59  CD2        3.5310    0.7650  -20.1530 C.3   101  LEU101      0.0001
     60  N          2.6520   -4.2650  -17.2830 N.3   108  SER108     -0.1202
     61  CA         1.2320   -4.1620  -17.4930 C.3   108  SER108      0.2020
     62  C          0.8810   -4.8360  -18.8040 C.2   108  SER108      0.2619
     63  O          1.6900   -4.9440  -19.7290 O.2   108  SER108     -0.2717
     64  CB         0.7700   -2.7050  -17.4460 C.3   108  SER108      0.2103
     65  OG         1.4010   -1.9320  -18.4510 O.3   108  SER108     -0.2182
     66  N         -0.3430   -5.3310  -18.8740 N.am  109  THR109     -0.1938
     67  CA        -0.7920   -5.9920  -20.0740 C.3   109  THR109      0.2028
     68  C         -2.2680   -5.6850  -20.3240 C.2   109  THR109      0.2642
     69  O         -3.0240   -5.4980  -19.3850 O.2   109  THR109     -0.2714
     70  CB        -0.5370   -7.5240  -19.9960 C.3   109  THR109      0.1808
     71  OG1       -0.8120   -8.1240  -21.2540 O.3   109  THR109     -0.2208
     72  CG2       -1.3790   -8.1970  -18.9200 C.3   109  THR109      0.0379
     73  N         -2.6480   -5.6030  -21.5790 N.am  110  THR110     -0.1950
     74  CA        -4.0240   -5.3930  -21.9560 C.3   110  THR110      0.1897
     75  C         -4.3330   -6.2320  -23.1900 C.2   110  THR110      0.2313
     76  O         -3.4410   -6.6850  -23.8990 O.2   110  THR110     -0.2863
     77  CB        -4.3350   -3.8950  -22.1830 C.3   110  THR110      0.1794
     78  OG1       -5.7500   -3.7130  -22.1360 O.3   110  THR110     -0.2208
     79  CG2       -3.7310   -3.3410  -23.4670 C.3   110  THR110      0.0378
     80  N         -6.6770   -6.0600  -26.6930 N.3   112  VAL112     -0.1245
     81  CA        -7.4180   -5.2450  -27.6450 C.3   112  VAL112      0.1561
     82  C         -8.1000   -6.2340  -28.5680 C.2   112  VAL112      0.2260
     83  O         -7.4370   -6.9300  -29.3350 O.2   112  VAL112     -0.2867
     84  CB        -6.5170   -4.2230  -28.3930 C.3   112  VAL112      0.0252
     85  CG1       -7.3410   -3.2300  -29.1470 C.3   112  VAL112      0.0019
     86  CG2       -5.5730   -3.4940  -27.3890 C.3   112  VAL112      0.0019
@<TRIPOS>BOND
     1    33    32   ar
     2    32    34   ar
     3    32    31    1
     4    30    31    1
     5    30    27    1
     6    29    28    2
     7     6     5    1
     8     6     7    1
     9    28    27    1
    10     5     2    1
    11     8     7    1
    12    27    26    1
    13     2     1    1
    14     2     3    1
    15    17    16    1
    16    40    39    1
    17     3     4    2
    18    15    16    1
    19    15    14    1
    20    39    41    1
    21    39    36    1
    22    35    36    1
    23    36    37    1
    24    13    14    1
    25    13    10    1
    26    83    82    2
    27    85    84    1
    28    10     9    1
    29    10    11    1
    30    82    81    1
    31    84    81    1
    32    84    86    1
    33    37    38    2
    34    11    12    2
    35    81    80    1
    36    25    23    1
    37    23    24    1
    38    23    22    1
    39    46    43    1
    40    42    43    1
    41    43    44    1
    42    18    19    1
    43    19    22    1
    44    19    20    1
    45    44    47   am
    46    44    45    2
    47    20    21    2
    48    47    48    1
    49    76    75    2
    50    50    49    2
    51    79    77    1
    52    75    74    1
    53    48    49    1
    54    48    51    1
    55    49    52   am
    56    77    78    1
    57    77    74    1
    58    74    73    1
    59    58    57    1
    60    52    53    1
    61    73    68   am
    62    53    56    1
    63    53    54    1
    64    71    70    1
    65    56    57    1
    66    57    59    1
    67    68    67    1
    68    68    69    2
    69    54    55    2
    70    67    70    1
    71    67    66    1
    72    70    72    1
    73    63    62    2
    74    66    62   am
    75    62    61    1
    76    65    64    1
    77    61    64    1
    78    61    60    1
