@<TRIPOS>MOLECULE
tmp/4l1uE00.pdb
 150 150 0 0 0
SMALL
GASTEIGER

@<TRIPOS>ATOM
      1  N        227.4490   13.6510   42.1350 N.3    18  ARG18      -0.1231
      2  CA       227.1840   14.6910   41.1740 C.3    18  ARG18       0.1694
      3  C        226.6650   15.9470   41.8860 C.2    18  ARG18       0.2592
      4  O        226.9780   17.0580   41.4580 O.2    18  ARG18      -0.2718
      5  CB       226.1720   14.2160   40.1320 C.3    18  ARG18       0.0321
      6  CG       225.9750   15.2120   39.0020 C.3    18  ARG18       0.0489
      7  CD       225.1510   14.6380   37.8840 C.3    18  ARG18       0.2205
      8  NE       223.7470   14.4310   38.2510 N.pl3  18  ARG18      -0.0865
      9  CZ       223.1850   13.2500   38.5080 C.cat  18  ARG18       0.5346
     10  NH1      223.8920   12.1300   38.4620 N.pl3  18  ARG18       0.1354
     11  NH2      221.8950   13.1820   38.8220 N.pl3  18  ARG18       0.1354
     12  N        225.8930   15.7460   42.9680 N.am   19  HIS19      -0.1976
     13  CA       225.3750   16.8350   43.8200 C.3    19  HIS19       0.1656
     14  C        226.4910   17.7320   44.3380 C.2    19  HIS19       0.2291
     15  O        226.4450   18.9590   44.2000 O.2    19  HIS19      -0.2864
     16  CB       224.6530   16.2820   45.0560 C.3    19  HIS19       0.0771
     17  CG       223.3500   15.6010   44.7720 C.ar   19  HIS19       0.0820
     18  ND1      222.3200   16.2030   44.0810 N.ar   19  HIS19      -0.2267
     19  CD2      222.8900   14.3800   45.1430 C.ar   19  HIS19       0.1154
     20  CE1      221.2900   15.3750   44.0160 C.ar   19  HIS19       0.1986
     21  NE2      221.6130   14.2590   44.6460 N.ar   19  HIS19      -0.2212
     22  N        229.1890    6.9990   34.8220 N.3    42  GLY42      -0.1210
     23  CA       228.4250    6.2360   33.8410 C.3    42  GLY42       0.1956
     24  C        229.0540    6.2950   32.4590 C.2    42  GLY42       0.2612
     25  O        229.0620    7.3480   31.8280 O.2    42  GLY42      -0.2717
     26  N        229.5630    5.1690   31.9710 N.am   43  ILE43      -0.1965
     27  CA       230.3570    5.1700   30.7450 C.3    43  ILE43       0.1727
     28  C        229.5910    4.6760   29.5230 C.2    43  ILE43       0.2617
     29  O        230.1390    4.6330   28.4170 O.2    43  ILE43      -0.2715
     30  CB       231.6390    4.3210   30.9090 C.3    43  ILE43       0.0290
     31  CG1      231.2940    2.8560   31.1730 C.3    43  ILE43       0.0022
     32  CG2      232.4830    4.8550   32.0510 C.3    43  ILE43       0.0023
     33  CD1      232.3510    1.8980   30.6580 C.3    43  ILE43       0.0001
     34  N        228.3330    4.2960   29.7150 N.am   44  GLY44      -0.1940
     35  CA       227.5260    3.8120   28.6120 C.3    44  GLY44       0.2014
     36  C        226.5350    2.7560   29.0490 C.2    44  GLY44       0.2638
     37  O        226.3460    2.5200   30.2380 O.2    44  GLY44      -0.2714
     38  N        225.9140    2.1150   28.0690 N.am   45  ASN45      -0.1972
     39  CA       224.9210    1.0840   28.3080 C.3    45  ASN45       0.1688
     40  C        225.4310   -0.2130   27.7700 C.2    45  ASN45       0.2292
     41  O        226.1920   -0.2320   26.8120 O.2    45  ASN45      -0.2864
     42  CB       223.6190    1.4270   27.5890 C.3    45  ASN45       0.1181
     43  CG       222.8940    2.5700   28.2320 C.2    45  ASN45       0.2629
     44  OD1      222.6590    2.5620   29.4390 O.2    45  ASN45      -0.2716
     45  ND2      222.5430    3.5730   27.4390 N.am   45  ASN45      -0.0877
     46  N        222.6350    0.6130   32.2220 N.3    50  PRO50      -0.2102
     47  CA       223.7700    1.4720   32.5720 C.3    50  PRO50       0.1504
     48  C        224.9930    0.7190   33.1200 C.2    50  PRO50       0.2576
     49  O        224.8720   -0.1880   33.9460 O.2    50  PRO50      -0.2718
     50  CB       223.1800    2.3790   33.6530 C.3    50  PRO50       0.0282
     51  CG       221.7510    2.4720   33.2970 C.3    50  PRO50       0.0208
     52  CD       221.3840    1.1120   32.8280 C.3    50  PRO50       0.0893
     53  N        226.1640    1.1200   32.6390 N.am   51  VAL51      -0.1966
     54  CA       227.4290    0.6220   33.1320 C.3    51  VAL51       0.1727
     55  C        228.1600    1.7520   33.8190 C.2    51  VAL51       0.2616
     56  O        228.3430    2.8350   33.2530 O.2    51  VAL51      -0.2715
     57  CB       228.3130    0.0960   31.9970 C.3    51  VAL51       0.0290
     58  CG1      229.6770   -0.3470   32.5540 C.3    51  VAL51       0.0023
     59  CG2      227.6070   -1.0400   31.2720 C.3    51  VAL51       0.0023
     60  N        228.5700    1.4860   35.0500 N.am   52  TYR52      -0.1974
     61  CA       229.2870    2.4530   35.8510 C.3    52  TYR52       0.1639
     62  C        230.6830    1.9070   36.1220 C.2    52  TYR52       0.2290
     63  O        230.8800    0.7030   36.2100 O.2    52  TYR52      -0.2864
     64  CB       228.5570    2.6950   37.1680 C.3    52  TYR52       0.0560
     65  CG       227.2060    3.3620   37.0350 C.ar   52  TYR52      -0.0198
     66  CD1      227.1050    4.7490   36.8960 C.ar   52  TYR52      -0.0009
     67  CD2      226.0290    2.6220   37.0790 C.ar   52  TYR52      -0.0009
     68  CE1      225.8750    5.3760   36.7970 C.ar   52  TYR52       0.0417
     69  CE2      224.7910    3.2430   36.9740 C.ar   52  TYR52       0.0417
     70  CZ       224.7150    4.6240   36.8330 C.ar   52  TYR52       0.1957
     71  OH       223.4750    5.2580   36.7300 O.3    52  TYR52      -0.2866
     72  N        240.2490    9.1550   30.4950 N.3    87  ARG87      -0.1231
     73  CA       239.3400    9.9250   29.6520 C.3    87  ARG87       0.1694
     74  C        238.7330   11.1070   30.3600 C.2    87  ARG87       0.2592
     75  O        238.5690   11.0940   31.5800 O.2    87  ARG87      -0.2718
     76  CB       238.1960    9.0670   29.1600 C.3    87  ARG87       0.0321
     77  CG       238.5860    8.1310   28.0750 C.3    87  ARG87       0.0489
     78  CD       237.3520    7.6520   27.3520 C.3    87  ARG87       0.2205
     79  NE       236.6570    6.6120   28.1040 N.pl3  87  ARG87      -0.0865
     80  CZ       235.4290    6.1950   27.8250 C.cat  87  ARG87       0.5346
     81  NH1      234.7570    6.7380   26.8130 N.pl3  87  ARG87       0.1354
     82  NH2      234.8730    5.2420   28.5590 N.pl3  87  ARG87       0.1354
     83  N        238.3560   12.1060   29.5750 N.am   88  VAL88      -0.1966
     84  CA       237.6760   13.2770   30.0940 C.3    88  VAL88       0.1727
     85  C        236.1620   13.0980   30.0150 C.2    88  VAL88       0.2616
     86  O        235.6350   12.6810   28.9960 O.2    88  VAL88      -0.2715
     87  CB       238.0620   14.5320   29.2980 C.3    88  VAL88       0.0290
     88  CG1      237.3400   15.7590   29.8550 C.3    88  VAL88       0.0023
     89  CG2      239.5710   14.7320   29.3290 C.3    88  VAL88       0.0023
     90  N        235.4660   13.4200   31.0980 N.am   89  PHE89      -0.1974
     91  CA       234.0120   13.3010   31.1360 C.3    89  PHE89       0.1639
     92  C        233.3740   14.5780   31.6360 C.2    89  PHE89       0.2290
     93  O        233.8950   15.2300   32.5410 O.2    89  PHE89      -0.2864
     94  CB       233.5830   12.1750   32.0890 C.3    89  PHE89       0.0560
     95  CG       233.7210   10.7990   31.5170 C.ar   89  PHE89      -0.0200
     96  CD1      232.6830   10.2180   30.8140 C.ar   89  PHE89      -0.0042
     97  CD2      234.9000   10.0870   31.6790 C.ar   89  PHE89      -0.0042
     98  CE1      232.8160    8.9480   30.2940 C.ar   89  PHE89      -0.0003
     99  CE2      235.0290    8.8320   31.1710 C.ar   89  PHE89      -0.0003
    100  CZ       233.9840    8.2570   30.4760 C.ar   89  PHE89      -0.0000
    101  N        227.8810   15.6280   34.2040 N.3    92  GLU92      -0.1231
    102  CA       226.5180   15.0940   34.1390 C.3    92  GLU92       0.1699
    103  C        226.4680   13.5640   34.1270 C.2    92  GLU92       0.2592
    104  O        225.4100   12.9800   34.3340 O.2    92  GLU92      -0.2718
    105  CB       225.7790   15.6330   32.9110 C.3    92  GLU92       0.0402
    106  CG       226.4200   15.2710   31.5840 C.3    92  GLU92       0.1161
    107  CD       225.6810   15.8650   30.3910 C.2    92  GLU92       0.3649
    108  OE1      224.5480   16.3550   30.5710 O.co2  92  GLU92      -0.2457
    109  OE2      226.2370   15.8490   29.2700 O.co2  92  GLU92      -0.2457
    110  N        227.5950   12.9170   33.8630 N.am   93  PHE93      -0.1962
    111  CA       227.6480   11.4530   33.8400 C.3    93  PHE93       0.1771
    112  C        228.0860   10.8730   35.1840 C.2    93  PHE93       0.2619
    113  O        228.1860    9.6570   35.3360 O.2    93  PHE93      -0.2715
    114  CB       228.5670   10.9650   32.6980 C.3    93  PHE93       0.0574
    115  CG       228.1570   11.4850   31.3510 C.ar   93  PHE93      -0.0200
    116  CD1      226.9290   11.1390   30.8030 C.ar   93  PHE93      -0.0042
    117  CD2      228.9700   12.3590   30.6540 C.ar   93  PHE93      -0.0042
    118  CE1      226.5300   11.6560   29.5760 C.ar   93  PHE93      -0.0003
    119  CE2      228.5750   12.8690   29.4240 C.ar   93  PHE93      -0.0003
    120  CZ       227.3570   12.5180   28.8910 C.ar   93  PHE93      -0.0000
    121  N        228.3530   11.7400   36.1560 N.am   94  VAL94      -0.1963
    122  CA       228.7560   11.2730   37.4750 C.3    94  VAL94       0.1727
    123  C        227.4950   10.8480   38.2230 C.2    94  VAL94       0.2617
    124  O        226.4990   11.5680   38.2120 O.2    94  VAL94      -0.2715
    125  CB       229.5300   12.3540   38.2330 C.3    94  VAL94       0.0290
    126  CG1      229.7560   11.9530   39.6730 C.3    94  VAL94       0.0023
    127  CG2      230.8460   12.6500   37.5260 C.3    94  VAL94       0.0023
    128  N        227.5290    9.6590   38.8240 N.am   95  SER95      -0.1936
    129  CA       226.3740    9.0830   39.4930 C.3    95  SER95       0.2055
    130  C        226.2640    9.6770   40.8870 C.2    95  SER95       0.2643
    131  O        227.2660   10.0820   41.4700 O.2    95  SER95      -0.2714
    132  CB       226.5440    7.5490   39.5750 C.3    95  SER95       0.2130
    133  OG       225.4800    6.9170   40.2710 O.3    95  SER95      -0.2179
    134  N        225.0490    9.7300   41.4160 N.am   96  ASN96      -0.1957
    135  CA       224.8200   10.0770   42.8220 C.3    96  ASN96       0.1819
    136  C        224.7660    8.8490   43.7360 C.2    96  ASN96       0.2621
    137  O        224.5680    8.9870   44.9370 O.2    96  ASN96      -0.2715
    138  CB       223.5130   10.8540   42.9700 C.3    96  ASN96       0.1195
    139  CG       223.6780   12.3250   42.6830 C.2    96  ASN96       0.2630
    140  OD1      224.6240   12.9590   43.1480 O.2    96  ASN96      -0.2716
    141  ND2      222.7570   12.8800   41.9110 N.am   96  ASN96      -0.0877
    142  N        224.9390    7.6560   43.1700 N.am   97  GLN97      -0.1977
    143  CA       224.8860    6.4210   43.9570 C.3    97  GLN97       0.1601
    144  C        226.3020    5.9310   44.3120 C.2    97  GLN97       0.2287
    145  O        227.2950    6.3900   43.7440 O.2    97  GLN97      -0.2864
    146  CB       224.1140    5.3280   43.2030 C.3    97  GLN97       0.0394
    147  CG       222.9410    5.8360   42.3560 C.3    97  GLN97       0.0908
    148  CD       221.8720    6.5730   43.1600 C.2    97  GLN97       0.2608
    149  OE1      221.5590    6.2040   44.2880 O.2    97  GLN97      -0.2717
    150  NE2      221.3010    7.6170   42.5700 N.am   97  GLN97      -0.0878
@<TRIPOS>BOND
     1    41    40    2
     2    81    80    1
     3    78    77    1
     4    78    79    1
     5    45    43   am
     6    42    43    1
     7    42    39    1
     8    40    39    1
     9    80    79    2
    10    80    82    1
    11    38    39    1
    12    38    36   am
    13    77    76    1
    14    43    44    2
    15    29    28    2
    16    35    36    1
    17    35    34    1
    18   120   119   ar
    19   120   118   ar
    20    86    85    2
    21    36    37    2
    22    76    73    1
    23   109   107   ar
    24    87    89    1
    25    87    88    1
    26    87    84    1
    27   119   117   ar
    28    28    34   am
    29    28    27    1
    30    83    84    1
    31    83    74   am
    32   118   116   ar
    33    73    74    1
    34    73    72    1
    35    85    84    1
    36    85    90   am
    37    98   100   ar
    38    98    96   ar
    39    74    75    2
    40   107   108   ar
    41   107   106    1
    42   100    99   ar
    43   117   115   ar
    44    33    31    1
    45    27    30    1
    46    27    26    1
    47   116   115   ar
    48    96    95   ar
    49    30    31    1
    50    30    32    1
    51    90    91    1
    52    91    92    1
    53    91    94    1
    54    99    97   ar
    55    59    57    1
    56   115   114    1
    57    95    97   ar
    58    95    94    1
    59   106   105    1
    60    92    93    2
    61    25    24    2
    62    26    24   am
    63    57    58    1
    64    57    54    1
    65    46    47    1
    66    46    52    1
    67    24    23    1
    68    47    48    1
    69    47    50    1
    70    53    48   am
    71    53    54    1
    72   114   111    1
    73    52    51    1
    74   105   102    1
    75    48    49    2
    76    54    55    1
    77    56    55    2
    78    51    50    1
    79    55    60   am
    80   111   110    1
    81   111   112    1
    82    23    22    1
    83   110   103   am
    84   103   102    1
    85   103   104    2
    86   102   101    1
    87    60    61    1
    88   112   113    2
    89   112   121   am
    90    61    62    1
    91    61    64    1
    92    62    63    2
    93   121   122    1
    94    71    70    1
    95    68    70   ar
    96    68    66   ar
    97    70    69   ar
    98    66    65   ar
    99    69    67   ar
   100    65    67   ar
   101    65    64    1
   102   122   123    1
   103   122   125    1
   104   127   125    1
   105     7     8    1
   106     7     6    1
   107   124   123    2
   108   123   128   am
   109   125   126    1
   110     8     9    2
   111    10     9    1
   112     9    11    1
   113   128   129    1
   114     6     5    1
   115   129   132    1
   116   129   130    1
   117   132   133    1
   118     5     2    1
   119   130   134   am
   120   130   131    2
   121     2     3    1
   122     2     1    1
   123   134   135    1
   124     4     3    2
   125     3    12   am
   126   141   139   am
   127   147   148    1
   128   147   146    1
   129   150   148   am
   130   139   138    1
   131   139   140    2
   132   135   138    1
   133   135   136    1
   134    12    13    1
   135   148   149    2
   136   142   136   am
   137   142   143    1
   138   146   143    1
   139   136   137    2
   140   145   144    2
   141    13    14    1
   142    13    16    1
   143   143   144    1
   144    20    18   ar
   145    20    21   ar
   146    18    17   ar
   147    15    14    2
   148    21    19   ar
   149    17    16    1
   150    17    19   ar
