@<TRIPOS>MOLECULE
tmp/4l1uC00.pdb
 162 162 0 0 0
SMALL
GASTEIGER

@<TRIPOS>ATOM
      1  N        247.8310  -29.8690   68.3100 N.3    17  ARG17      -0.1231
      2  CA       247.7950  -28.9460   69.4460 C.3    17  ARG17       0.1694
      3  C        246.9720  -27.7100   69.1050 C.2    17  ARG17       0.2592
      4  O        246.1940  -27.2070   69.9400 O.2    17  ARG17      -0.2718
      5  CB       249.2010  -28.5230   69.8600 C.3    17  ARG17       0.0321
      6  CG       249.2240  -27.5900   71.0520 C.3    17  ARG17       0.0489
      7  CD       250.6120  -27.5350   71.6920 C.3    17  ARG17       0.2205
      8  NE       251.5190  -26.6630   70.9580 N.pl3  17  ARG17      -0.0865
      9  CZ       252.4670  -27.0680   70.1200 C.cat  17  ARG17       0.5346
     10  NH1      252.6590  -28.3600   69.8770 N.pl3  17  ARG17       0.1354
     11  NH2      253.2330  -26.1670   69.5110 N.pl3  17  ARG17       0.1354
     12  N        247.1060  -27.2500   67.8710 N.am   18  HIS18      -0.1976
     13  CA       246.2970  -26.1270   67.3860 C.3    18  HIS18       0.1656
     14  C        244.8000  -26.3010   67.6340 C.2    18  HIS18       0.2291
     15  O        244.1430  -25.3720   68.1040 O.2    18  HIS18      -0.2864
     16  CB       246.4840  -25.9350   65.8760 C.3    18  HIS18       0.0771
     17  CG       247.8320  -25.4340   65.4830 C.ar   18  HIS18       0.0820
     18  ND1      248.3850  -24.2860   66.0090 N.ar   18  HIS18      -0.2267
     19  CD2      248.7280  -25.9110   64.5840 C.ar   18  HIS18       0.1154
     20  CE1      249.5750  -24.0870   65.4590 C.ar   18  HIS18       0.1986
     21  NE2      249.8070  -25.0610   64.5970 N.ar   18  HIS18      -0.2212
     22  N        254.4590  -35.6060   73.0760 N.3    41  GLY41      -0.1210
     23  CA       255.8960  -35.4920   73.2530 C.3    41  GLY41       0.1956
     24  C        256.2770  -35.8530   74.6760 C.2    41  GLY41       0.2612
     25  O        255.9280  -35.1410   75.6140 O.2    41  GLY41      -0.2717
     26  N        256.9970  -36.9540   74.8370 N.am   42  ILE42      -0.1965
     27  CA       257.2740  -37.4880   76.1660 C.3    42  ILE42       0.1727
     28  C        258.7330  -37.3380   76.5870 C.2    42  ILE42       0.2616
     29  O        259.0520  -37.4860   77.7630 O.2    42  ILE42      -0.2715
     30  CB       256.8950  -38.9780   76.2750 C.3    42  ILE42       0.0290
     31  CG1      257.5520  -39.7760   75.1520 C.3    42  ILE42       0.0022
     32  CG2      255.3810  -39.1450   76.2170 C.3    42  ILE42       0.0023
     33  CD1      258.4620  -40.8680   75.6310 C.3    42  ILE42       0.0001
     34  N        259.6220  -37.0470   75.6440 N.am   43  GLY43      -0.1955
     35  CA       261.0270  -36.9370   75.9800 C.3    43  GLY43       0.1869
     36  C        261.9140  -36.6350   74.8000 C.2    43  GLY43       0.2309
     37  O        263.1290  -36.5590   74.9710 O.2    43  GLY43      -0.2863
     38  N        266.3770  -35.2020   70.5720 N.3    44  LYS44      -0.1231
     39  CA       265.7380  -35.5100   71.8390 C.3    44  LYS44       0.1678
     40  C        264.3220  -35.8720   71.6300 C.2    44  LYS44       0.2434
     41  O        263.7670  -36.5770   72.4400 O.2    44  LYS44      -0.2733
     42  CB       265.7300  -34.2930   72.7600 C.3    44  LYS44       0.0284
     43  CG       264.9490  -34.4890   74.0460 C.3    44  LYS44       0.0035
     44  CD       264.8580  -33.2030   74.8360 C.3    44  LYS44       0.0206
     45  CE       264.3490  -32.0820   73.9660 C.3    44  LYS44       0.1093
     46  NZ       263.8630  -30.9350   74.7650 N.3    44  LYS44      -0.1314
     47  N        263.6920  -35.3380   70.6010 N.am   45  PRO45      -0.2718
     48  CA       262.2440  -35.4370   70.4750 C.3    45  PRO45       0.1535
     49  C        261.7340  -36.8280   70.2400 C.2    45  PRO45       0.2598
     50  O        261.8820  -37.3730   69.1800 O.2    45  PRO45      -0.2715
     51  CB       261.9390  -34.5590   69.2730 C.3    45  PRO45       0.0310
     52  CG       263.0990  -33.6810   69.1420 C.3    45  PRO45       0.0237
     53  CD       264.2570  -34.5100   69.5470 C.3    45  PRO45       0.0939
     54  N        261.1130  -37.3870   71.2520 N.am   46  VAL46      -0.1964
     55  CA       260.4520  -38.6510   71.1300 C.3    46  VAL46       0.1727
     56  C        258.9660  -38.5700   71.3830 C.2    46  VAL46       0.2616
     57  O        258.5200  -37.9510   72.3000 O.2    46  VAL46      -0.2715
     58  CB       261.0600  -39.6380   72.0940 C.3    46  VAL46       0.0290
     59  CG1      260.4120  -40.9880   71.9560 C.3    46  VAL46       0.0023
     60  CG2      262.5240  -39.7200   71.8230 C.3    46  VAL46       0.0023
     61  N        258.2080  -39.2430   70.5510 N.am   47  TYR47      -0.1974
     62  CA       256.7860  -39.1070   70.5510 C.3    47  TYR47       0.1639
     63  C        256.0250  -40.4210   70.6570 C.2    47  TYR47       0.2290
     64  O        256.4480  -41.4260   70.1880 O.2    47  TYR47      -0.2864
     65  CB       256.3760  -38.4290   69.2580 C.3    47  TYR47       0.0560
     66  CG       256.8080  -37.0200   69.0760 C.ar   47  TYR47      -0.0198
     67  CD1      256.0200  -35.9920   69.4940 C.ar   47  TYR47      -0.0009
     68  CD2      257.9530  -36.7140   68.4270 C.ar   47  TYR47      -0.0009
     69  CE1      256.3820  -34.7020   69.3140 C.ar   47  TYR47       0.0417
     70  CE2      258.3210  -35.4220   68.2390 C.ar   47  TYR47       0.0417
     71  CZ       257.5170  -34.4210   68.6800 C.ar   47  TYR47       0.1957
     72  OH       257.8590  -33.1320   68.5030 O.3    47  TYR47      -0.2866
     73  N        248.0920  -41.8620   81.8630 N.3    82  ARG82      -0.1231
     74  CA       248.3660  -40.7230   82.7300 C.3    82  ARG82       0.1694
     75  C        247.9800  -39.3860   82.1200 C.2    82  ARG82       0.2592
     76  O        247.5980  -39.3030   80.9380 O.2    82  ARG82      -0.2718
     77  CB       249.8280  -40.6900   83.1970 C.3    82  ARG82       0.0321
     78  CG       250.8380  -40.3000   82.1470 C.3    82  ARG82       0.0489
     79  CD       252.2450  -40.3060   82.7410 C.3    82  ARG82       0.2205
     80  NE       253.2030  -40.9980   81.8780 N.pl3  82  ARG82      -0.0865
     81  CZ       254.2580  -41.6860   82.3120 C.cat  82  ARG82       0.5346
     82  NH1      254.5170  -41.7960   83.6110 N.pl3  82  ARG82       0.1354
     83  NH2      255.0580  -42.2790   81.4350 N.pl3  82  ARG82       0.1354
     84  N        248.0870  -38.3450   82.9470 N.am   83  VAL83      -0.1966
     85  CA       247.6050  -37.0160   82.5990 C.3    83  VAL83       0.1727
     86  C        248.6980  -36.1340   82.0150 C.2    83  VAL83       0.2616
     87  O        249.7930  -36.0440   82.5650 O.2    83  VAL83      -0.2715
     88  CB       246.9510  -36.3020   83.8160 C.3    83  VAL83       0.0290
     89  CG1      246.5380  -34.8820   83.4590 C.3    83  VAL83       0.0023
     90  CG2      245.7340  -37.0850   84.2980 C.3    83  VAL83       0.0023
     91  N        248.3780  -35.4860   80.8940 N.am   84  PHE84      -0.1960
     92  CA       249.3100  -34.5760   80.2250 C.3    84  PHE84       0.1771
     93  C        248.6780  -33.1990   79.9420 C.2    84  PHE84       0.2619
     94  O        247.5040  -33.1020   79.5580 O.2    84  PHE84      -0.2715
     95  CB       249.7630  -35.1610   78.8770 C.3    84  PHE84       0.0574
     96  CG       250.6570  -36.3730   78.9880 C.ar   84  PHE84      -0.0200
     97  CD1      250.1200  -37.6350   79.1940 C.ar   84  PHE84      -0.0042
     98  CD2      252.0310  -36.2570   78.8610 C.ar   84  PHE84      -0.0042
     99  CE1      250.9390  -38.7570   79.2670 C.ar   84  PHE84      -0.0003
    100  CE2      252.8470  -37.3740   78.9510 C.ar   84  PHE84      -0.0003
    101  CZ       252.2920  -38.6260   79.1500 C.ar   84  PHE84      -0.0000
    102  N        249.4640  -32.1440   80.1220 N.am   85  ARG85      -0.1977
    103  CA       249.0590  -30.8150   79.7020 C.3    85  ARG85       0.1597
    104  C        248.9520  -30.8040   78.1990 C.2    85  ARG85       0.2287
    105  O        249.6540  -31.5650   77.5240 O.2    85  ARG85      -0.2864
    106  CB       250.0970  -29.7740   80.1090 C.3    85  ARG85       0.0334
    107  CG       250.2410  -29.5770   81.5860 C.3    85  ARG85       0.0492
    108  CD       251.3310  -28.5680   81.8280 C.3    85  ARG85       0.2205
    109  NE       251.4120  -28.1440   83.2170 N.pl3  85  ARG85      -0.0865
    110  CZ       252.2010  -27.1660   83.6450 C.cat  85  ARG85       0.5346
    111  NH1      252.9740  -26.5120   82.7890 N.pl3  85  ARG85       0.1354
    112  NH2      252.2130  -26.8440   84.9250 N.pl3  85  ARG85       0.1354
    113  N        250.0910  -28.7120   76.2360 N.3    87  GLU87      -0.1231
    114  CA       251.2500  -28.1560   75.5650 C.3    87  GLU87       0.1699
    115  C        252.1730  -29.2320   74.9650 C.2    87  GLU87       0.2592
    116  O        252.9630  -28.9400   74.0650 O.2    87  GLU87      -0.2718
    117  CB       252.0230  -27.1970   76.4830 C.3    87  GLU87       0.0402
    118  CG       252.5950  -27.7960   77.7500 C.3    87  GLU87       0.1161
    119  CD       253.3320  -26.7540   78.5890 C.2    87  GLU87       0.3649
    120  OE1      253.5730  -25.6370   78.0770 O.co2  87  GLU87      -0.2457
    121  OE2      253.6700  -27.0410   79.7600 O.co2  87  GLU87      -0.2457
    122  N        252.0540  -30.4710   75.4320 N.am   88  PHE88      -0.1962
    123  CA       252.9470  -31.5320   74.9750 C.3    88  PHE88       0.1771
    124  C        252.4050  -32.2870   73.7440 C.2    88  PHE88       0.2619
    125  O        253.0500  -33.1960   73.2280 O.2    88  PHE88      -0.2715
    126  CB       253.2600  -32.4950   76.1290 C.3    88  PHE88       0.0574
    127  CG       253.8900  -31.8170   77.3100 C.ar   88  PHE88      -0.0200
    128  CD1      255.0840  -31.1500   77.1880 C.ar   88  PHE88      -0.0042
    129  CD2      253.2710  -31.8340   78.5380 C.ar   88  PHE88      -0.0042
    130  CE1      255.6520  -30.5040   78.2860 C.ar   88  PHE88      -0.0003
    131  CE2      253.8300  -31.1940   79.6280 C.ar   88  PHE88      -0.0003
    132  CZ       255.0160  -30.5320   79.5020 C.ar   88  PHE88      -0.0000
    133  N        251.2270  -31.9050   73.2760 N.am   89  VAL89      -0.1963
    134  CA       250.6830  -32.4670   72.0480 C.3    89  VAL89       0.1727
    135  C        251.4010  -31.8970   70.8230 C.2    89  VAL89       0.2617
    136  O        251.6650  -30.7040   70.7470 O.2    89  VAL89      -0.2715
    137  CB       249.1850  -32.1780   71.9510 C.3    89  VAL89       0.0290
    138  CG1      248.6240  -32.6380   70.6050 C.3    89  VAL89       0.0023
    139  CG2      248.4960  -32.8520   73.1080 C.3    89  VAL89       0.0023
    140  N        251.7200  -32.7630   69.8720 N.am   90  SER90      -0.1936
    141  CA       252.4010  -32.3480   68.6620 C.3    90  SER90       0.2055
    142  C        251.3880  -31.8260   67.6470 C.2    90  SER90       0.2643
    143  O        250.1930  -32.1020   67.7730 O.2    90  SER90      -0.2714
    144  CB       253.1710  -33.5290   68.0810 C.3    90  SER90       0.2130
    145  OG       253.8140  -33.1680   66.8820 O.3    90  SER90      -0.2179
    146  N        251.8670  -31.0400   66.6800 N.am   91  ASN91      -0.1957
    147  CA       251.0730  -30.6460   65.5090 C.3    91  ASN91       0.1819
    148  C        251.4620  -31.4410   64.2540 C.2    91  ASN91       0.2621
    149  O        250.9540  -31.1750   63.1670 O.2    91  ASN91      -0.2715
    150  CB       251.2380  -29.1530   65.2170 C.3    91  ASN91       0.1195
    151  CG       250.5420  -28.2710   66.2390 C.2    91  ASN91       0.2630
    152  OD1      249.3740  -28.4860   66.5790 O.2    91  ASN91      -0.2716
    153  ND2      251.2600  -27.2620   66.7340 N.am   91  ASN91      -0.0877
    154  N        252.3640  -32.4060   64.4000 N.am   92  GLN92      -0.1977
    155  CA       252.7690  -33.2240   63.2680 C.3    92  GLN92       0.1601
    156  C        252.0110  -34.5570   63.2670 C.2    92  GLN92       0.2287
    157  O        251.3820  -34.9450   64.2650 O.2    92  GLN92      -0.2864
    158  CB       254.2820  -33.4780   63.2790 C.3    92  GLN92       0.0394
    159  CG       255.1060  -32.3320   63.8370 C.3    92  GLN92       0.0908
    160  CD       254.9670  -31.0410   63.0420 C.2    92  GLN92       0.2608
    161  OE1      255.1110  -31.0270   61.8200 O.2    92  GLN92      -0.2717
    162  NE2      254.7110  -29.9400   63.7430 N.am   92  GLN92      -0.0878
@<TRIPOS>BOND
     1   161   160    2
     2   160   162   am
     3   160   159    1
     4   149   148    2
     5   156   155    1
     6   156   157    2
     7   155   158    1
     8   155   154    1
     9   158   159    1
    10   148   154   am
    11   148   147    1
    12    19    21   ar
    13    19    17   ar
    14    21    20   ar
    15   150   147    1
    16   150   151    1
    17    20    18   ar
    18    17    16    1
    19    17    18   ar
    20   147   146    1
    21    16    13    1
    22   151   152    2
    23   151   153   am
    24   146   142   am
    25   145   144    1
    26    13    14    1
    27    13    12    1
    28    14    15    2
    29   142   143    2
    30   142   141    1
    31    12     3   am
    32   144   141    1
    33    70    68   ar
    34    70    71   ar
    35     1     2    1
    36    68    66   ar
    37    72    71    1
    38   141   140    1
    39    71    69   ar
    40    66    65    1
    41    66    67   ar
    42     3     2    1
    43     3     4    2
    44    52    51    1
    45    52    53    1
    46    50    49    2
    47    65    62    1
    48    51    48    1
    49    69    67   ar
    50     2     5    1
    51    11     9    1
    52    53    47    1
    53     5     6    1
    54   140   135   am
    55    10     9    1
    56     9     8    2
    57    64    63    2
    58    49    48    1
    59    49    54   am
    60    48    47    1
    61    61    62    1
    62    61    56   am
    63    62    63    1
    64    38    39    1
    65    47    40   am
    66   138   137    1
    67   136   135    2
    68   135   134    1
    69     8     7    1
    70     6     7    1
    71    55    54    1
    72    55    56    1
    73    55    58    1
    74    56    57    2
    75    40    39    1
    76    40    41    2
    77    60    58    1
    78    39    42    1
    79   137   134    1
    80   137   139    1
    81    59    58    1
    82   134   133    1
    83    42    43    1
    84    22    23    1
    85   125   124    2
    86    23    24    1
    87   133   124   am
    88   124   123    1
    89    45    46    1
    90    45    44    1
    91    43    44    1
    92   116   115    2
    93    24    26   am
    94    24    25    2
    95    36    37    2
    96    36    35    1
    97    26    27    1
    98   115   122   am
    99   115   114    1
   100   123   122    1
   101   123   126    1
   102    31    33    1
   103    31    30    1
   104   114   113    1
   105   114   117    1
   106    34    35    1
   107    34    28   am
   108   126   127    1
   109    27    30    1
   110    27    28    1
   111    32    30    1
   112   117   118    1
   113    28    29    2
   114   128   127   ar
   115   128   130   ar
   116   127   129   ar
   117   105   104    2
   118   118   119    1
   119   120   119   ar
   120   104   103    1
   121   130   132   ar
   122   129   131   ar
   123   119   121   ar
   124    98   100   ar
   125    98    96   ar
   126    95    96    1
   127    95    92    1
   128   100   101   ar
   129    96    97   ar
   130   101    99   ar
   131    97    99   ar
   132   132   131   ar
   133    94    93    2
   134   103   106    1
   135   103   102    1
   136    93   102   am
   137    93    92    1
   138   106   107    1
   139    92    91    1
   140    91    86   am
   141    76    75    2
   142    83    81    1
   143   107   108    1
   144   108   109    1
   145    73    74    1
   146    80    81    2
   147    80    79    1
   148    86    87    2
   149    86    85    1
   150    75    74    1
   151    75    84   am
   152    78    79    1
   153    78    77    1
   154    81    82    1
   155    85    84    1
   156    85    88    1
   157    74    77    1
   158   111   110    1
   159   109   110    2
   160    89    88    1
   161   110   112    1
   162    88    90    1
