@<TRIPOS>MOLECULE
tmp/4l1uF00.pdb
 121 121 0 0 0
SMALL
GASTEIGER

@<TRIPOS>ATOM
      1  N        246.4750  -50.0300   40.8350 N.3    18  ARG18      -0.1231
      2  CA       246.6710  -51.0280   39.7980 C.3    18  ARG18       0.1694
      3  C        247.1410  -52.3360   40.4250 C.2    18  ARG18       0.2592
      4  O        246.6850  -53.4230   40.0430 O.2    18  ARG18      -0.2718
      5  CB       247.6870  -50.5520   38.7560 C.3    18  ARG18       0.0321
      6  CG       247.7680  -51.4640   37.5440 C.3    18  ARG18       0.0489
      7  CD       248.5490  -50.8430   36.4150 C.3    18  ARG18       0.2205
      8  NE       249.9810  -50.7770   36.6980 N.pl3  18  ARG18      -0.0865
      9  CZ       250.6510  -49.6950   37.0860 C.cat  18  ARG18       0.5346
     10  NH1      250.0560  -48.5200   37.2630 N.pl3  18  ARG18       0.1354
     11  NH2      251.9500  -49.7970   37.3000 N.pl3  18  ARG18       0.1354
     12  N        248.0440  -52.2070   41.3970 N.am   19  HIS19      -0.1976
     13  CA       248.5920  -53.3360   42.1510 C.3    19  HIS19       0.1656
     14  C        247.4920  -54.1750   42.7950 C.2    19  HIS19       0.2291
     15  O        247.4920  -55.4180   42.7140 O.2    19  HIS19      -0.2864
     16  CB       249.5300  -52.8180   43.2510 C.3    19  HIS19       0.0771
     17  CG       250.8700  -52.3600   42.7390 C.ar   19  HIS19       0.0820
     18  ND1      251.3560  -52.7010   41.5030 N.ar   19  HIS19      -0.2267
     19  CD2      251.8210  -51.5930   43.3330 C.ar   19  HIS19       0.1154
     20  CE1      252.5600  -52.1610   41.3400 C.ar   19  HIS19       0.1986
     21  NE2      252.8610  -51.4920   42.4290 N.ar   19  HIS19      -0.2212
     22  N        244.5250  -43.2360   33.5150 N.3    42  GLY42      -0.1210
     23  CA       245.3820  -42.4710   32.6130 C.3    42  GLY42       0.1956
     24  C        244.8560  -42.4880   31.1910 C.2    42  GLY42       0.2612
     25  O        245.0400  -43.4710   30.4790 O.2    42  GLY42      -0.2717
     26  N        244.2260  -41.3910   30.7770 N.am   43  ILE43      -0.1965
     27  CA       243.4570  -41.3490   29.5330 C.3    43  ILE43       0.1730
     28  C        244.1720  -40.7020   28.3510 C.2    43  ILE43       0.2656
     29  O        243.7440  -40.8610   27.2050 O.2    43  ILE43      -0.2711
     30  CB       242.1560  -40.5550   29.7260 C.3    43  ILE43       0.0290
     31  CG1      242.4580  -39.1250   30.1960 C.3    43  ILE43       0.0022
     32  CG2      241.2480  -41.2650   30.7180 C.3    43  ILE43       0.0023
     33  CD1      241.5090  -38.1000   29.6220 C.3    43  ILE43       0.0001
     34  N        245.2300  -39.9410   28.6160 N.am   44  GLY44      -0.1716
     35  CA       245.9460  -39.3010   27.5300 C.2    44  GLY44       0.1480
     36  C        247.0260  -38.3100   27.9160 C.2    44  GLY44       0.2820
     37  O        247.5620  -38.3560   29.0210 O.2    44  GLY44      -0.2669
     38  N        247.3630  -37.4140   27.0050 N.am   45  ASN45      -0.1937
     39  CA       248.4150  -36.4400   27.2050 C.3    45  ASN45       0.1691
     40  C        247.9680  -35.0790   26.7020 C.2    45  ASN45       0.2292
     41  O        247.1420  -35.0080   25.8160 O.2    45  ASN45      -0.2864
     42  CB       249.6670  -36.8520   26.4460 C.3    45  ASN45       0.1181
     43  CG       250.2560  -38.1570   26.9110 C.2    45  ASN45       0.2629
     44  OD1      249.9220  -39.2100   26.4150 O.2    45  ASN45      -0.2716
     45  ND2      251.1680  -38.0820   27.8270 N.am   45  ASN45      -0.0877
     46  N        250.9980  -35.8520   31.2900 N.3    50  PRO50      -0.2102
     47  CA       249.9950  -36.9290   31.3670 C.3    50  PRO50       0.1504
     48  C        248.6620  -36.4530   31.9660 C.2    50  PRO50       0.2576
     49  O        248.6510  -35.6560   32.9040 O.2    50  PRO50      -0.2718
     50  CB       250.6580  -37.9790   32.2900 C.3    50  PRO50       0.0282
     51  CG       252.1060  -37.5770   32.3940 C.3    50  PRO50       0.0208
     52  CD       252.1380  -36.1010   32.1930 C.3    50  PRO50       0.0893
     53  N        247.5520  -36.9370   31.4220 N.am   51  VAL51      -0.1966
     54  CA       246.2320  -36.5830   31.9250 C.3    51  VAL51       0.1727
     55  C        245.5810  -37.7790   32.6240 C.2    51  VAL51       0.2616
     56  O        245.5020  -38.8870   32.0760 O.2    51  VAL51      -0.2715
     57  CB       245.3130  -36.0990   30.7990 C.3    51  VAL51       0.0290
     58  CG1      243.9360  -35.7450   31.3620 C.3    51  VAL51       0.0023
     59  CG2      245.9640  -34.9180   30.0520 C.3    51  VAL51       0.0023
     60  N        245.1200  -37.5360   33.8460 N.am   52  TYR52      -0.1974
     61  CA       244.4090  -38.5470   34.6020 C.3    52  TYR52       0.1639
     62  C        243.0210  -38.0350   34.9430 C.2    52  TYR52       0.2290
     63  O        242.8230  -36.8420   35.1170 O.2    52  TYR52      -0.2864
     64  CB       245.1500  -38.8620   35.8900 C.3    52  TYR52       0.0560
     65  CG       246.5000  -39.5130   35.7070 C.ar   52  TYR52      -0.0198
     66  CD1      247.6460  -38.7500   35.5170 C.ar   52  TYR52      -0.0009
     67  CD2      246.6320  -40.8900   35.7590 C.ar   52  TYR52      -0.0009
     68  CE1      248.8900  -39.3520   35.3710 C.ar   52  TYR52       0.0417
     69  CE2      247.8570  -41.4940   35.6160 C.ar   52  TYR52       0.0417
     70  CZ       248.9870  -40.7210   35.4260 C.ar   52  TYR52       0.1957
     71  OH       250.2070  -41.3450   35.2890 O.3    52  TYR52      -0.2866
     72  N        245.7080  -51.9580   32.7360 N.3    92  GLU92      -0.1231
     73  CA       247.0700  -51.4530   32.6230 C.3    92  GLU92       0.1699
     74  C        247.1300  -49.9280   32.7470 C.2    92  GLU92       0.2592
     75  O        248.1600  -49.3760   33.1350 O.2    92  GLU92      -0.2718
     76  CB       247.7180  -51.9130   31.3150 C.3    92  GLU92       0.0402
     77  CG       246.9830  -51.4920   30.0600 C.3    92  GLU92       0.1161
     78  CD       247.7340  -51.8710   28.7960 C.2    92  GLU92       0.3649
     79  OE1      248.9430  -51.5560   28.7080 O.co2  92  GLU92      -0.2457
     80  OE2      247.1210  -52.4910   27.8950 O.co2  92  GLU92      -0.2457
     81  N        246.0220  -49.2570   32.4420 N.am   93  PHE93      -0.1962
     82  CA       245.9780  -47.7990   32.4420 C.3    93  PHE93       0.1771
     83  C        245.5340  -47.1990   33.7950 C.2    93  PHE93       0.2619
     84  O        245.4680  -45.9740   33.9520 O.2    93  PHE93      -0.2715
     85  CB       245.0650  -47.3130   31.3110 C.3    93  PHE93       0.0574
     86  CG       245.4730  -47.8060   29.9480 C.ar   93  PHE93      -0.0200
     87  CD1      246.6880  -47.4320   29.3940 C.ar   93  PHE93      -0.0042
     88  CD2      244.6370  -48.6320   29.2120 C.ar   93  PHE93      -0.0042
     89  CE1      247.0570  -47.8740   28.1400 C.ar   93  PHE93      -0.0003
     90  CE2      245.0110  -49.0800   27.9580 C.ar   93  PHE93      -0.0003
     91  CZ       246.2180  -48.6980   27.4250 C.ar   93  PHE93      -0.0000
     92  N        245.2450  -48.0500   34.7680 N.am   94  VAL94      -0.1963
     93  CA       244.9470  -47.5860   36.1130 C.3    94  VAL94       0.1727
     94  C        246.2390  -47.1700   36.8170 C.2    94  VAL94       0.2617
     95  O        247.2400  -47.8860   36.7560 O.2    94  VAL94      -0.2715
     96  CB       244.2370  -48.6980   36.9060 C.3    94  VAL94       0.0290
     97  CG1      244.1110  -48.3320   38.3870 C.3    94  VAL94       0.0023
     98  CG2      242.8660  -48.9950   36.2710 C.3    94  VAL94       0.0023
     99  N        246.2130  -46.0170   37.4860 N.am   95  SER95      -0.1936
    100  CA       247.3900  -45.4670   38.1750 C.3    95  SER95       0.2055
    101  C        247.5950  -46.0810   39.5720 C.2    95  SER95       0.2643
    102  O        246.6440  -46.5700   40.1750 O.2    95  SER95      -0.2714
    103  CB       247.2310  -43.9530   38.3080 C.3    95  SER95       0.2130
    104  OG       248.3260  -43.3850   38.9830 O.3    95  SER95      -0.2179
    105  N        248.8340  -46.0710   40.0750 N.am   96  ASN96      -0.1957
    106  CA       249.0950  -46.4310   41.4680 C.3    96  ASN96       0.1819
    107  C        249.2490  -45.2030   42.3890 C.2    96  ASN96       0.2621
    108  O        249.5610  -45.3550   43.5740 O.2    96  ASN96      -0.2715
    109  CB       250.3500  -47.2900   41.5720 C.3    96  ASN96       0.1195
    110  CG       250.1370  -48.7170   41.0680 C.2    96  ASN96       0.2630
    111  OD1      249.1050  -49.3490   41.3240 O.2    96  ASN96      -0.2716
    112  ND2      251.1250  -49.2280   40.3420 N.am   96  ASN96      -0.0877
    113  N        249.0340  -43.9990   41.8560 N.am   97  GLN97      -0.1977
    114  CA       249.1470  -42.7760   42.6570 C.3    97  GLN97       0.1601
    115  C        247.7740  -42.2850   43.1220 C.2    97  GLN97       0.2287
    116  O        246.7420  -42.7110   42.6150 O.2    97  GLN97      -0.2864
    117  CB       249.8430  -41.6630   41.8590 C.3    97  GLN97       0.0394
    118  CG       251.0540  -42.1250   41.0390 C.3    97  GLN97       0.0908
    119  CD       252.0780  -42.8890   41.8640 C.2    97  GLN97       0.2608
    120  OE1      252.4270  -42.4880   42.9760 O.2    97  GLN97      -0.2717
    121  NE2      252.5690  -43.9990   41.3160 N.am   97  GLN97      -0.0878
@<TRIPOS>BOND
     1    41    40    2
     2    44    43    2
     3    42    43    1
     4    42    39    1
     5    40    39    1
     6    43    45   am
     7    38    39    1
     8    38    36   am
     9    29    28    2
    10    91    90   ar
    11    91    89   ar
    12    35    36    1
    13    35    34    2
    14    80    78   ar
    15    36    37    2
    16    90    88   ar
    17    89    87   ar
    18    28    34    1
    19    28    27    1
    20    79    78   ar
    21    78    77    1
    22    88    86   ar
    23    87    86   ar
    24    27    30    1
    25    27    26    1
    26    33    31    1
    27    30    31    1
    28    30    32    1
    29    86    85    1
    30    59    57    1
    31    77    76    1
    32    25    24    2
    33    26    24   am
    34    57    58    1
    35    57    54    1
    36    24    23    1
    37    46    47    1
    38    46    52    1
    39    85    82    1
    40    76    73    1
    41    47    48    1
    42    47    50    1
    43    53    54    1
    44    53    48   am
    45    54    55    1
    46    48    49    2
    47    56    55    2
    48    52    51    1
    49    50    51    1
    50    81    82    1
    51    81    74   am
    52    82    83    1
    53    23    22    1
    54    73    72    1
    55    73    74    1
    56    55    60   am
    57    74    75    2
    58    83    84    2
    59    83    92   am
    60    60    61    1
    61    61    62    1
    62    61    64    1
    63    92    93    1
    64    62    63    2
    65    71    70    1
    66    68    70   ar
    67    68    66   ar
    68    70    69   ar
    69    66    65   ar
    70    69    67   ar
    71    65    67   ar
    72    65    64    1
    73    93    94    1
    74    93    96    1
    75    98    96    1
    76     7     8    1
    77     7     6    1
    78     8     9    2
    79    95    94    2
    80    94    99   am
    81    96    97    1
    82     9    10    1
    83     9    11    1
    84    99   100    1
    85     6     5    1
    86   100   103    1
    87   100   101    1
    88   103   104    1
    89     5     2    1
    90   101   105   am
    91   101   102    2
    92     2     3    1
    93     2     1    1
    94     4     3    2
    95   105   106    1
    96   112   110   am
    97     3    12   am
    98   118   117    1
    99   118   119    1
   100   110   111    2
   101   110   109    1
   102   121   119   am
   103    20    18   ar
   104    20    21   ar
   105    12    13    1
   106   106   109    1
   107   106   107    1
   108    18    17   ar
   109   113   107   am
   110   113   114    1
   111   117   114    1
   112   119   120    2
   113    13    14    1
   114    13    16    1
   115   107   108    2
   116    21    19   ar
   117   116   115    2
   118   114   115    1
   119    15    14    2
   120    17    16    1
   121    17    19   ar
