@<TRIPOS>MOLECULE
tmp/4l1uB00.pdb
 150 150 0 0 0
SMALL
GASTEIGER

@<TRIPOS>ATOM
      1  N        226.4040   -6.6420   68.2480 N.3    17  ARG17      -0.1231
      2  CA       226.3860   -7.6600   69.2830 C.3    17  ARG17       0.1694
      3  C        227.1930   -8.9120   68.8850 C.2    17  ARG17       0.2592
      4  O        227.9120   -9.4790   69.7230 O.2    17  ARG17      -0.2718
      5  CB       224.9400   -8.0440   69.6490 C.3    17  ARG17       0.0321
      6  CG       224.8480   -8.9980   70.8450 C.3    17  ARG17       0.0489
      7  CD       223.4520   -9.0590   71.4280 C.3    17  ARG17       0.2205
      8  NE       222.5710   -9.8560   70.5860 N.pl3  17  ARG17      -0.0865
      9  CZ       221.6500   -9.3740   69.7690 C.cat  17  ARG17       0.5346
     10  NH1      221.4370   -8.0680   69.6410 N.pl3  17  ARG17       0.1354
     11  NH2      220.9260  -10.2210   69.0780 N.pl3  17  ARG17       0.1354
     12  N        227.0830   -9.3330   67.6240 N.am   18  HIS18      -0.1976
     13  CA       227.8710  -10.4730   67.1350 C.3    18  HIS18       0.1656
     14  C        229.3670  -10.3140   67.4230 C.2    18  HIS18       0.2291
     15  O        230.0420  -11.2770   67.8130 O.2    18  HIS18      -0.2864
     16  CB       227.7300  -10.6270   65.6310 C.3    18  HIS18       0.0771
     17  CG       226.3510  -10.9670   65.1660 C.ar   18  HIS18       0.0820
     18  ND1      225.6830  -12.1090   65.5560 N.ar   18  HIS18      -0.2267
     19  CD2      225.5400  -10.3370   64.2810 C.ar   18  HIS18       0.1154
     20  CE1      224.5060  -12.1530   64.9550 C.ar   18  HIS18       0.1986
     21  NE2      224.3940  -11.0900   64.1780 N.ar   18  HIS18      -0.2212
     22  N        219.6370   -1.0560   73.2200 N.3    41  GLY41      -0.1210
     23  CA       218.2010   -1.0740   73.4590 C.3    41  GLY41       0.1956
     24  C        217.9380   -0.7790   74.9230 C.2    41  GLY41       0.2612
     25  O        218.3310   -1.5580   75.7740 O.2    41  GLY41      -0.2717
     26  N        217.2990    0.3460   75.2210 N.am   42  ILE42      -0.1965
     27  CA       217.1840    0.8000   76.6100 C.3    42  ILE42       0.1727
     28  C        215.8070    0.5110   77.2160 C.2    42  ILE42       0.2617
     29  O        215.5820    0.7090   78.4180 O.2    42  ILE42      -0.2715
     30  CB       217.4850    2.2990   76.7310 C.3    42  ILE42       0.0290
     31  CG1      216.4540    3.1180   75.9480 C.3    42  ILE42       0.0022
     32  CG2      218.9170    2.5910   76.2470 C.3    42  ILE42       0.0023
     33  CD1      216.3170    4.5180   76.4370 C.3    42  ILE42       0.0001
     34  N        214.8910    0.0500   76.3740 N.am   43  GLY43      -0.1940
     35  CA       213.5900   -0.3710   76.8350 C.3    43  GLY43       0.2014
     36  C        212.5430   -0.2250   75.7620 C.2    43  GLY43       0.2638
     37  O        212.8570   -0.0620   74.5760 O.2    43  GLY43      -0.2714
     38  N        211.2900   -0.2900   76.1910 N.am   44  ASN44      -0.1972
     39  CA       210.1750   -0.1240   75.2900 C.3    44  ASN44       0.1688
     40  C        209.4030    1.1270   75.6380 C.2    44  ASN44       0.2292
     41  O        209.3630    1.5510   76.7930 O.2    44  ASN44      -0.2864
     42  CB       209.2530   -1.3440   75.3330 C.3    44  ASN44       0.1181
     43  CG       209.9390   -2.6010   74.8510 C.2    44  ASN44       0.2629
     44  OD1      210.3250   -2.7030   73.6880 O.2    44  ASN44      -0.2716
     45  ND2      210.0900   -3.5720   75.7400 N.am   44  ASN44      -0.0877
     46  N        210.3640   -1.0730   70.7350 N.3    49  PRO49      -0.2102
     47  CA       211.7400   -0.9620   71.2370 C.3    49  PRO49       0.1504
     48  C        212.4060    0.3600   70.9080 C.2    49  PRO49       0.2576
     49  O        212.2840    0.8740   69.7960 O.2    49  PRO49      -0.2718
     50  CB       212.4720   -2.0950   70.5180 C.3    49  PRO49       0.0282
     51  CG       211.7100   -2.2740   69.2400 C.3    49  PRO49       0.0208
     52  CD       210.2720   -1.9990   69.5910 C.3    49  PRO49       0.0893
     53  N        213.1310    0.8850   71.8850 N.am   50  VAL50      -0.1966
     54  CA       213.7870    2.1780   71.7670 C.3    50  VAL50       0.1727
     55  C        215.2960    1.9810   71.8790 C.2    50  VAL50       0.2616
     56  O        215.7760    1.2550   72.7460 O.2    50  VAL50      -0.2715
     57  CB       213.3120    3.1480   72.8830 C.3    50  VAL50       0.0290
     58  CG1      213.9250    4.5280   72.7040 C.3    50  VAL50       0.0023
     59  CG2      211.8020    3.2510   72.8940 C.3    50  VAL50       0.0023
     60  N        216.0390    2.6370   71.0050 N.am   51  TYR51      -0.1974
     61  CA       217.4780    2.4750   70.9520 C.3    51  TYR51       0.1639
     62  C        218.1690    3.8260   71.0590 C.2    51  TYR51       0.2290
     63  O        217.6460    4.8340   70.5940 O.2    51  TYR51      -0.2864
     64  CB       217.8890    1.8490   69.6160 C.3    51  TYR51       0.0560
     65  CG       217.4310    0.4290   69.3710 C.ar   51  TYR51      -0.0198
     66  CD1      218.1850   -0.6630   69.8080 C.ar   51  TYR51      -0.0009
     67  CD2      216.2600    0.1720   68.6740 C.ar   51  TYR51      -0.0009
     68  CE1      217.7670   -1.9600   69.5570 C.ar   51  TYR51       0.0417
     69  CE2      215.8450   -1.1260   68.4280 C.ar   51  TYR51       0.0417
     70  CZ       216.5940   -2.1740   68.8610 C.ar   51  TYR51       0.1957
     71  OH       216.1550   -3.4530   68.5940 O.3    51  TYR51      -0.2866
     72  N        225.7920    4.5450   82.2800 N.3    86  ARG86      -0.1231
     73  CA       225.1140    3.3610   82.8040 C.3    86  ARG86       0.1694
     74  C        225.8220    2.1090   82.3440 C.2    86  ARG86       0.2592
     75  O        226.4430    2.0940   81.2730 O.2    86  ARG86      -0.2718
     76  CB       223.6910    3.2750   82.2720 C.3    86  ARG86       0.0321
     77  CG       222.6750    4.0040   83.0650 C.3    86  ARG86       0.0489
     78  CD       221.5650    4.4690   82.1430 C.3    86  ARG86       0.2205
     79  NE       220.4170    3.5700   82.1090 N.pl3  86  ARG86      -0.0865
     80  CZ       219.4480    3.6450   81.2040 C.cat  86  ARG86       0.5346
     81  NH1      219.4960    4.5530   80.2320 N.pl3  86  ARG86       0.1354
     82  NH2      218.4310    2.7980   81.2620 N.pl3  86  ARG86       0.1354
     83  N        225.6760    1.0540   83.1380 N.am   87  VAL87      -0.1966
     84  CA       226.2320   -0.2380   82.8030 C.3    87  VAL87       0.1727
     85  C        225.1740   -1.1040   82.1350 C.2    87  VAL87       0.2616
     86  O        224.0670   -1.2120   82.6160 O.2    87  VAL87      -0.2715
     87  CB       226.7900   -0.9460   84.0450 C.3    87  VAL87       0.0290
     88  CG1      227.2890   -2.3370   83.6920 C.3    87  VAL87       0.0023
     89  CG2      227.9070   -0.1180   84.6360 C.3    87  VAL87       0.0023
     90  N        225.5360   -1.7000   81.0100 N.am   88  PHE88      -0.1974
     91  CA       224.6130   -2.5550   80.2710 C.3    88  PHE88       0.1639
     92  C        225.2530   -3.8930   79.9810 C.2    88  PHE88       0.2290
     93  O        226.4190   -3.9650   79.5920 O.2    88  PHE88      -0.2864
     94  CB       224.2390   -1.9250   78.9290 C.3    88  PHE88       0.0560
     95  CG       223.2260   -0.8460   79.0300 C.ar   88  PHE88      -0.0200
     96  CD1      223.6050    0.4460   79.3280 C.ar   88  PHE88      -0.0042
     97  CD2      221.8890   -1.1190   78.8280 C.ar   88  PHE88      -0.0042
     98  CE1      222.6590    1.4410   79.4240 C.ar   88  PHE88      -0.0003
     99  CE2      220.9390   -0.1220   78.9270 C.ar   88  PHE88      -0.0003
    100  CZ       221.3260    1.1560   79.2220 C.ar   88  PHE88      -0.0000
    101  N        223.8910   -8.1790   76.0220 N.3    91  GLU91      -0.1231
    102  CA       222.7690   -8.7400   75.2930 C.3    91  GLU91       0.1699
    103  C        221.8590   -7.6480   74.7040 C.2    91  GLU91       0.2592
    104  O        221.1120   -7.9050   73.7620 O.2    91  GLU91      -0.2718
    105  CB       221.9830   -9.7150   76.1770 C.3    91  GLU91       0.0402
    106  CG       221.3990   -9.1180   77.4300 C.3    91  GLU91       0.1161
    107  CD       220.6930  -10.1520   78.3080 C.2    91  GLU91       0.3649
    108  OE1      220.7970  -10.0630   79.5600 O.co2  91  GLU91      -0.2457
    109  OE2      220.0330  -11.0550   77.7550 O.co2  91  GLU91      -0.2457
    110  N        221.9200   -6.4330   75.2510 N.am   92  PHE92      -0.1962
    111  CA       221.0100   -5.3670   74.8190 C.3    92  PHE92       0.1771
    112  C        221.6170   -4.5220   73.7180 C.2    92  PHE92       0.2619
    113  O        220.9980   -3.5680   73.2700 O.2    92  PHE92      -0.2715
    114  CB       220.5920   -4.4640   75.9920 C.3    92  PHE92       0.0574
    115  CG       220.0520   -5.2200   77.1760 C.ar   92  PHE92      -0.0200
    116  CD1      218.8730   -5.9270   77.0850 C.ar   92  PHE92      -0.0042
    117  CD2      220.7350   -5.2270   78.3780 C.ar   92  PHE92      -0.0042
    118  CE1      218.3920   -6.6220   78.1670 C.ar   92  PHE92      -0.0003
    119  CE2      220.2500   -5.9280   79.4700 C.ar   92  PHE92      -0.0003
    120  CZ       219.0930   -6.6240   79.3660 C.ar   92  PHE92      -0.0000
    121  N        222.8350   -4.8590   73.3070 N.am   93  VAL93      -0.1963
    122  CA       223.4740   -4.2020   72.1720 C.3    93  VAL93       0.1727
    123  C        222.8300   -4.7010   70.8810 C.2    93  VAL93       0.2617
    124  O        222.6510   -5.8950   70.7200 O.2    93  VAL93      -0.2715
    125  CB       224.9820   -4.5160   72.1440 C.3    93  VAL93       0.0290
    126  CG1      225.6190   -4.0310   70.8570 C.3    93  VAL93       0.0023
    127  CG2      225.6450   -3.9400   73.3770 C.3    93  VAL93       0.0023
    128  N        222.4820   -3.7850   69.9770 N.am   94  SER94      -0.1936
    129  CA       221.8050   -4.1440   68.7340 C.3    94  SER94       0.2055
    130  C        222.8050   -4.5780   67.6710 C.2    94  SER94       0.2643
    131  O        223.9950   -4.2620   67.7590 O.2    94  SER94      -0.2714
    132  CB       220.9980   -2.9430   68.2300 C.3    94  SER94       0.2130
    133  OG       220.5010   -3.1660   66.9360 O.3    94  SER94      -0.2179
    134  N        222.3220   -5.3130   66.6700 N.am   95  ASN95      -0.1957
    135  CA       223.1220   -5.6620   65.4860 C.3    95  ASN95       0.1819
    136  C        222.7420   -4.7830   64.2720 C.2    95  ASN95       0.2621
    137  O        223.2510   -4.9690   63.1700 O.2    95  ASN95      -0.2715
    138  CB       222.9290   -7.1340   65.1230 C.3    95  ASN95       0.1195
    139  CG       223.6210   -8.0830   66.0920 C.2    95  ASN95       0.2630
    140  OD1      224.7870   -7.8960   66.4560 O.2    95  ASN95      -0.2716
    141  ND2      222.9120   -9.1380   66.4810 N.am   95  ASN95      -0.0877
    142  N        221.8540   -3.8240   64.4930 N.am   96  GLN96      -0.1977
    143  CA       221.4250   -2.9200   63.4360 C.3    96  GLN96       0.1601
    144  C        222.1900   -1.6110   63.5480 C.2    96  GLN96       0.2287
    145  O        222.6720   -1.2530   64.6200 O.2    96  GLN96      -0.2864
    146  CB       219.9280   -2.6360   63.5730 C.3    96  GLN96       0.0394
    147  CG       219.1260   -3.8760   63.9240 C.3    96  GLN96       0.0908
    148  CD       219.4210   -5.0310   62.9740 C.2    96  GLN96       0.2608
    149  OE1      219.6500   -4.8220   61.7840 O.2    96  GLN96      -0.2717
    150  NE2      219.4390   -6.2440   63.4970 N.am   96  GLN96      -0.0878
@<TRIPOS>BOND
     1   149   148    2
     2   148   150   am
     3   148   147    1
     4   137   136    2
     5   143   144    1
     6   143   146    1
     7   143   142    1
     8   144   145    2
     9   146   147    1
    10    21    19   ar
    11    21    20   ar
    12   136   142   am
    13   136   135    1
    14    19    17   ar
    15    20    18   ar
    16   138   135    1
    17   138   139    1
    18    17    18   ar
    19    17    16    1
    20   135   134    1
    21    16    13    1
    22   139   140    2
    23   139   141   am
    24   134   130   am
    25   133   132    1
    26    13    14    1
    27    13    12    1
    28    14    15    2
    29    12     3   am
    30   130   131    2
    31   130   129    1
    32   132   129    1
    33     1     2    1
    34    69    67   ar
    35    69    70   ar
    36    71    70    1
    37    67    65   ar
    38   129   128    1
    39    70    68   ar
    40     3     2    1
    41     3     4    2
    42    11     9    1
    43    51    52    1
    44    51    50    1
    45     2     5    1
    46    65    64    1
    47    65    66   ar
    48    68    66   ar
    49    52    46    1
    50    64    61    1
    51    10     9    1
    52     5     6    1
    53     9     8    2
    54    49    48    2
    55   128   123   am
    56    50    47    1
    57     8     7    1
    58    63    62    2
    59   124   123    2
    60    46    47    1
    61     6     7    1
    62   126   125    1
    63   123   122    1
    64    48    47    1
    65    48    53   am
    66    61    60    1
    67    61    62    1
    68    60    55   am
    69    54    55    1
    70    54    53    1
    71    54    57    1
    72    55    56    2
    73   125   122    1
    74   125   127    1
    75   122   121    1
    76    58    57    1
    77    57    59    1
    78    22    23    1
    79   113   112    2
    80   121   112   am
    81    23    24    1
    82    44    43    2
    83   112   111    1
    84   104   103    2
    85    37    36    2
    86   103   110   am
    87   103   102    1
    88   111   110    1
    89   111   114    1
    90    43    42    1
    91    43    45   am
    92    24    26   am
    93    24    25    2
    94    26    27    1
    95    39    42    1
    96    39    40    1
    97    39    38    1
    98   102   101    1
    99   102   105    1
   100    40    41    2
   101    36    38   am
   102    36    35    1
   103    31    33    1
   104    31    30    1
   105   114   115    1
   106   105   106    1
   107    32    30    1
   108    34    35    1
   109    34    28   am
   110    27    30    1
   111    27    28    1
   112   116   115   ar
   113   116   118   ar
   114   115   117   ar
   115    28    29    2
   116   106   107    1
   117   109   107   ar
   118   118   120   ar
   119   107   108   ar
   120   117   119   ar
   121    97    99   ar
   122    97    95   ar
   123    99   100   ar
   124    94    95    1
   125    94    91    1
   126    95    96   ar
   127   100    98   ar
   128    96    98   ar
   129   120   119   ar
   130    93    92    2
   131    92    91    1
   132    81    80    1
   133    91    90    1
   134    90    85   am
   135    80    82    1
   136    80    79    2
   137    75    74    2
   138    79    78    1
   139    85    86    2
   140    85    84    1
   141    78    77    1
   142    76    73    1
   143    76    77    1
   144    72    73    1
   145    74    73    1
   146    74    83   am
   147    84    83    1
   148    84    87    1
   149    88    87    1
   150    87    89    1
