@<TRIPOS>MOLECULE
tmp/4l1wA01.pdb
 158 156 0 0 0
SMALL
GASTEIGER

@<TRIPOS>ATOM
      1  N        -16.1590   -0.8560   37.7570 N.3    26  TYR26      -0.1241
      2  CA       -16.0990    0.1280   38.8510 C.3    26  TYR26       0.1605
      3  C        -17.4830    0.7140   39.0460 C.2    26  TYR26       0.2264
      4  O        -18.1360    1.0830   38.0580 O.2    26  TYR26      -0.2867
      5  CB       -15.1340    1.2810   38.5950 C.3    26  TYR26       0.0534
      6  CG       -15.1880    2.2370   39.7450 C.ar   26  TYR26      -0.0201
      7  CD1      -14.6510    1.9090   40.9890 C.ar   26  TYR26      -0.0009
      8  CD2      -15.8540    3.4440   39.6410 C.ar   26  TYR26      -0.0009
      9  CE1      -14.7450    2.7700   42.0950 C.ar   26  TYR26       0.0417
     10  CE2      -15.9400    4.3190   40.7230 C.ar   26  TYR26       0.0417
     11  CZ       -15.3420    3.9710   41.9370 C.ar   26  TYR26       0.1957
     12  OH       -15.3940    4.8460   42.9650 O.3    26  TYR26      -0.2866
     13  N         -8.1500   -2.0350   43.8160 N.3    56  VAL56      -0.1231
     14  CA        -8.7710   -0.9350   44.5380 C.3    56  VAL56       0.1692
     15  C        -10.2850   -0.7490   44.3310 C.2    56  VAL56       0.2592
     16  O        -10.8530    0.0690   44.9970 O.2    56  VAL56      -0.2718
     17  CB        -8.2210    0.4940   44.2320 C.3    56  VAL56       0.0266
     18  CG1       -7.1030    0.8790   45.1280 C.3    56  VAL56       0.0020
     19  CG2       -8.0470    0.7900   42.7500 C.3    56  VAL56       0.0020
     20  N        -10.9020   -1.3750   43.3380 N.am   57  TYR57      -0.1962
     21  CA       -12.3600   -1.2080   43.1410 C.3    57  TYR57       0.1771
     22  C        -13.1390   -1.9630   44.2030 C.2    57  TYR57       0.2619
     23  O        -14.3490   -1.8280   44.2870 O.2    57  TYR57      -0.2715
     24  CB       -12.8150   -1.7330   41.7750 C.3    57  TYR57       0.0574
     25  CG       -12.1180   -1.1080   40.6060 C.ar   57  TYR57      -0.0198
     26  CD1      -11.4370    0.1240   40.7380 C.ar   57  TYR57      -0.0009
     27  CD2      -12.1980   -1.6690   39.3460 C.ar   57  TYR57      -0.0009
     28  CE1      -10.8740    0.7610   39.6490 C.ar   57  TYR57       0.0417
     29  CE2      -11.5880   -1.0520   38.2480 C.ar   57  TYR57       0.0417
     30  CZ       -10.9310    0.1570   38.4100 C.ar   57  TYR57       0.1957
     31  OH       -10.3000    0.7730   37.3370 O.3    57  TYR57      -0.2866
     32  N        -12.4490   -2.8130   44.9470 N.am   58  ASN58      -0.1972
     33  CA       -13.0600   -3.5780   46.0220 C.3    58  ASN58       0.1688
     34  C        -14.2910   -4.3720   45.5700 C.2    58  ASN58       0.2292
     35  O        -15.3440   -4.3370   46.1990 O.2    58  ASN58      -0.2864
     36  CB       -13.4060   -2.6390   47.1810 C.3    58  ASN58       0.1181
     37  CG       -13.8850   -3.3980   48.4190 C.2    58  ASN58       0.2629
     38  OD1      -13.3460   -4.4200   48.7580 O.2    58  ASN58      -0.2716
     39  ND2      -14.9180   -2.8960   49.0700 N.am   58  ASN58      -0.0877
     40  N         -2.2650   -1.8250   42.7180 N.3    88  TRP88      -0.1241
     41  CA        -2.5140   -0.4960   43.2620 C.3    88  TRP88       0.1605
     42  C         -1.1860    0.0960   43.7090 C.2    88  TRP88       0.2264
     43  O         -0.2120   -0.6340   43.9100 O.2    88  TRP88      -0.2867
     44  CB        -3.5660   -0.5170   44.4050 C.3    88  TRP88       0.0550
     45  CG        -3.7890    0.9100   44.8820 C.ar   88  TRP88       0.0003
     46  CD1       -3.5320    1.4240   46.1370 C.ar   88  TRP88       0.0946
     47  CD2       -4.2350    1.9730   44.0890 C.ar   88  TRP88       0.0152
     48  NE1       -3.7920    2.7860   46.1620 N.ar   88  TRP88      -0.2442
     49  CE2       -4.2550    3.1340   44.9090 C.ar   88  TRP88       0.0810
     50  CE3       -4.6730    2.0720   42.7570 C.ar   88  TRP88       0.0012
     51  CZ2       -4.6770    4.3840   44.4270 C.ar   88  TRP88       0.0191
     52  CZ3       -5.0740    3.3240   42.2610 C.ar   88  TRP88       0.0001
     53  CH2       -5.0580    4.4660   43.1040 C.ar   88  TRP88       0.0015
     54  N         -1.6170    0.1040   37.8000 N.3   119  HIS119     -0.1241
     55  CA        -2.8040    0.9270   37.7160 C.3   119  HIS119      0.1621
     56  C         -2.5400    2.4550   37.4780 C.2   119  HIS119      0.2264
     57  O         -3.2540    3.1170   36.6950 O.2   119  HIS119     -0.2867
     58  CB        -3.5910    0.7380   39.0130 C.3   119  HIS119      0.0745
     59  CG        -5.0230    1.0830   38.9030 C.ar  119  HIS119      0.0817
     60  ND1       -5.9870    0.4740   39.6770 N.ar  119  HIS119     -0.2268
     61  CD2       -5.6690    2.0150   38.1480 C.ar  119  HIS119      0.1154
     62  CE1       -7.1630    1.0280   39.4250 C.ar  119  HIS119      0.1986
     63  NE2       -7.0050    1.9550   38.4850 N.ar  119  HIS119     -0.2212
     64  N         -4.9640    2.4470   51.2940 N.3   130  VAL130     -0.1231
     65  CA        -4.7670    2.6950   49.8770 C.3   130  VAL130      0.1692
     66  C         -4.3180    4.1220   49.5190 C.2   130  VAL130      0.2591
     67  O         -3.6940    4.3200   48.5510 O.2   130  VAL130     -0.2718
     68  CB        -5.9200    2.2050   48.9900 C.3   130  VAL130      0.0266
     69  CG1       -6.1790    0.7410   49.1980 C.3   130  VAL130      0.0020
     70  CG2       -7.1590    2.9660   49.2450 C.3   130  VAL130      0.0020
     71  N         -4.6030    5.0790   50.3710 N.am  131  ILE131     -0.1980
     72  CA        -4.0610    6.4150   50.2450 C.3   131  ILE131      0.1595
     73  C         -3.5100    6.9030   51.5780 C.2   131  ILE131      0.2287
     74  O         -4.1900    7.4620   52.3420 O.2   131  ILE131     -0.2864
     75  CB        -5.0430    7.3900   49.5920 C.3   131  ILE131      0.0276
     76  CG1       -5.0510    7.1840   48.1000 C.3   131  ILE131      0.0022
     77  CG2       -4.6680    8.8370   49.8350 C.3   131  ILE131      0.0022
     78  CD1       -6.2000    7.8440   47.4510 C.3   131  ILE131      0.0001
     79  N        -10.6880    3.8730   28.8050 N.3   218  TYR218     -0.1241
     80  CA       -11.6370    3.9750   29.8950 C.3   218  TYR218      0.1605
     81  C        -12.3100    5.3280   29.8850 C.2   218  TYR218      0.2264
     82  O        -11.8850    6.2410   29.2500 O.2   218  TYR218     -0.2867
     83  CB       -10.9870    3.6670   31.2500 C.3   218  TYR218      0.0534
     84  CG       -10.0920    4.6710   31.9120 C.ar  218  TYR218     -0.0201
     85  CD1      -10.5890    5.8770   32.4110 C.ar  218  TYR218     -0.0009
     86  CD2       -8.7170    4.4110   32.1160 C.ar  218  TYR218     -0.0009
     87  CE1       -9.7770    6.7580   33.0900 C.ar  218  TYR218      0.0417
     88  CE2       -7.9150    5.2850   32.8310 C.ar  218  TYR218      0.0417
     89  CZ        -8.4560    6.4720   33.2930 C.ar  218  TYR218      0.1957
     90  OH        -7.6980    7.3640   34.0120 O.3   218  TYR218     -0.2866
     91  N        -17.8930    7.7500   35.0620 N.3   224  HIS224     -0.1241
     92  CA       -18.8580    7.6350   36.1250 C.3   224  HIS224      0.1621
     93  C        -19.2490    8.9390   36.7580 C.2   224  HIS224      0.2264
     94  O        -20.1870    8.9700   37.5040 O.2   224  HIS224     -0.2867
     95  CB       -18.3700    6.7130   37.2280 C.3   224  HIS224      0.0745
     96  CG       -16.9640    7.0280   37.6860 C.ar  224  HIS224      0.0817
     97  ND1      -16.6400    8.1660   38.2070 N.ar  224  HIS224     -0.2268
     98  CD2      -15.8090    6.3160   37.5750 C.ar  224  HIS224      0.1154
     99  CE1      -15.3650    8.1970   38.4400 C.ar  224  HIS224      0.1986
    100  NE2      -14.8530    7.0510   38.0720 N.ar  224  HIS224     -0.2212
    101  N        -18.3460   10.5400   39.2970 N.3   226  GLU226     -0.1245
    102  CA       -18.3670   10.4770   40.7470 C.3   226  GLU226      0.1567
    103  C        -17.4590   11.5840   41.3340 C.2   226  GLU226      0.2260
    104  O        -16.2670   11.6420   41.0410 O.2   226  GLU226     -0.2867
    105  CB       -17.8550    9.0990   41.2060 C.3   226  GLU226      0.0388
    106  CG       -17.9890    8.9060   42.7150 C.3   226  GLU226      0.1160
    107  CD       -17.3510    7.6510   43.2300 C.2   226  GLU226      0.3649
    108  OE1      -16.5980    7.0130   42.4590 O.co2 226  GLU226     -0.2457
    109  OE2      -17.5430    7.3350   44.4250 O.co2 226  GLU226     -0.2457
    110  N        -13.7680   12.8660   42.3080 N.3   229  TRP229     -0.1241
    111  CA       -12.9520   12.3930   41.1650 C.3   229  TRP229      0.1605
    112  C        -13.1580   13.1060   39.8720 C.2   229  TRP229      0.2264
    113  O        -12.2330   13.3340   39.1510 O.2   229  TRP229     -0.2867
    114  CB       -13.0420   10.8870   40.9790 C.3   229  TRP229      0.0550
    115  CG       -12.9480   10.2290   42.3030 C.ar  229  TRP229      0.0003
    116  CD1      -13.9020    9.5280   42.9880 C.ar  229  TRP229      0.0946
    117  CD2      -11.8390   10.3000   43.1960 C.ar  229  TRP229      0.0152
    118  NE1      -13.4580    9.1760   44.1830 N.ar  229  TRP229     -0.2442
    119  CE2      -12.2270    9.5850   44.3670 C.ar  229  TRP229      0.0810
    120  CE3      -10.5680   10.8270   43.1100 C.ar  229  TRP229      0.0012
    121  CZ2      -11.3870    9.4200   45.4130 C.ar  229  TRP229      0.0191
    122  CZ3       -9.7260   10.6690   44.1710 C.ar  229  TRP229      0.0001
    123  CH2      -10.1290    9.9820   45.3030 C.ar  229  TRP229      0.0015
    124  N        -10.9290   12.4800   34.5190 N.3   308  LEU308     -0.1245
    125  CA       -10.1050   11.9210   35.5850 C.3   308  LEU308      0.1561
    126  C         -8.6800   12.5120   35.6670 C.2   308  LEU308      0.2260
    127  O         -7.7460   11.9590   35.1760 O.2   308  LEU308     -0.2867
    128  CB       -10.0540   10.4130   35.4570 C.3   308  LEU308      0.0270
    129  CG       -11.0740    9.5750   36.1780 C.3   308  LEU308      0.0019
    130  CD1      -11.2930    9.8960   37.6080 C.3   308  LEU308      0.0001
    131  CD2      -12.3740    9.5530   35.4400 C.3   308  LEU308      0.0001
    132  N         -7.0320   12.9330   38.4280 N.3   310  LEU310     -0.1245
    133  CA        -6.4130   12.2750   39.5420 C.3   310  LEU310      0.1561
    134  C         -5.2990   13.1580   40.1350 C.2   310  LEU310      0.2260
    135  O         -4.2300   12.7370   40.3730 O.2   310  LEU310     -0.2867
    136  CB        -5.8640   10.9060   39.1500 C.3   310  LEU310      0.0270
    137  CG        -6.5680    9.5630   39.1920 C.3   310  LEU310      0.0019
    138  CD1       -8.0100    9.5590   39.5660 C.3   310  LEU310      0.0001
    139  CD2       -6.3370    8.7130   37.9590 C.3   310  LEU310      0.0001
    140  N         -5.0260   14.4050   42.9690 N.3   312  ILE312     -0.1231
    141  CA        -4.5370   14.0600   44.2920 C.3   312  ILE312      0.1692
    142  C         -3.1060   13.4930   44.2000 C.2   312  ILE312      0.2592
    143  O         -2.3280   13.5850   45.1750 O.2   312  ILE312     -0.2718
    144  CB        -5.4550   13.1420   45.1210 C.3   312  ILE312      0.0266
    145  CG1       -5.7340   11.8570   44.3960 C.3   312  ILE312      0.0019
    146  CG2       -6.7980   13.8140   45.4290 C.3   312  ILE312      0.0020
    147  CD1       -6.1240   10.7780   45.3820 C.3   312  ILE312      0.0001
    148  N         -2.7470   12.9640   43.0280 N.am  313  PHE313     -0.1976
    149  CA        -1.4280   12.3740   42.8950 C.3   313  PHE313      0.1639
    150  C         -0.4370   13.2940   42.2010 C.2   313  PHE313      0.2290
    151  O          0.6700   12.8470   41.8820 O.2   313  PHE313     -0.2864
    152  CB        -1.5340   11.0670   42.1490 C.3   313  PHE313      0.0560
    153  CG        -2.3650   10.0140   42.8480 C.ar  313  PHE313     -0.0200
    154  CD1       -1.9410    9.4420   44.0410 C.ar  313  PHE313     -0.0042
    155  CD2       -3.5440    9.5740   42.2910 C.ar  313  PHE313     -0.0042
    156  CE1       -2.7000    8.4490   44.6700 C.ar  313  PHE313     -0.0003
    157  CE2       -4.3030    8.6000   42.8990 C.ar  313  PHE313     -0.0003
    158  CZ        -3.8790    8.0290   44.0840 C.ar  313  PHE313     -0.0000
@<TRIPOS>BOND
     1    79    80    1
     2    82    81    2
     3    81    80    1
     4    80    83    1
     5    83    84    1
     6    84    86   ar
     7    84    85   ar
     8    86    88   ar
     9    85    87   ar
    10    88    89   ar
    11    87    89   ar
    12    89    90    1
    13   124   125    1
    14    91    92    1
    15   127   126    2
    16   131   129    1
    17   128   125    1
    18   128   129    1
    19   125   126    1
    20    92    93    1
    21    92    95    1
    22   129   130    1
    23    57    56    2
    24    93    94    2
    25    95    96    1
    26    31    30    1
    27    56    55    1
    28    98    96   ar
    29    98   100   ar
    30    96    97   ar
    31    55    54    1
    32    55    58    1
    33     1     2    1
    34   139   137    1
    35     4     3    2
    36   100    99   ar
    37    61    63   ar
    38    61    59   ar
    39    97    99   ar
    40    29    30   ar
    41    29    27   ar
    42    30    28   ar
    43   132   133    1
    44    63    62   ar
    45     5     2    1
    46     5     6    1
    47     2     3    1
    48    59    58    1
    49    59    60   ar
    50   136   137    1
    51   136   133    1
    52   113   112    2
    53   137   138    1
    54   101   102    1
    55    27    25   ar
    56    62    60   ar
    57   133   134    1
    58     8     6   ar
    59     8    10   ar
    60    28    26   ar
    61     6     7   ar
    62   112   111    1
    63   134   135    2
    64    25    26   ar
    65    25    24    1
    66    10    11   ar
    67   102   105    1
    68   102   103    1
    69   114   111    1
    70   114   115    1
    71     7     9   ar
    72   104   103    2
    73   111   110    1
    74   105   106    1
    75    24    21    1
    76   151   150    2
    77    11     9   ar
    78    11    12    1
    79   152   153    1
    80   152   149    1
    81   150   149    1
    82    52    50   ar
    83    52    53   ar
    84   155   153   ar
    85   155   157   ar
    86   115   116   ar
    87   115   117   ar
    88   108   107   ar
    89   106   107    1
    90    40    41    1
    91    19    17    1
    92    50    47   ar
    93   153   154   ar
    94   149   148    1
    95   157   158   ar
    96   140   141    1
    97   116   118   ar
    98   148   142   am
    99    53    51   ar
   100   120   117   ar
   101   120   122   ar
   102    21    20    1
   103    21    22    1
   104   117   119   ar
   105   107   109   ar
   106    41    42    1
   107    41    44    1
   108    20    15   am
   109    42    43    2
   110    13    14    1
   111   154   156   ar
   112   158   156   ar
   113    47    45   ar
   114    47    49   ar
   115   122   123   ar
   116   118   119   ar
   117   142   141    1
   118   142   143    2
   119    22    23    2
   120    22    32   am
   121    17    14    1
   122    17    18    1
   123   141   144    1
   124    15    14    1
   125    15    16    2
   126   119   121   ar
   127   145   144    1
   128   145   147    1
   129    44    45    1
   130    51    49   ar
   131    45    46   ar
   132    49    48   ar
   133    32    33    1
   134   144   146    1
   135   123   121   ar
   136    34    33    1
   137    34    35    2
   138    33    36    1
   139    46    48   ar
   140    36    37    1
   141    78    76    1
   142    76    75    1
   143    37    38    2
   144    37    39   am
   145    67    66    2
   146    68    69    1
   147    68    70    1
   148    68    65    1
   149    66    65    1
   150    66    71   am
   151    75    77    1
   152    75    72    1
   153    65    64    1
   154    72    71    1
   155    72    73    1
   156    73    74    2
