@<TRIPOS>MOLECULE
tmp/4l2hA00.pdb
 114 106 0 0 0
SMALL
GASTEIGER

@<TRIPOS>ATOM
      1  N         -6.0590    3.3920   -8.3080 N.3   138  LEU138     -0.1245
      2  CA        -4.6910    3.3190   -8.8050 C.3   138  LEU138      0.1561
      3  C         -4.2120    4.6590   -9.2570 C.2   138  LEU138      0.2260
      4  O         -3.0360    5.0340   -9.0490 O.2   138  LEU138     -0.2867
      5  CB        -4.5560    2.2520   -9.9000 C.3   138  LEU138      0.0270
      6  CG        -3.1800    2.0730  -10.4600 C.3   138  LEU138      0.0019
      7  CD1       -2.0790    1.7420   -9.4140 C.3   138  LEU138      0.0001
      8  CD2       -3.1480    1.0470  -11.5650 C.3   138  LEU138      0.0001
      9  N          4.7440    9.1260  -14.3720 N.3   148  ILE148     -0.1245
     10  CA         3.5310    8.3470  -14.2220 C.3   148  ILE148      0.1561
     11  C          2.6180    9.0640  -13.2370 C.2   148  ILE148      0.2260
     12  O          1.3950    9.1870  -13.4500 O.2   148  ILE148     -0.2867
     13  CB         3.8370    6.9270  -13.7570 C.3   148  ILE148      0.0252
     14  CG1        4.5910    6.1510  -14.8320 C.3   148  ILE148      0.0019
     15  CG2        2.5820    6.2480  -13.3600 C.3   148  ILE148      0.0019
     16  CD1        3.8560    6.0570  -16.2350 C.3   148  ILE148      0.0001
     17  N          1.0160   11.8570  -15.2420 N.3   151  ARG151     -0.1245
     18  CA        -0.0650   11.3480  -16.0920 C.3   151  ARG151      0.1563
     19  C         -1.3300   11.1760  -15.2520 C.2   151  ARG151      0.2260
     20  O         -2.4550   11.5820  -15.6620 O.2   151  ARG151     -0.2867
     21  CB         0.2470    9.9950  -16.6860 C.3   151  ARG151      0.0307
     22  CG         1.3630    9.8830  -17.7190 C.3   151  ARG151      0.0489
     23  CD         1.3940    8.5230  -18.3610 C.3   151  ARG151      0.2205
     24  NE         2.6340    8.3000  -19.0890 N.pl3 151  ARG151     -0.0865
     25  CZ         2.9440    7.1030  -19.5410 C.cat 151  ARG151      0.5346
     26  NH1        2.1170    6.0630  -19.4350 N.pl3 151  ARG151      0.1354
     27  NH2        4.1150    6.9030  -20.1010 N.pl3 151  ARG151      0.1354
     28  N         -8.1720   -0.8540  -27.0650 N.3   227  ASN227     -0.1240
     29  CA        -7.8070   -2.1990  -26.6670 C.3   227  ASN227      0.1653
     30  C         -9.0060   -3.1090  -26.7660 C.2   227  ASN227      0.2266
     31  O        -10.1320   -2.6550  -26.7000 O.2   227  ASN227     -0.2867
     32  CB        -7.3380   -2.1630  -25.1970 C.3   227  ASN227      0.1155
     33  CG        -6.5900   -3.3980  -24.7650 C.2   227  ASN227      0.2627
     34  OD1       -7.1800   -4.3630  -24.2970 O.2   227  ASN227     -0.2716
     35  ND2       -5.2850   -3.3970  -25.0080 N.am  227  ASN227     -0.0877
     36  N         -8.7670    0.1730  -22.3170 N.3   232  GLY232     -0.1210
     37  CA        -7.4060   -0.2370  -22.0330 C.3   232  GLY232      0.1956
     38  C         -6.9970    0.1820  -20.6300 C.2   232  GLY232      0.2612
     39  O         -7.7140    0.0040  -19.6420 O.2   232  GLY232     -0.2717
     40  N         -5.8170    0.8110  -20.5710 N.am  233  GLY233     -0.1956
     41  CA        -5.2300    1.3400  -19.3480 C.3   233  GLY233      0.1869
     42  C         -5.7320    2.6830  -18.8500 C.2   233  GLY233      0.2309
     43  O         -5.0390    3.3470  -18.0580 O.2   233  GLY233     -0.2863
     44  N         -5.3080    3.0250  -15.2050 N.3   236  GLY236     -0.1210
     45  CA        -3.9090    2.9500  -14.7890 C.3   236  GLY236      0.1956
     46  C         -3.0820    4.0420  -15.4270 C.2   236  GLY236      0.2612
     47  O         -3.3490    5.2490  -15.2030 O.2   236  GLY236     -0.2717
     48  N         -2.0540    3.6190  -16.2120 N.am  237  ASN237     -0.1960
     49  CA        -1.0630    4.5190  -16.7450 C.3   237  ASN237      0.1819
     50  C         -1.3130    4.9540  -18.1550 C.2   237  ASN237      0.2622
     51  O         -0.6370    5.8150  -18.6490 O.2   237  ASN237     -0.2715
     52  CB         0.3280    3.9360  -16.6250 C.3   237  ASN237      0.1195
     53  CG         0.7420    3.6840  -15.2100 C.2   237  ASN237      0.2630
     54  OD1        0.1110    4.1260  -14.2540 O.2   237  ASN237     -0.2716
     55  ND2        1.7880    2.8630  -15.0680 N.am  237  ASN237     -0.0877
     56  N         -2.3380    4.4080  -18.8100 N.am  238  GLY238     -0.1940
     57  CA        -2.5230    4.6590  -20.2290 C.3   238  GLY238      0.2014
     58  C         -2.8600    6.0970  -20.5310 C.2   238  GLY238      0.2639
     59  O         -3.7000    6.6720  -19.8080 O.2   238  GLY238     -0.2714
     60  N         -2.3200    6.6400  -21.6260 N.am  239  LEU239     -0.1963
     61  CA        -2.4840    8.0130  -21.9670 C.3   239  LEU239      0.1728
     62  C         -2.0750    8.2640  -23.4210 C.2   239  LEU239      0.2616
     63  O         -1.4140    9.2270  -23.7620 O.2   239  LEU239     -0.2715
     64  CB        -1.8550    8.9570  -20.9920 C.3   239  LEU239      0.0311
     65  CG        -2.4050   10.4010  -20.8930 C.3   239  LEU239      0.0022
     66  CD1       -3.9590   10.4940  -20.7910 C.3   239  LEU239      0.0001
     67  CD2       -1.7990   11.1560  -19.6590 C.3   239  LEU239      0.0001
     68  N         -2.5160    7.3550  -24.3100 N.am  240  VAL240     -0.1977
     69  CA        -2.4350    7.5350  -25.7440 C.3   240  VAL240      0.1596
     70  C         -3.8430    7.7200  -26.2950 C.2   240  VAL240      0.2287
     71  O         -4.6980    8.1930  -25.5600 O.2   240  VAL240     -0.2864
     72  CB        -1.5620    6.4680  -26.4520 C.3   240  VAL240      0.0276
     73  CG1       -0.1000    6.6540  -26.1010 C.3   240  VAL240      0.0022
     74  CG2       -2.0260    5.0690  -26.2170 C.3   240  VAL240      0.0022
     75  N         -6.7700    6.2760  -27.0710 N.3   242  GLU242     -0.1231
     76  CA        -7.9810    5.8220  -26.4550 C.3   242  GLU242      0.1699
     77  C         -8.1510    6.5270  -25.1110 C.2   242  GLU242      0.2592
     78  O         -9.2490    7.0110  -24.7450 O.2   242  GLU242     -0.2718
     79  CB        -8.0070    4.3050  -26.2030 C.3   242  GLU242      0.0402
     80  CG        -9.2300    3.8800  -25.3740 C.3   242  GLU242      0.1161
     81  CD        -9.5520    2.4230  -25.5360 C.2   242  GLU242      0.3649
     82  OE1       -8.6490    1.5140  -25.3530 O.co2 242  GLU242     -0.2457
     83  OE2      -10.7490    2.0740  -25.7850 O.co2 242  GLU242     -0.2457
     84  N         -7.1330    6.5470  -24.3070 N.am  243  GLN243     -0.1979
     85  CA        -7.2270    7.0910  -22.9570 C.3   243  GLN243      0.1601
     86  C         -7.4440    8.6020  -22.9700 C.2   243  GLN243      0.2287
     87  O         -8.1800    9.1350  -22.1410 O.2   243  GLN243     -0.2864
     88  CB        -6.0280    6.7270  -22.1070 C.3   243  GLN243      0.0394
     89  CG        -5.9410    5.2190  -21.7920 C.3   243  GLN243      0.0908
     90  CD        -5.3530    4.3830  -22.8780 C.2   243  GLN243      0.2608
     91  OE1       -4.4540    4.8470  -23.6060 O.2   243  GLN243     -0.2717
     92  NE2       -5.8530    3.1420  -23.0260 N.am  243  GLN243     -0.0878
     93  N          0.6820   11.3810  -24.0380 N.3   284  SER284     -0.1217
     94  CA         1.5230   10.5080  -23.1730 C.3   284  SER284      0.1889
     95  C          2.1360   11.3380  -22.0470 C.2   284  SER284      0.2288
     96  O          1.4000   12.0220  -21.3270 O.2   284  SER284     -0.2866
     97  CB         2.4300    9.6380  -23.9950 C.3   284  SER284      0.2089
     98  OG         3.2530    8.7880  -23.1910 O.3   284  SER284     -0.2183
     99  N          1.0620    2.3330  -30.3720 N.3   357  ALA357     -0.1231
    100  CA         1.3020    1.3140  -29.3690 C.3   357  ALA357      0.1694
    101  C          1.2330   -0.1080  -29.9420 C.2   357  ALA357      0.2592
    102  O          1.9750   -0.9910  -29.4740 O.2   357  ALA357     -0.2718
    103  CB         0.3260    1.4370  -28.1770 C.3   357  ALA357      0.0304
    104  N          0.3950   -0.3120  -30.9550 N.am  358  PHE358     -0.1976
    105  CA         0.2040   -1.6220  -31.5270 C.3   358  PHE358      0.1639
    106  C          1.1370   -1.9670  -32.7110 C.2   358  PHE358      0.2290
    107  O          1.0300   -3.0700  -33.2460 O.2   358  PHE358     -0.2864
    108  CB        -1.2570   -1.8500  -31.8360 C.3   358  PHE358      0.0560
    109  CG        -2.1390   -2.2610  -30.6730 C.ar  358  PHE358     -0.0200
    110  CD1       -1.6720   -2.3020  -29.3340 C.ar  358  PHE358     -0.0042
    111  CD2       -3.4730   -2.6160  -30.9270 C.ar  358  PHE358     -0.0042
    112  CE1       -2.4960   -2.7050  -28.3190 C.ar  358  PHE358     -0.0003
    113  CE2       -4.2920   -3.0570  -29.8670 C.ar  358  PHE358     -0.0003
    114  CZ        -3.8380   -3.0840  -28.5770 C.ar  358  PHE358     -0.0000
@<TRIPOS>BOND
     1   107   106    2
     2   106   105    1
     3   108   105    1
     4   108   109    1
     5   105   104    1
     6   104   101   am
     7   111   109   ar
     8   111   113   ar
     9   109   110   ar
    10    99   100    1
    11   101   102    2
    12   101   100    1
    13   113   114   ar
    14   100   103    1
    15   110   112   ar
    16   114   112   ar
    17    75    76    1
    18    28    29    1
    19    30    31    2
    20    30    29    1
    21    29    32    1
    22    76    79    1
    23    76    77    1
    24    72    74    1
    25    72    73    1
    26    72    69    1
    27    70    69    1
    28    70    71    2
    29    79    80    1
    30    83    81   ar
    31    69    68    1
    32    81    80    1
    33    81    82   ar
    34    32    33    1
    35    77    78    2
    36    77    84   am
    37    35    33   am
    38    33    34    2
    39    68    62   am
    40    84    85    1
    41    93    94    1
    42    97    98    1
    43    97    94    1
    44    63    62    2
    45    91    90    2
    46    62    61    1
    47    94    95    1
    48    92    90   am
    49    86    85    1
    50    86    87    2
    51    85    88    1
    52    90    89    1
    53    36    37    1
    54    88    89    1
    55    95    96    2
    56    37    38    1
    57    61    60    1
    58    61    64    1
    59    60    58   am
    60    64    65    1
    61    65    66    1
    62    65    67    1
    63    38    40   am
    64    38    39    2
    65    40    41    1
    66    58    57    1
    67    58    59    2
    68    57    56    1
    69    27    25    1
    70    25    26    1
    71    25    24    2
    72    41    42    1
    73    24    23    1
    74    42    43    2
    75    56    50   am
    76    51    50    2
    77    23    22    1
    78    50    49    1
    79    22    21    1
    80    49    52    1
    81    49    48    1
    82    21    18    1
    83    52    53    1
    84    16    14    1
    85    48    46   am
    86    18    19    1
    87    18    17    1
    88    20    19    2
    89    46    47    2
    90    46    45    1
    91    53    55   am
    92    53    54    2
    93    44    45    1
    94    14    13    1
    95     9    10    1
    96    10    13    1
    97    10    11    1
    98    13    15    1
    99    12    11    2
   100     8     6    1
   101     6     5    1
   102     6     7    1
   103     5     2    1
   104     3     4    2
   105     3     2    1
   106     2     1    1
