@<TRIPOS>MOLECULE
tmp/4l2iA00.pdb
 199 191 0 0 0
SMALL
GASTEIGER

@<TRIPOS>ATOM
      1  N         14.8510   52.3020   13.7270 N.3   224  GLY224     -0.1210
      2  CA        13.9950   52.3820   14.8890 C.3   224  GLY224      0.1956
      3  C         13.8740   53.7640   15.4610 C.2   224  GLY224      0.2612
      4  O         14.2600   54.7950   14.8020 O.2   224  GLY224     -0.2717
      5  N         13.4290   53.7840   16.7080 N.am  225  ARG225     -0.1965
      6  CA        13.2680   55.0480   17.4630 C.3   225  ARG225      0.1729
      7  C         14.6450   55.8050   17.5330 C.2   225  ARG225      0.2616
      8  O         14.6970   57.0410   17.4820 O.2   225  ARG225     -0.2715
      9  CB        12.7460   54.7720   18.8630 C.3   225  ARG225      0.0348
     10  CG        12.5100   55.9770   19.6640 C.3   225  ARG225      0.0492
     11  CD        11.8020   55.7850   20.9950 C.3   225  ARG225      0.2205
     12  NE        10.4250   55.6520   20.8040 N.pl3 225  ARG225     -0.0865
     13  CZ         9.6830   54.5670   21.0220 C.cat 225  ARG225      0.5346
     14  NH1       10.2020   53.4290   21.4710 N.pl3 225  ARG225      0.1354
     15  NH2        8.3900   54.6350   20.7890 N.pl3 225  ARG225      0.1354
     16  N         15.7440   55.0540   17.5570 N.am  226  GLY226     -0.1955
     17  CA        17.0510   55.6380   17.5710 C.3   226  GLY226      0.1869
     18  C         17.5250   56.3280   16.3520 C.2   226  GLY226      0.2309
     19  O         18.5970   56.9590   16.4470 O.2   226  GLY226     -0.2863
     20  N         15.8650   58.9410   15.4640 N.3   228  LYS228     -0.1245
     21  CA        15.6280   60.2770   16.0360 C.3   228  LYS228      0.1561
     22  C         14.6840   61.1690   15.2930 C.2   228  LYS228      0.2260
     23  O         14.0300   62.0150   15.9700 O.2   228  LYS228     -0.2867
     24  CB        16.9900   61.0350   16.2640 C.3   228  LYS228      0.0271
     25  CG        18.0270   60.2220   17.0360 C.3   228  LYS228      0.0035
     26  CD        17.4970   59.6220   18.3090 C.3   228  LYS228      0.0206
     27  CE        17.0280   60.5770   19.3610 C.3   228  LYS228      0.1093
     28  NZ        18.1160   61.3780   19.9580 N.3   228  LYS228     -0.1314
     29  N         11.1000   49.6160   12.5900 N.3   250  SER250     -0.1202
     30  CA        10.4080   49.0380   13.7460 C.3   250  SER250      0.2020
     31  C          8.9330   49.6120   13.8500 C.2   250  SER250      0.2619
     32  O          8.6410   50.6170   13.1990 O.2   250  SER250     -0.2717
     33  CB        11.1010   49.2670   15.0800 C.3   250  SER250      0.2103
     34  OG        11.0930   50.6570   15.3970 O.3   250  SER250     -0.2182
     35  N          8.0930   48.9720   14.6570 N.am  251  ARG251     -0.1965
     36  CA         6.7220   49.5000   14.9620 C.3   251  ARG251      0.1729
     37  C          6.8930   50.8340   15.6560 C.2   251  ARG251      0.2616
     38  O          6.0610   51.6960   15.4490 O.2   251  ARG251     -0.2715
     39  CB         6.0720   48.4750   15.8260 C.3   251  ARG251      0.0348
     40  CG         4.5720   48.8420   15.8380 C.3   251  ARG251      0.0492
     41  CD         3.6600   47.8780   16.6680 C.3   251  ARG251      0.2205
     42  NE         3.8160   48.1390   18.0840 N.pl3 251  ARG251     -0.0865
     43  CZ         3.0960   47.6190   19.0700 C.cat 251  ARG251      0.5346
     44  NH1        2.1810   46.6980   18.7720 N.pl3 251  ARG251      0.1354
     45  NH2        3.2690   47.9940   20.3470 N.pl3 251  ARG251      0.1354
     46  N          8.0260   51.0430   16.4190 N.am  252  ALA252     -0.1977
     47  CA         8.2270   52.3490   17.0820 C.3   252  ALA252      0.1597
     48  C          8.4630   53.4230   16.0610 C.2   252  ALA252      0.2287
     49  O          7.8990   54.5540   16.1650 O.2   252  ALA252     -0.2864
     50  CB         9.3320   52.3100   18.1320 C.3   252  ALA252      0.0319
     51  N          7.1570   48.1440    8.0800 N.3   264  GLN264     -0.1231
     52  CA         7.3490   47.6070    9.4350 C.3   264  GLN264      0.1698
     53  C          7.7700   46.1370    9.3770 C.2   264  GLN264      0.2592
     54  O          7.1670   45.3040    8.6740 O.2   264  GLN264     -0.2718
     55  CB         6.1390   47.7490   10.3080 C.3   264  GLN264      0.0381
     56  CG         6.1900   47.2430   11.7190 C.3   264  GLN264      0.0905
     57  CD         4.8540   47.4170   12.3940 C.2   264  GLN264      0.2608
     58  OE1        4.3080   48.5380   12.3540 O.2   264  GLN264     -0.2717
     59  NE2        4.4600   46.4100   13.1650 N.am  264  GLN264     -0.0878
     60  N          8.8500   45.8590   10.1290 N.am  265  VAL265     -0.1966
     61  CA         9.3190   44.4990   10.3170 C.3   265  VAL265      0.1727
     62  C          8.9930   44.0270   11.7080 C.2   265  VAL265      0.2617
     63  O          9.0740   44.7940   12.6690 O.2   265  VAL265     -0.2715
     64  CB        10.8620   44.4850   10.1390 C.3   265  VAL265      0.0290
     65  CG1       11.4760   43.1480   10.5920 C.3   265  VAL265      0.0023
     66  CG2       11.1760   44.8890    8.7160 C.3   265  VAL265      0.0023
     67  N          8.5220   42.7640   11.8190 N.am  266  GLY266     -0.1940
     68  CA         8.2630   42.1590   13.0970 C.3   266  GLY266      0.2014
     69  C          6.9790   41.2640   13.0370 C.2   266  GLY266      0.2639
     70  O          6.4350   41.0620   11.9320 O.2   266  GLY266     -0.2714
     71  N          6.6530   40.7510   14.1820 N.am  267  GLN267     -0.1963
     72  CA         5.4810   39.8050   14.2290 C.3   267  GLN267      0.1733
     73  C          4.1570   40.4050   13.7140 C.2   267  GLN267      0.2617
     74  O          3.3820   39.6290   13.1510 O.2   267  GLN267     -0.2715
     75  CB         5.3260   39.2520   15.5800 C.3   267  GLN267      0.0408
     76  CG         4.9310   40.1890   16.6310 C.3   267  GLN267      0.0908
     77  CD         4.8030   39.5560   18.0120 C.2   267  GLN267      0.2608
     78  OE1        5.7640   39.0150   18.5330 O.2   267  GLN267     -0.2717
     79  NE2        3.6110   39.6650   18.6310 N.am  267  GLN267     -0.0878
     80  N          3.9690   41.7200   13.8400 N.am  268  SER268     -0.1936
     81  CA         2.6730   42.3850   13.3920 C.3   268  SER268      0.2055
     82  C          2.8630   43.0180   12.0040 C.2   268  SER268      0.2643
     83  O          1.9520   43.5860   11.4370 O.2   268  SER268     -0.2714
     84  CB         2.3440   43.4740   14.3790 C.3   268  SER268      0.2130
     85  OG         2.2300   42.9430   15.6560 O.3   268  SER268     -0.2179
     86  N          4.1160   43.0040   11.5260 N.am  269  GLY269     -0.1954
     87  CA         4.4700   43.4840   10.2030 C.3   269  GLY269      0.1869
     88  C          4.9710   42.3340    9.3130 C.2   269  GLY269      0.2309
     89  O          4.4520   41.2210    9.2650 O.2   269  GLY269     -0.2863
     90  N         19.4090   51.8160   15.3710 N.3   281  GLY281     -0.1210
     91  CA        18.6210   52.4670   16.3710 C.3   281  GLY281      0.1956
     92  C         17.3700   51.6410   16.7180 C.2   281  GLY281      0.2612
     93  O         16.2470   52.1880   17.0230 O.2   281  GLY281     -0.2717
     94  N         17.5850   50.3050   16.7430 N.am  282  ILE282     -0.1965
     95  CA        16.4430   49.3210   17.0240 C.3   282  ILE282      0.1727
     96  C         16.9700   48.4960   18.2060 C.2   282  ILE282      0.2617
     97  O         18.0580   47.8390   18.1020 O.2   282  ILE282     -0.2715
     98  CB        16.1930   48.4200   15.8240 C.3   282  ILE282      0.0290
     99  CG1       15.7020   49.1990   14.6290 C.3   282  ILE282      0.0022
    100  CG2       15.2730   47.2460   16.1590 C.3   282  ILE282      0.0023
    101  CD1       15.4660   48.4550   13.3470 C.3   282  ILE282      0.0001
    102  N         16.2930   48.5220   19.3260 N.am  283  SER283     -0.1936
    103  CA        16.7060   47.7990   20.5110 C.3   283  SER283      0.2055
    104  C         16.7950   46.2870   20.3570 C.2   283  SER283      0.2644
    105  O         17.6840   45.6500   20.9890 O.2   283  SER283     -0.2714
    106  CB        15.9530   48.1570   21.7250 C.3   283  SER283      0.2130
    107  OG        14.6010   47.7470   21.5270 O.3   283  SER283     -0.2179
    108  N         15.9050   45.7200   19.5410 N.am  284  GLY284     -0.1939
    109  CA        15.7810   44.2700   19.3960 C.3   284  GLY284      0.2014
    110  C         14.8280   43.6380   20.3950 C.2   284  GLY284      0.2639
    111  O         15.0050   42.6340   21.0500 O.2   284  GLY284     -0.2714
    112  N         13.6630   44.2940   20.4600 N.am  285  SER285     -0.1949
    113  CA        12.4590   43.6860   21.1590 C.3   285  SER285      0.1924
    114  C         12.1890   42.2940   20.5620 C.2   285  SER285      0.2314
    115  O         12.4560   42.0520   19.3580 O.2   285  SER285     -0.2863
    116  CB        11.1230   44.5040   20.9990 C.3   285  SER285      0.2116
    117  OG        10.7570   44.5450   19.6390 O.3   285  SER285     -0.2180
    118  N          9.3600   41.1710   19.6460 N.3   287  GLN287     -0.1231
    119  CA         8.4150   41.3390   18.5810 C.3   287  GLN287      0.1698
    120  C          9.0110   41.7930   17.2940 C.2   287  GLN287      0.2592
    121  O          8.6020   41.4200   16.2100 O.2   287  GLN287     -0.2718
    122  CB         7.2340   42.2370   19.0200 C.3   287  GLN287      0.0381
    123  CG         6.4900   41.7460   20.2980 C.3   287  GLN287      0.0905
    124  CD         7.0930   42.3130   21.5580 C.2   287  GLN287      0.2608
    125  OE1        8.1440   42.9920   21.5390 O.2   287  GLN287     -0.2717
    126  NE2        6.4310   42.1260   22.6470 N.am  287  GLN287     -0.0878
    127  N         10.1180   42.5730   17.3970 N.am  288  HIS288     -0.1976
    128  CA        10.8500   42.9410   16.2050 C.3   288  HIS288      0.1656
    129  C         11.6960   41.7780   15.6590 C.2   288  HIS288      0.2291
    130  O         11.6930   41.5160   14.5000 O.2   288  HIS288     -0.2864
    131  CB        11.8800   44.1310   16.4610 C.3   288  HIS288      0.0771
    132  CG        12.3480   44.7160   15.1850 C.ar  288  HIS288      0.0820
    133  ND1       11.6420   45.6060   14.4030 N.ar  288  HIS288     -0.2267
    134  CD2       13.5260   44.4890   14.5250 C.ar  288  HIS288      0.1154
    135  CE1       12.3360   45.8840   13.3160 C.ar  288  HIS288      0.1986
    136  NE2       13.4980   45.2080   13.3740 N.ar  288  HIS288     -0.2212
    137  N         23.8160   48.6400   14.6330 N.3   301  ILE301     -0.1231
    138  CA        24.3500   49.9480   14.8820 C.3   301  ILE301      0.1692
    139  C         23.5000   50.6680   15.9270 C.2   301  ILE301      0.2592
    140  O         22.2920   50.9820   15.6850 O.2   301  ILE301     -0.2718
    141  CB        24.4110   50.7600   13.6050 C.3   301  ILE301      0.0266
    142  CG1       25.2670   50.0800   12.5510 C.3   301  ILE301      0.0019
    143  CG2       25.0340   52.1660   13.8750 C.3   301  ILE301      0.0020
    144  CD1       25.0950   50.6820   11.1700 C.3   301  ILE301      0.0001
    145  N         23.9720   50.7720   17.1380 N.am  302  ASN302     -0.1960
    146  CA        23.2180   51.1550   18.2860 C.3   302  ASN302      0.1819
    147  C         24.0260   51.8100   19.3150 C.2   302  ASN302      0.2621
    148  O         25.1520   51.3120   19.5700 O.2   302  ASN302     -0.2715
    149  CB        22.4600   49.9180   18.8840 C.3   302  ASN302      0.1195
    150  CG        21.3270   50.3180   19.8080 C.2   302  ASN302      0.2630
    151  OD1       21.5250   50.9950   20.8460 O.2   302  ASN302     -0.2716
    152  ND2       20.1440   49.7590   19.4850 N.am  302  ASN302     -0.0877
    153  N         23.6010   52.8960   19.9540 N.am  303  LYS303     -0.1963
    154  CA        24.3300   53.5950   20.9720 C.3   303  LYS303      0.1728
    155  C         24.5610   52.7870   22.2650 C.2   303  LYS303      0.2616
    156  O         25.4470   53.1200   23.0380 O.2   303  LYS303     -0.2715
    157  CB        23.7690   54.9910   21.3090 C.3   303  LYS303      0.0311
    158  CG        24.1570   56.1290   20.3880 C.3   303  LYS303      0.0038
    159  CD        23.7710   57.5150   20.9490 C.3   303  LYS303      0.0206
    160  CE        24.9960   58.4290   20.9510 C.3   303  LYS303      0.1093
    161  NZ        24.6150   59.8240   20.6590 N.3   303  LYS303     -0.1314
    162  N         23.7070   51.7630   22.5120 N.am  304  ASP304     -0.1971
    163  CA        23.7080   51.0470   23.7590 C.3   304  ASP304      0.1709
    164  C         24.3300   49.6900   23.5780 C.2   304  ASP304      0.2293
    165  O         23.7520   48.8790   22.8760 O.2   304  ASP304     -0.2864
    166  CB        22.2470   50.8600   24.2010 C.3   304  ASP304      0.1436
    167  CG        22.0810   50.0250   25.4800 C.2   304  ASP304      0.3671
    168  OD1       23.0270   49.6840   26.1720 O.co2 304  ASP304     -0.2456
    169  OD2       20.9310   49.7450   25.8230 O.co2 304  ASP304     -0.2456
    170  N         22.0350   46.6620   24.0920 N.3   307  ALA307     -0.1245
    171  CA        20.8600   46.4810   23.2540 C.3   307  ALA307      0.1562
    172  C         20.7070   44.9860   22.9420 C.2   307  ALA307      0.2260
    173  O         21.6510   44.3010   22.5620 O.2   307  ALA307     -0.2867
    174  CB        20.8840   47.2960   22.0070 C.3   307  ALA307      0.0290
    175  N         27.6870   53.0120   18.7460 N.3   319  GLY319     -0.1210
    176  CA        27.8660   54.4540   18.4120 C.3   319  GLY319      0.1956
    177  C         26.5410   55.0470   17.8330 C.2   319  GLY319      0.2612
    178  O         25.5450   54.3960   17.8080 O.2   319  GLY319     -0.2717
    179  N         26.6470   56.2580   17.3380 N.am  320  ASP320     -0.1959
    180  CA        25.5880   57.0820   16.8670 C.3   320  ASP320      0.1840
    181  C         25.3470   56.7900   15.4080 C.2   320  ASP320      0.2622
    182  O         26.1830   57.0990   14.5460 O.2   320  ASP320     -0.2715
    183  CB        25.9640   58.5480   17.0690 C.3   320  ASP320      0.1450
    184  CG        24.8760   59.5190   16.6890 C.2   320  ASP320      0.3671
    185  OD1       23.8210   59.1380   16.1070 O.co2 320  ASP320     -0.2456
    186  OD2       25.1040   60.7060   16.9640 O.co2 320  ASP320     -0.2456
    187  N         24.1590   56.1750   15.1230 N.am  321  ALA321     -0.1963
    188  CA        23.8430   55.8480   13.7450 C.3   321  ALA321      0.1728
    189  C         23.8740   57.0560   12.7850 C.2   321  ALA321      0.2616
    190  O         24.1330   56.8970   11.5760 O.2   321  ALA321     -0.2715
    191  CB        22.5060   55.1300   13.6500 C.3   321  ALA321      0.0334
    192  N         23.6060   58.2480   13.3330 N.am  322  LEU322     -0.1977
    193  CA        23.5740   59.4240   12.5070 C.3   322  LEU322      0.1596
    194  C         25.0120   59.8420   12.0180 C.2   322  LEU322      0.2287
    195  O         25.1310   60.4550   10.9600 O.2   322  LEU322     -0.2864
    196  CB        22.9040   60.5660   13.2750 C.3   322  LEU322      0.0297
    197  CG        21.4320   60.2840   13.7770 C.3   322  LEU322      0.0022
    198  CD1       20.9020   61.5680   14.4050 C.3   322  LEU322      0.0001
    199  CD2       20.5080   59.6680   12.7300 C.3   322  LEU322      0.0001
@<TRIPOS>BOND
     1    51    52    1
     2    54    53    2
     3    66    64    1
     4    89    88    2
     5    88    87    1
     6    53    52    1
     7    53    60   am
     8    52    55    1
     9    60    61    1
    10    64    61    1
    11    64    65    1
    12    87    86    1
    13    55    56    1
    14    61    62    1
    15   195   194    2
    16   144   142    1
    17    83    82    2
    18    86    82   am
    19   190   189    2
    20    62    67   am
    21    62    63    2
    22    56    57    1
    23    67    68    1
    24    70    69    2
    25    82    81    1
    26   194   193    1
    27    58    57    2
    28    57    59   am
    29   193   196    1
    30   193   192    1
    31   142   141    1
    32    29    30    1
    33   199   197    1
    34   189   192   am
    35   189   188    1
    36    69    68    1
    37    69    71   am
    38    74    73    2
    39    32    31    2
    40   196   197    1
    41   135   136   ar
    42   135   133   ar
    43   101    99    1
    44   136   134   ar
    45    81    80    1
    46    81    84    1
    47   141   143    1
    48   141   138    1
    49   191   188    1
    50    73    80   am
    51    73    72    1
    52     1     2    1
    53   188   187    1
    54    30    31    1
    55    30    33    1
    56   197   198    1
    57    31    35   am
    58    71    72    1
    59    72    75    1
    60    84    85    1
    61   133   132   ar
    62   130   129    2
    63   134   132   ar
    64   182   181    2
    65    99    98    1
    66   137   138    1
    67    35    36    1
    68     4     3    2
    69   138   139    1
    70     2     3    1
    71    36    37    1
    72    36    39    1
    73    33    34    1
    74   187   181   am
    75   132   131    1
    76    22    23    2
    77    22    21    1
    78    90    91    1
    79   181   180    1
    80    38    37    2
    81     3     5   am
    82    20    21    1
    83    75    76    1
    84    37    46   am
    85   129   128    1
    86   140   139    2
    87    98   100    1
    88    98    95    1
    89    39    40    1
    90    40    41    1
    91   139   145   am
    92    21    24    1
    93    48    49    2
    94    48    47    1
    95   185   184   ar
    96   128   131    1
    97   128   127    1
    98   121   120    2
    99    24    25    1
   100    18    19    2
   101    18    17    1
   102    91    92    1
   103    46    47    1
   104    76    77    1
   105    41    42    1
   106   184   186   ar
   107   184   183    1
   108     5     6    1
   109    92    94   am
   110    92    93    2
   111    94    95    1
   112   180   183    1
   113   180   179    1
   114    95    96    1
   115    25    26    1
   116    47    50    1
   117   145   146    1
   118   120   127   am
   119   120   119    1
   120   179   177   am
   121     6     7    1
   122     6     9    1
   123     8     7    2
   124     7    16   am
   125    16    17    1
   126   178   177    2
   127   177   176    1
   128    77    78    2
   129    77    79   am
   130    42    43    2
   131    97    96    2
   132    96   102   am
   133   146   149    1
   134   146   147    1
   135    26    27    1
   136   176   175    1
   137   119   122    1
   138   119   118    1
   139    44    43    1
   140     9    10    1
   141   149   150    1
   142   122   123    1
   143    43    45    1
   144   147   148    2
   145   147   153   am
   146   102   103    1
   147   115   114    2
   148    27    28    1
   149   109   108    1
   150   109   110    1
   151   152   150   am
   152   108   104   am
   153   117   116    1
   154    10    11    1
   155   150   151    2
   156   153   154    1
   157   123   124    1
   158   104   103    1
   159   104   105    2
   160   158   159    1
   161   158   157    1
   162   110   112   am
   163   110   111    2
   164   112   113    1
   165   103   106    1
   166   114   113    1
   167   161   160    1
   168    15    13    1
   169    12    11    1
   170    12    13    2
   171   159   160    1
   172   154   157    1
   173   154   155    1
   174   116   113    1
   175    13    14    1
   176   107   106    1
   177   125   124    2
   178   124   126   am
   179   174   171    1
   180   155   162   am
   181   155   156    2
   182   162   163    1
   183   173   172    2
   184   165   164    2
   185   172   171    1
   186   171   170    1
   187   164   163    1
   188   163   166    1
   189   166   167    1
   190   167   169   ar
   191   167   168   ar
