@<TRIPOS>MOLECULE
tmp/4l2iB01.pdb
 195 182 0 0 0
SMALL
GASTEIGER

@<TRIPOS>ATOM
      1  N        -13.9150   38.7460   22.3120 N.3     6  CYS6       -0.1221
      2  CA       -13.3580   37.4410   22.7190 C.3     6  CYS6        0.1808
      3  C        -11.9550   37.6680   23.3030 C.2     6  CYS6        0.2601
      4  O        -11.0720   38.2260   22.5430 O.2     6  CYS6       -0.2717
      5  CB       -13.2990   36.5550   21.5050 C.3     6  CYS6        0.0970
      6  SG       -14.9730   36.2000   20.8590 S.3     6  CYS6       -0.0800
      7  N        -11.8170   37.3850   24.5790 N.am    7  VAL7       -0.1965
      8  CA       -10.4710   37.6630   25.2150 C.3     7  VAL7        0.1727
      9  C         -9.9630   36.3580   25.8010 C.2     7  VAL7        0.2616
     10  O        -10.6750   35.4880   26.2450 O.2     7  VAL7       -0.2715
     11  CB       -10.6080   38.7360   26.3120 C.3     7  VAL7        0.0290
     12  CG1      -11.2260   40.0250   25.7440 C.3     7  VAL7        0.0023
     13  CG2      -11.4350   38.2820   27.4770 C.3     7  VAL7        0.0023
     14  N         -8.6320   36.2590   25.8030 N.am    8  LYS8       -0.1977
     15  CA        -7.8780   35.0430   26.2790 C.3     8  LYS8        0.1596
     16  C         -6.7470   35.4740   27.2670 C.2     8  LYS8        0.2287
     17  O         -5.9720   36.3800   26.9320 O.2     8  LYS8       -0.2864
     18  CB        -7.2740   34.3050   25.0880 C.3     8  LYS8        0.0298
     19  CG        -6.8050   32.9110   25.4030 C.3     8  LYS8        0.0038
     20  CD        -5.8200   32.3120   24.3780 C.3     8  LYS8        0.0206
     21  CE        -5.5600   30.8790   24.6840 C.3     8  LYS8        0.1093
     22  NZ        -4.4580   30.2970   23.9040 N.3     8  LYS8       -0.1314
     23  N         -4.0080   38.5700   26.7680 N.3    35  ASN35      -0.1240
     24  CA        -3.4160   38.5300   25.4450 C.3    35  ASN35       0.1653
     25  C         -3.2970   39.9030   24.8440 C.2    35  ASN35       0.2266
     26  O         -4.2830   40.6400   24.8240 O.2    35  ASN35      -0.2867
     27  CB        -4.1570   37.5780   24.5120 C.3    35  ASN35       0.1155
     28  CG        -3.5960   37.4950   23.1460 C.2    35  ASN35       0.2627
     29  OD1       -2.3430   37.2420   23.0490 O.2    35  ASN35      -0.2716
     30  ND2       -4.3320   37.6630   22.1010 N.am   35  ASN35      -0.0877
     31  N         -5.7180   41.0700   22.2590 N.3    38  ASP38      -0.1239
     32  CA        -7.0630   41.1750   22.8810 C.3    38  ASP38       0.1674
     33  C         -7.1780   42.4650   23.5940 C.2    38  ASP38       0.2266
     34  O         -8.2710   43.0640   23.6280 O.2    38  ASP38      -0.2867
     35  CB        -7.3880   39.9970   23.7830 C.3    38  ASP38       0.1410
     36  CG        -7.3760   38.7050   23.0230 C.2    38  ASP38       0.3668
     37  OD1       -7.3690   38.7190   21.7990 O.co2  38  ASP38      -0.2456
     38  OD2       -7.3770   37.6630   23.6830 O.co2  38  ASP38      -0.2456
     39  N        -16.0350   37.8890   26.7270 N.3    59  ILE59      -0.1231
     40  CA       -16.2390   36.4940   27.0130 C.3    59  ILE59       0.1692
     41  C        -14.8790   35.7730   26.8560 C.2    59  ILE59       0.2593
     42  O        -14.1300   35.9460   25.8610 O.2    59  ILE59      -0.2718
     43  CB       -17.2020   35.8660   26.0110 C.3    59  ILE59       0.0266
     44  CG1      -18.4990   36.6740   25.9450 C.3    59  ILE59       0.0019
     45  CG2      -17.5180   34.4160   26.3300 C.3    59  ILE59       0.0020
     46  CD1      -19.6400   36.1310   25.0850 C.3    59  ILE59       0.0001
     47  N        -14.5880   34.9130   27.8430 N.am   60  THR60      -0.1939
     48  CA       -13.4480   33.9800   27.6810 C.3    60  THR60       0.2028
     49  C        -13.7710   32.5580   28.0130 C.2    60  THR60       0.2642
     50  O        -14.6130   32.3090   28.9240 O.2    60  THR60      -0.2714
     51  CB       -12.2390   34.4190   28.5440 C.3    60  THR60       0.1808
     52  OG1      -11.0850   33.7180   28.0710 O.3    60  THR60      -0.2208
     53  CG2      -12.4040   34.0750   29.9710 C.3    60  THR60       0.0379
     54  N        -13.1140   31.6340   27.2910 N.am   61  MET61      -0.1976
     55  CA       -13.1280   30.1840   27.5460 C.3    61  MET61       0.1605
     56  C        -11.8090   29.8400   28.2480 C.2    61  MET61       0.2287
     57  O        -10.7550   29.8060   27.6080 O.2    61  MET61      -0.2864
     58  CB       -13.3040   29.3560   26.2240 C.3    61  MET61       0.0413
     59  CG       -13.5480   27.8210   26.3850 C.3    61  MET61       0.0598
     60  SD       -13.1910   26.9040   24.8820 S.3    61  MET61      -0.1393
     61  CE       -11.3700   26.7070   24.9410 C.3    61  MET61       0.0692
     62  N         -8.8070   21.8280   24.1210 N.3    92  ALA92      -0.1231
     63  CA        -9.3660   22.2330   22.8480 C.3    92  ALA92       0.1694
     64  C         -8.3370   22.7660   21.8510 C.2    92  ALA92       0.2592
     65  O         -7.6030   23.6940   22.2520 O.2    92  ALA92      -0.2718
     66  CB       -10.4650   23.3220   23.1180 C.3    92  ALA92       0.0304
     67  N         -8.3810   22.3060   20.6020 N.am   93  ASP93      -0.1960
     68  CA        -7.7870   22.9630   19.5000 C.3    93  ASP93       0.1840
     69  C         -8.5720   24.1470   18.9990 C.2    93  ASP93       0.2622
     70  O         -9.5530   24.5530   19.6700 O.2    93  ASP93      -0.2715
     71  CB        -7.2870   21.9900   18.4270 C.3    93  ASP93       0.1450
     72  CG        -8.3710   21.5530   17.4260 C.2    93  ASP93       0.3671
     73  OD1       -9.5860   22.0090   17.6050 O.co2  93  ASP93      -0.2456
     74  OD2       -8.0390   20.9180   16.4120 O.co2  93  ASP93      -0.2456
     75  N         -8.1950   24.7590   17.9050 N.am   94  THR94      -0.1951
     76  CA        -8.8770   25.9980   17.5280 C.3    94  THR94       0.1897
     77  C        -10.2780   25.7200   17.0340 C.2    94  THR94       0.2313
     78  O        -11.0990   26.6070   17.2470 O.2    94  THR94      -0.2863
     79  CB        -8.0870   26.8070   16.4450 C.3    94  THR94       0.1794
     80  OG1       -7.9430   26.0170   15.2350 O.3    94  THR94      -0.2208
     81  CG2       -6.7590   27.3170   17.0080 C.3    94  THR94       0.0378
     82  N        -12.2740   25.3280   20.2660 N.3    97  THR97      -0.1218
     83  CA       -12.3590   26.5780   20.9490 C.3    97  THR97       0.1862
     84  C        -13.3390   27.4890   20.2310 C.2    97  THR97       0.2287
     85  O        -14.2140   28.0780   20.9160 O.2    97  THR97      -0.2866
     86  CB       -10.9520   27.2870   20.9670 C.3    97  THR97       0.1770
     87  OG1       -9.9250   26.4740   21.6240 O.3    97  THR97      -0.2211
     88  CG2      -11.0730   28.6230   21.6200 C.3    97  THR97       0.0375
     89  N        -16.9380   29.0110   21.6450 N.3   101  MET101     -0.1245
     90  CA       -17.1360   30.4600   21.6820 C.3   101  MET101      0.1570
     91  C        -18.3660   30.8010   20.8090 C.2   101  MET101      0.2261
     92  O        -19.1780   31.6980   21.1780 O.2   101  MET101     -0.2867
     93  CB       -15.8140   31.2060   21.2450 C.3   101  MET101      0.0387
     94  CG       -14.7990   31.1880   22.3260 C.3   101  MET101      0.0595
     95  SD       -15.2520   31.9960   23.8480 S.3   101  MET101     -0.1393
     96  CE       -15.4680   33.6940   23.3530 C.3   101  MET101      0.0692
     97  N        -12.0250   40.1480   17.9740 N.3   116  CYS116     -0.1221
     98  CA       -11.0080   39.1820   18.4530 C.3   116  CYS116      0.1808
     99  C         -9.6480   39.8420   18.2500 C.2   116  CYS116      0.2602
    100  O         -9.4300   40.6010   17.3550 O.2   116  CYS116     -0.2717
    101  CB       -11.0730   37.8720   17.7070 C.3   116  CYS116      0.0970
    102  SG       -12.6630   37.0310   17.7820 S.3   116  CYS116     -0.0800
    103  N         -8.7450   39.3150   19.0350 N.am  117  GLY117     -0.1942
    104  CA        -7.3270   39.6260   18.6740 C.3   117  GLY117      0.2014
    105  C         -6.9770   38.9790   17.3710 C.2   117  GLY117      0.2639
    106  O         -7.5120   37.9050   17.0280 O.2   117  GLY117     -0.2714
    107  N         -5.9030   39.4680   16.7390 N.am  118  ARG118     -0.1963
    108  CA        -5.3760   38.8330   15.5100 C.3   118  ARG118      0.1729
    109  C         -4.9170   37.3850   15.7890 C.2   118  ARG118      0.2616
    110  O         -5.1650   36.4820   15.0000 O.2   118  ARG118     -0.2715
    111  CB        -4.3060   39.6720   14.8300 C.3   118  ARG118      0.0348
    112  CG        -3.9020   39.1580   13.4620 C.3   118  ARG118      0.0492
    113  CD        -2.7340   38.1750   13.4590 C.3   118  ARG118      0.2205
    114  NE        -2.3830   37.8830   12.0800 N.pl3 118  ARG118     -0.0865
    115  CZ        -1.1490   37.5080   11.6480 C.cat 118  ARG118      0.5346
    116  NH1       -0.9280   37.4340   10.3500 N.pl3 118  ARG118      0.1354
    117  NH2       -0.1470   37.3090   12.4810 N.pl3 118  ARG118      0.1354
    118  N         -4.1930   37.2700   16.8900 N.am  119  GLN119     -0.1963
    119  CA        -3.7030   35.9900   17.4000 C.3   119  GLN119      0.1733
    120  C         -3.5370   36.0510   18.8890 C.2   119  GLN119      0.2616
    121  O         -3.3890   37.1290   19.4610 O.2   119  GLN119     -0.2715
    122  CB        -2.4300   35.5180   16.7110 C.3   119  GLN119      0.0408
    123  CG        -1.2790   36.2850   17.2730 C.3   119  GLN119      0.0908
    124  CD        -0.0590   36.1810   16.3610 C.2   119  GLN119      0.2608
    125  OE1       -0.0740   36.6970   15.2640 O.2   119  GLN119     -0.2717
    126  NE2        0.9630   35.3970   16.7760 N.am  119  GLN119     -0.0878
    127  N         -3.4550   34.8990   19.5190 N.am  120  ALA120     -0.1977
    128  CA        -3.0710   34.7300   20.8930 C.3   120  ALA120      0.1597
    129  C         -1.5040   34.3980   20.8920 C.2   120  ALA120      0.2287
    130  O         -1.0910   33.5990   20.0460 O.2   120  ALA120     -0.2864
    131  CB        -3.8170   33.5760   21.5890 C.3   120  ALA120      0.0319
    132  N          0.3530   32.7160   22.8230 N.3   122  ASP122     -0.1225
    133  CA         0.7670   31.3750   23.1650 C.3   122  ASP122      0.1805
    134  C          0.5990   30.4140   22.0120 C.2   122  ASP122      0.2598
    135  O          1.5810   29.8470   21.4760 O.2   122  ASP122     -0.2718
    136  CB         0.2300   30.8660   24.5120 C.3   122  ASP122      0.1424
    137  CG        -1.3340   30.9290   24.6450 C.2   122  ASP122      0.3668
    138  OD1       -2.0180   31.5230   23.7540 O.co2 122  ASP122     -0.2456
    139  OD2       -1.7400   30.3850   25.7310 O.co2 122  ASP122     -0.2456
    140  N         -0.6800   30.1550   21.6070 N.am  123  GLY123     -0.1957
    141  CA        -0.8230   29.3400   20.4760 C.3   123  GLY123      0.1869
    142  C         -0.2900   29.8420   19.1400 C.2   123  GLY123      0.2309
    143  O          0.1410   29.0790   18.2360 O.2   123  GLY123     -0.2863
    144  N         -1.7560   30.8220   16.5600 N.3   125  THR125     -0.1203
    145  CA        -2.3940   30.2880   15.3400 C.3   125  THR125      0.1994
    146  C         -3.1980   31.2570   14.4350 C.2   125  THR125      0.2618
    147  O         -3.2560   31.1340   13.2270 O.2   125  THR125     -0.2717
    148  CB        -3.2250   29.0760   15.5350 C.3   125  THR125      0.1784
    149  OG1       -4.5420   29.4790   15.9740 O.3   125  THR125     -0.2211
    150  CG2       -2.6360   27.9730   16.3070 C.3   125  THR125      0.0376
    151  N         -3.6730   32.2960   15.1110 N.am  126  ALA126     -0.1965
    152  CA        -4.5240   33.2600   14.3660 C.3   126  ALA126      0.1728
    153  C         -5.7640   32.5740   13.6810 C.2   126  ALA126      0.2616
    154  O         -6.1780   32.9520   12.6140 O.2   126  ALA126     -0.2715
    155  CB        -3.7770   34.0840   13.3310 C.3   126  ALA126      0.0334
    156  N         -6.2620   31.5270   14.3180 N.am  127  GLN127     -0.1963
    157  CA        -7.3490   30.7270   13.7240 C.3   127  GLN127      0.1733
    158  C         -8.7300   30.9820   14.3860 C.2   127  GLN127      0.2616
    159  O         -9.7120   30.7530   13.6720 O.2   127  GLN127     -0.2715
    160  CB        -7.0250   29.2310   13.7220 C.3   127  GLN127      0.0408
    161  CG        -5.8280   29.0210   12.8030 C.3   127  GLN127      0.0908
    162  CD        -5.2180   27.6330   12.7300 C.2   127  GLN127      0.2608
    163  OE1       -4.1510   27.4510   12.0240 O.2   127  GLN127     -0.2717
    164  NE2       -5.7530   26.6380   13.3980 N.am  127  GLN127     -0.0878
    165  N         -8.7770   31.2710   15.6530 N.am  128  VAL128     -0.1963
    166  CA       -10.0490   31.2880   16.4190 C.3   128  VAL128      0.1727
    167  C        -10.9470   32.3100   15.8390 C.2   128  VAL128      0.2616
    168  O        -12.1910   31.9450   15.6680 O.2   128  VAL128     -0.2715
    169  CB        -9.9160   31.3320   17.9380 C.3   128  VAL128      0.0290
    170  CG1      -11.2570   31.5840   18.6300 C.3   128  VAL128      0.0023
    171  CG2       -9.2230   30.0440   18.4130 C.3   128  VAL128      0.0023
    172  N        -10.6040   33.5330   15.5150 N.am  129  GLY129     -0.1955
    173  CA       -11.5990   34.5210   15.0560 C.3   129  GLY129      0.1869
    174  C        -12.2310   34.1630   13.7700 C.2   129  GLY129      0.2309
    175  O        -13.5090   34.1540   13.7240 O.2   129  GLY129     -0.2863
    176  N         -7.1740   18.1860   15.7190 N.3   221  THR221     -0.1218
    177  CA        -5.7300   18.1370   15.9050 C.3   221  THR221      0.1862
    178  C         -5.4480   17.7440   17.3460 C.2   221  THR221      0.2287
    179  O         -6.2050   17.9640   18.2970 O.2   221  THR221     -0.2866
    180  CB        -5.0450   19.4520   15.5440 C.3   221  THR221      0.1770
    181  OG1       -5.4160   20.4440   16.4820 O.3   221  THR221     -0.2211
    182  CG2       -5.2370   19.8220   14.1190 C.3   221  THR221      0.0375
    183  N         -1.6940   17.8670   19.8610 N.3   223  VAL223     -0.1245
    184  CA        -0.2220   18.1310   20.0260 C.3   223  VAL223      0.1561
    185  C          0.3160   16.8030   20.5530 C.2   223  VAL223      0.2260
    186  O         -0.0680   16.4050   21.6860 O.2   223  VAL223     -0.2867
    187  CB         0.0460   19.2950   20.9660 C.3   223  VAL223      0.0252
    188  CG1        1.5160   19.3530   21.2310 C.3   223  VAL223      0.0019
    189  CG2       -0.4600   20.6230   20.3860 C.3   223  VAL223      0.0019
    190  N          6.0310   18.3890   22.3760 N.3   226  SER226     -0.1217
    191  CA         6.6030   19.6980   22.3080 C.3   226  SER226      0.1889
    192  C          7.9390   19.7170   22.9440 C.2   226  SER226      0.2288
    193  O          8.2080   18.9630   23.8740 O.2   226  SER226     -0.2866
    194  CB         5.7120   20.7420   22.9670 C.3   226  SER226      0.2089
    195  OG         5.4390   20.4260   24.2990 O.3   226  SER226     -0.2183
@<TRIPOS>BOND
     1   116   115    1
     2   115   114    2
     3   115   117    1
     4   163   162    2
     5   114   113    1
     6   154   153    2
     7   162   161    1
     8   162   164   am
     9   161   160    1
    10   147   146    2
    11   155   152    1
    12   113   112    1
    13   112   111    1
    14   159   158    2
    15   153   156   am
    16   153   152    1
    17   160   157    1
    18   175   174    2
    19   157   156    1
    20   157   158    1
    21   174   173    1
    22   182   180    1
    23   152   151    1
    24   158   165   am
    25   146   151   am
    26   146   145    1
    27   111   108    1
    28   110   109    2
    29   173   172    1
    30    80    79    1
    31   125   124    2
    32   145   148    1
    33   145   144    1
    34   108   109    1
    35   108   107    1
    36   172   167   am
    37   148   149    1
    38   148   150    1
    39   180   177    1
    40   180   181    1
    41   165   166    1
    42   168   167    2
    43   176   177    1
    44   109   118   am
    45   167   166    1
    46   177   178    1
    47   124   126   am
    48   124   123    1
    49    74    72   ar
    50   166   169    1
    51    79    81    1
    52    79    76    1
    53   122   123    1
    54   122   119    1
    55   107   105   am
    56   118   119    1
    57   106   105    2
    58    77    78    2
    59    77    76    1
    60   178   179    2
    61   100    99    2
    62   105   104    1
    63   119   120    1
    64    72    73   ar
    65    72    71    1
    66    76    75    1
    67   101   102    1
    68   101    98    1
    69    75    69   am
    70   169   171    1
    71   169   170    1
    72    97    98    1
    73   143   142    2
    74    99    98    1
    75    99   103   am
    76    71    68    1
    77   104   103    1
    78   120   121    2
    79   120   127   am
    80    69    68    1
    81    69    70    2
    82   142   141    1
    83    68    67    1
    84   127   128    1
    85   183   184    1
    86   184   185    1
    87   184   187    1
    88   130   129    2
    89    84    85    2
    90    84    83    1
    91    82    83    1
    92   189   187    1
    93   141   140    1
    94   185   186    2
    95    67    64   am
    96    91    92    2
    97    91    90    1
    98     6     5    1
    99   129   128    1
   100   128   131    1
   101    83    86    1
   102   187   188    1
   103    86    88    1
   104    86    87    1
   105    93    90    1
   106    93    94    1
   107   135   134    2
   108     5     2    1
   109   140   134   am
   110    89    90    1
   111    37    36   ar
   112    64    65    2
   113    64    63    1
   114   134   133    1
   115    30    28   am
   116    31    32    1
   117   191   190    1
   118   191   192    1
   119   191   194    1
   120     1     2    1
   121    94    95    1
   122     4     3    2
   123     2     3    1
   124   132   133    1
   125    63    66    1
   126    63    62    1
   127    32    33    1
   128    32    35    1
   129   192   193    2
   130   194   195    1
   131    36    38   ar
   132    36    35    1
   133    29    28    2
   134    28    27    1
   135   133   136    1
   136     3     7   am
   137    96    95    1
   138    33    34    2
   139   138   137   ar
   140    22    21    1
   141    20    21    1
   142    20    19    1
   143    27    24    1
   144   136   137    1
   145     7     8    1
   146   137   139   ar
   147    26    25    2
   148    25    24    1
   149    60    61    1
   150    60    59    1
   151    46    44    1
   152    18    19    1
   153    18    15    1
   154     8     9    1
   155     8    11    1
   156    24    23    1
   157    12    11    1
   158     9    14   am
   159     9    10    2
   160    14    15    1
   161    42    41    2
   162    44    43    1
   163    43    45    1
   164    43    40    1
   165    58    59    1
   166    58    55    1
   167    15    16    1
   168    11    13    1
   169    39    40    1
   170    41    40    1
   171    41    47   am
   172    17    16    2
   173    54    55    1
   174    54    49   am
   175    55    56    1
   176    57    56    2
   177    48    47    1
   178    48    49    1
   179    48    51    1
   180    49    50    2
   181    52    51    1
   182    51    53    1
