@<TRIPOS>MOLECULE
tmp/4l2iB02.pdb
 115 112 0 0 0
SMALL
GASTEIGER

@<TRIPOS>ATOM
      1  N         -8.6320   36.2590   25.8030 N.3     8  LYS8       -0.1231
      2  CA        -7.8780   35.0430   26.2790 C.3     8  LYS8        0.1693
      3  C         -6.7470   35.4740   27.2670 C.2     8  LYS8        0.2591
      4  O         -5.9720   36.3800   26.9320 O.2     8  LYS8       -0.2718
      5  CB        -7.2740   34.3050   25.0880 C.3     8  LYS8        0.0285
      6  CG        -6.8050   32.9110   25.4030 C.3     8  LYS8        0.0035
      7  CD        -5.8200   32.3120   24.3780 C.3     8  LYS8        0.0206
      8  CE        -5.5600   30.8790   24.6840 C.3     8  LYS8        0.1093
      9  NZ        -4.4580   30.2970   23.9040 N.3     8  LYS8       -0.1314
     10  N         -6.6690   34.7980   28.3910 N.am    9  GLN9       -0.1979
     11  CA        -5.6070   34.8620   29.3300 C.3     9  GLN9        0.1601
     12  C         -4.5550   33.8810   28.7960 C.2     9  GLN9        0.2287
     13  O         -4.8150   32.7510   28.4180 O.2     9  GLN9       -0.2864
     14  CB        -6.0550   34.4360   30.7000 C.3     9  GLN9        0.0394
     15  CG        -4.9140   34.5000   31.7210 C.3     9  GLN9        0.0908
     16  CD        -5.2690   33.9680   33.0750 C.2     9  GLN9        0.2608
     17  OE1       -5.6830   32.7920   33.2140 O.2     9  GLN9       -0.2717
     18  NE2       -5.2820   34.8020   34.0260 N.am    9  GLN9       -0.0878
     19  N        -13.1140   31.6340   27.2910 N.3    61  MET61      -0.1230
     20  CA       -13.1280   30.1840   27.5460 C.3    61  MET61       0.1702
     21  C        -11.8090   29.8400   28.2480 C.2    61  MET61       0.2593
     22  O        -10.7550   29.8060   27.6080 O.2    61  MET61      -0.2718
     23  CB       -13.3040   29.3560   26.2240 C.3    61  MET61       0.0401
     24  CG       -13.5480   27.8210   26.3850 C.3    61  MET61       0.0596
     25  SD       -13.1910   26.9040   24.8820 S.3    61  MET61      -0.1393
     26  CE       -11.3700   26.7070   24.9410 C.3    61  MET61       0.0692
     27  N        -11.8740   29.6680   29.5620 N.am   62  GLY62      -0.1943
     28  CA       -10.6690   29.3950   30.3720 C.3    62  GLY62       0.1998
     29  C        -10.9890   28.7950   31.7180 C.2    62  GLY62       0.2481
     30  O        -12.1900   28.7000   32.1750 O.2    62  GLY62      -0.2729
     31  N         -9.9500   28.3130   32.3910 N.am   63  PRO63      -0.2715
     32  CA       -10.0250   27.7680   33.7020 C.3    63  PRO63       0.1521
     33  C        -10.4770   28.8670   34.6750 C.2    63  PRO63       0.2440
     34  O        -10.4330   30.0400   34.2870 O.2    63  PRO63      -0.2731
     35  CB        -8.6260   27.2830   33.9660 C.3    63  PRO63       0.0310
     36  CG        -7.7510   28.1550   33.1090 C.3    63  PRO63       0.0237
     37  CD        -8.5640   28.4690   31.9050 C.3    63  PRO63       0.0939
     38  N        -10.7710   28.5190   35.9280 N.am   64  PRO64      -0.2727
     39  CA       -11.2350   29.5210   36.8890 C.3    64  PRO64       0.1402
     40  C        -10.3840   30.7490   37.0480 C.2    64  PRO64       0.2269
     41  O        -10.9390   31.8630   37.1820 O.2    64  PRO64      -0.2865
     42  CB       -11.4540   28.7380   38.2050 C.3    64  PRO64       0.0296
     43  CG       -11.7880   27.3590   37.7000 C.3    64  PRO64       0.0237
     44  CD       -10.8450   27.1630   36.5090 C.3    64  PRO64       0.0939
     45  N        -16.6050   31.2210   30.5420 N.3    84  VAL84      -0.1231
     46  CA       -17.0330   29.9090   30.0550 C.3    84  VAL84       0.1692
     47  C        -15.9160   28.9520   30.5730 C.2    84  VAL84       0.2593
     48  O        -14.7730   28.9930   30.0850 O.2    84  VAL84      -0.2718
     49  CB       -17.1510   29.8980   28.5310 C.3    84  VAL84       0.0266
     50  CG1      -17.4950   28.5170   28.0270 C.3    84  VAL84       0.0020
     51  CG2      -18.1670   30.9440   28.0020 C.3    84  VAL84       0.0020
     52  N        -16.2700   28.1630   31.5840 N.am   85  SER85      -0.1938
     53  CA       -15.3370   27.4110   32.3740 C.3    85  SER85       0.2055
     54  C        -15.9190   26.0610   32.7700 C.2    85  SER85       0.2643
     55  O        -16.9600   25.9680   33.4590 O.2    85  SER85      -0.2714
     56  CB       -14.8320   28.1950   33.5910 C.3    85  SER85       0.2130
     57  OG       -13.6550   27.6310   34.1490 O.3    85  SER85      -0.2179
     58  N        -15.2000   25.0100   32.3620 N.am   86  ASP86      -0.1957
     59  CA       -15.5920   23.6340   32.5280 C.3    86  ASP86       0.1840
     60  C        -14.4120   22.7950   31.9690 C.2    86  ASP86       0.2621
     61  O        -13.9860   23.0590   30.8350 O.2    86  ASP86      -0.2715
     62  CB       -16.8620   23.4160   31.6950 C.3    86  ASP86       0.1450
     63  CG       -17.4930   22.0700   31.8230 C.2    86  ASP86       0.3671
     64  OD1      -16.8610   21.0260   32.1290 O.co2  86  ASP86      -0.2456
     65  OD2      -18.7740   21.9660   31.5820 O.co2  86  ASP86      -0.2456
     66  N        -14.0260   21.7620   32.7110 N.am   87  ARG87      -0.1977
     67  CA       -12.9740   20.8820   32.1700 C.3    87  ARG87       0.1597
     68  C        -13.3390   20.2650   30.8320 C.2    87  ARG87       0.2287
     69  O        -12.4340   19.8630   30.0250 O.2    87  ARG87      -0.2864
     70  CB       -12.5710   19.8940   33.2130 C.3    87  ARG87       0.0334
     71  CG       -11.5680   20.5620   34.2320 C.3    87  ARG87       0.0492
     72  CD       -11.1260   19.6570   35.3470 C.3    87  ARG87       0.2205
     73  NE       -10.4140   20.4220   36.3670 N.pl3  87  ARG87      -0.0865
     74  CZ        -9.1550   20.2580   36.7700 C.cat  87  ARG87       0.5346
     75  NH1       -8.3950   19.2570   36.3250 N.pl3  87  ARG87       0.1354
     76  NH2       -8.7030   21.0460   37.6840 N.pl3  87  ARG87       0.1354
     77  N        -14.2810   21.7600   28.2460 N.3    89  PHE89      -0.1227
     78  CA       -13.7100   22.6020   27.2040 C.3    89  PHE89       0.1736
     79  C        -12.1340   22.4940   27.1320 C.2    89  PHE89       0.2596
     80  O        -11.5300   23.0120   26.1880 O.2    89  PHE89      -0.2718
     81  CB       -13.9960   24.0630   27.5130 C.3    89  PHE89       0.0547
     82  CG       -15.4620   24.4660   27.5170 C.ar   89  PHE89      -0.0202
     83  CD1      -16.2170   24.5260   26.3320 C.ar   89  PHE89      -0.0042
     84  CD2      -16.0420   24.8790   28.6860 C.ar   89  PHE89      -0.0042
     85  CE1      -17.6070   24.8650   26.3380 C.ar   89  PHE89      -0.0003
     86  CE2      -17.4130   25.2410   28.6960 C.ar   89  PHE89      -0.0003
     87  CZ       -18.1650   25.2130   27.5330 C.ar   89  PHE89      -0.0000
     88  N        -11.5120   21.9520   28.1750 N.am   90  GLY90      -0.1942
     89  CA       -10.0300   21.8530   28.1910 C.3    90  GLY90       0.2014
     90  C         -9.5230   20.9390   27.0740 C.2    90  GLY90       0.2639
     91  O        -10.1950   19.9910   26.6210 O.2    90  GLY90      -0.2714
     92  N         -8.2820   21.1930   26.6770 N.am   91  GLY91      -0.1939
     93  CA        -7.6510   20.3420   25.6300 C.3    91  GLY91       0.2014
     94  C         -8.0560   20.7030   24.2380 C.2    91  GLY91       0.2638
     95  O         -7.7940   20.0150   23.2970 O.2    91  GLY91      -0.2714
     96  N         -8.8070   21.8280   24.1210 N.am   92  ALA92      -0.1977
     97  CA        -9.3660   22.2330   22.8480 C.3    92  ALA92       0.1597
     98  C         -8.3370   22.7660   21.8510 C.2    92  ALA92       0.2287
     99  O         -7.6030   23.6940   22.2520 O.2    92  ALA92      -0.2864
    100  CB       -10.4650   23.3220   23.1180 C.3    92  ALA92       0.0319
    101  N        -12.2740   25.3280   20.2660 N.3    97  THR97      -0.1218
    102  CA       -12.3590   26.5780   20.9490 C.3    97  THR97       0.1862
    103  C        -13.3390   27.4890   20.2310 C.2    97  THR97       0.2287
    104  O        -14.2140   28.0780   20.9160 O.2    97  THR97      -0.2866
    105  CB       -10.9520   27.2870   20.9670 C.3    97  THR97       0.1770
    106  OG1       -9.9250   26.4740   21.6240 O.3    97  THR97      -0.2211
    107  CG2      -11.0730   28.6230   21.6200 C.3    97  THR97       0.0375
    108  N          0.3530   32.7160   22.8230 N.3   122  ASP122     -0.1239
    109  CA         0.7670   31.3750   23.1650 C.3   122  ASP122      0.1674
    110  C          0.5990   30.4140   22.0120 C.2   122  ASP122      0.2266
    111  O          1.5810   29.8470   21.4760 O.2   122  ASP122     -0.2867
    112  CB         0.2300   30.8660   24.5120 C.3   122  ASP122      0.1410
    113  CG        -1.3340   30.9290   24.6450 C.2   122  ASP122      0.3668
    114  OD1       -2.0180   31.5230   23.7540 O.co2 122  ASP122     -0.2456
    115  OD2       -1.7400   30.3850   25.7310 O.co2 122  ASP122     -0.2456
@<TRIPOS>BOND
     1   103   104    2
     2   103   102    1
     3   101   102    1
     4   102   105    1
     5   105   107    1
     6   105   106    1
     7   111   110    2
     8    98    99    2
     9    98    97    1
    10   110   109    1
    11   108   109    1
    12    97   100    1
    13    97    96    1
    14   109   112    1
    15    95    94    2
    16   114   113   ar
    17     9     8    1
    18    96    94   am
    19    94    93    1
    20     7     8    1
    21     7     6    1
    22   112   113    1
    23   113   115   ar
    24    25    26    1
    25    25    24    1
    26     5     6    1
    27     5     2    1
    28    93    92    1
    29     1     2    1
    30    80    79    2
    31    23    24    1
    32    23    20    1
    33     2     3    1
    34    83    85   ar
    35    83    82   ar
    36    85    87   ar
    37    91    90    2
    38    92    90   am
    39     4     3    2
    40    90    89    1
    41    79    78    1
    42    79    88   am
    43    78    81    1
    44    78    77    1
    45     3    10   am
    46    19    20    1
    47    81    82    1
    48    82    84   ar
    49    87    86   ar
    50    20    21    1
    51    22    21    2
    52    51    49    1
    53    50    49    1
    54    88    89    1
    55    21    27   am
    56    10    11    1
    57    13    12    2
    58    49    46    1
    59    84    86   ar
    60    12    11    1
    61    11    14    1
    62    27    28    1
    63    69    68    2
    64    46    45    1
    65    46    47    1
    66    48    47    2
    67    28    29    1
    68    47    52   am
    69    14    15    1
    70    68    67    1
    71    61    60    2
    72    65    63   ar
    73    52    53    1
    74    62    63    1
    75    62    59    1
    76    29    30    2
    77    29    31   am
    78    15    16    1
    79    63    64   ar
    80    37    31    1
    81    37    36    1
    82    60    59    1
    83    60    66   am
    84    67    66    1
    85    67    70    1
    86    58    59    1
    87    58    54   am
    88    53    54    1
    89    53    56    1
    90    31    32    1
    91    54    55    2
    92    16    17    2
    93    16    18   am
    94    36    35    1
    95    70    71    1
    96    56    57    1
    97    32    35    1
    98    32    33    1
    99    71    72    1
   100    34    33    2
   101    33    38   am
   102    72    73    1
   103    38    44    1
   104    38    39    1
   105    75    74    1
   106    73    74    2
   107    44    43    1
   108    74    76    1
   109    39    40    1
   110    39    42    1
   111    40    41    2
   112    43    42    1
