@<TRIPOS>MOLECULE
tmp/4l2kC00.pdb
 143 145 0 0 0
SMALL
GASTEIGER

@<TRIPOS>ATOM
      1  N          5.1040   -9.5680   11.9780 N.3    80  HIS80      -0.1226
      2  CA         5.3330   -9.1480   13.3860 C.3    80  HIS80       0.1752
      3  C          5.6210  -10.3820   14.2240 C.2    80  HIS80       0.2597
      4  O          4.8160  -11.3640   14.2380 O.2    80  HIS80      -0.2718
      5  CB         4.1390   -8.3910   13.9750 C.3    80  HIS80       0.0759
      6  CG         4.3540   -7.9120   15.3720 C.ar   80  HIS80       0.0818
      7  ND1        5.0410   -6.7480   15.6560 N.ar   80  HIS80      -0.2268
      8  CD2        4.0250   -8.4530   16.5680 C.ar   80  HIS80       0.1154
      9  CE1        5.1000   -6.5810   16.9700 C.ar   80  HIS80       0.1986
     10  NE2        4.5000   -7.6070   17.5460 N.ar   80  HIS80      -0.2212
     11  N          6.7390  -10.3300   14.9250 N.am   81  GLY81      -0.1942
     12  CA         7.2380  -11.4410   15.7260 C.3    81  GLY81       0.2014
     13  C          7.3230  -11.0370   17.1760 C.2    81  GLY81       0.2640
     14  O          7.9860  -10.0470   17.5330 O.2    81  GLY81      -0.2714
     15  N          6.6500  -11.7910   18.0300 N.am   82  SER82      -0.1936
     16  CA         6.5710  -11.4600   19.4250 C.3    82  SER82       0.2040
     17  C          6.3130  -12.6590   20.3600 C.2    82  SER82       0.2485
     18  O          5.5990  -13.6250   19.9920 O.2    82  SER82      -0.2729
     19  CB         5.4400  -10.4600   19.5340 C.3    82  SER82       0.2129
     20  OG         5.2060  -10.0970   20.8560 O.3    82  SER82      -0.2179
     21  N          6.8220  -12.5900   21.6000 N.am   83  PRO83      -0.2715
     22  CA         6.3190  -13.5790   22.5820 C.3    83  PRO83       0.1536
     23  C          4.8460  -13.3640   22.9920 C.2    83  PRO83       0.2598
     24  O          4.2570  -14.2120   23.6220 O.2    83  PRO83      -0.2715
     25  CB         7.2510  -13.3930   23.7970 C.3    83  PRO83       0.0310
     26  CG         7.8970  -12.0690   23.6220 C.3    83  PRO83       0.0237
     27  CD         7.8750  -11.7190   22.1660 C.3    83  PRO83       0.0939
     28  N          4.2410  -12.2410   22.6400 N.am   84  PHE84      -0.1974
     29  CA         2.8590  -11.9960   23.0260 C.3    84  PHE84       0.1639
     30  C          1.8580  -12.3070   21.9240 C.2    84  PHE84       0.2290
     31  O          0.7340  -11.8300   21.9950 O.2    84  PHE84      -0.2864
     32  CB         2.6980  -10.5380   23.4510 C.3    84  PHE84       0.0560
     33  CG         3.7790  -10.0600   24.3710 C.ar   84  PHE84      -0.0200
     34  CD1        4.0390  -10.7390   25.5510 C.ar   84  PHE84      -0.0042
     35  CD2        4.5320   -8.9340   24.0650 C.ar   84  PHE84      -0.0042
     36  CE1        5.0490  -10.3140   26.4020 C.ar   84  PHE84      -0.0003
     37  CE2        5.5230   -8.5000   24.9240 C.ar   84  PHE84      -0.0003
     38  CZ         5.7840   -9.1930   26.0890 C.ar   84  PHE84      -0.0000
     39  N          1.2330   -2.3000   25.1200 N.3    96  ARG96      -0.1231
     40  CA         2.0000   -3.4180   25.7270 C.3    96  ARG96       0.1694
     41  C          2.9780   -4.0680   24.7330 C.2    96  ARG96       0.2592
     42  O          3.9370   -4.7280   25.1330 O.2    96  ARG96      -0.2718
     43  CB         1.1020   -4.5630   26.2230 C.3    96  ARG96       0.0321
     44  CG        -0.2140   -4.2430   26.9180 C.3    96  ARG96       0.0489
     45  CD        -1.1950   -5.3840   26.6170 C.3    96  ARG96       0.2205
     46  NE        -2.4470   -5.3030   27.3670 N.pl3  96  ARG96      -0.0865
     47  CZ        -2.6440   -5.7960   28.5930 C.cat  96  ARG96       0.5346
     48  NH1       -1.6680   -6.4150   29.2600 N.pl3  96  ARG96       0.1354
     49  NH2       -3.8360   -5.6610   29.1690 N.pl3  96  ARG96       0.1354
     50  N          2.6890   -3.9080   23.4400 N.am   97  HIS97      -0.1962
     51  CA         3.4120   -4.5750   22.3540 C.3    97  HIS97       0.1787
     52  C          4.4190   -3.6270   21.6590 C.2    97  HIS97       0.2620
     53  O          5.0570   -4.0050   20.6550 O.2    97  HIS97      -0.2715
     54  CB         2.3750   -5.1420   21.3710 C.3    97  HIS97       0.0785
     55  CG         1.3210   -5.9710   22.0480 C.ar   97  HIS97       0.0821
     56  ND1       -0.0220   -5.7490   21.8800 N.ar   97  HIS97      -0.2267
     57  CD2        1.4190   -6.9620   22.9690 C.ar   97  HIS97       0.1154
     58  CE1       -0.7140   -6.5940   22.6260 C.ar   97  HIS97       0.1986
     59  NE2        0.1390   -7.3360   23.3060 N.ar   97  HIS97      -0.2212
     60  N          4.5370   -2.4140   22.2070 N.am   98  ALA98      -0.1963
     61  CA         5.5060   -1.3950   21.7610 C.3    98  ALA98       0.1728
     62  C          6.9420   -1.7060   22.1870 C.2    98  ALA98       0.2616
     63  O          7.1710   -2.2790   23.2420 O.2    98  ALA98      -0.2715
     64  CB         5.1200   -0.0150   22.2800 C.3    98  ALA98       0.0334
     65  N          7.8820   -1.2930   21.3410 N.am   99  TYR99      -0.1974
     66  CA         9.2920   -1.5210   21.5060 C.3    99  TYR99       0.1639
     67  C          9.8270   -0.1960   21.9920 C.2    99  TYR99       0.2290
     68  O         10.1560    0.6900   21.1850 O.2    99  TYR99      -0.2864
     69  CB         9.9170   -1.9410   20.1610 C.3    99  TYR99       0.0560
     70  CG        11.4170   -2.2380   20.1440 C.ar   99  TYR99      -0.0198
     71  CD1       12.1410   -2.4400   21.3260 C.ar   99  TYR99      -0.0009
     72  CD2       12.0960   -2.3810   18.9320 C.ar   99  TYR99      -0.0009
     73  CE1       13.4840   -2.7520   21.2970 C.ar   99  TYR99       0.0417
     74  CE2       13.4470   -2.7010   18.8990 C.ar   99  TYR99       0.0417
     75  CZ        14.1200   -2.8790   20.0870 C.ar   99  TYR99       0.1957
     76  OH        15.4510   -3.1680   20.0720 O.3    99  TYR99      -0.2866
     77  N          6.5060   -2.2640   15.9790 N.3   109  TYR109     -0.1227
     78  CA         7.3850   -2.4890   14.8470 C.3   109  TYR109      0.1736
     79  C          6.9240   -3.6610   13.9880 C.2   109  TYR109      0.2595
     80  O          6.4390   -4.6620   14.5240 O.2   109  TYR109     -0.2718
     81  CB         8.8110   -2.7800   15.3390 C.3   109  TYR109      0.0548
     82  CG         9.5300   -1.5180   15.7830 C.ar  109  TYR109     -0.0200
     83  CD1       10.7190   -1.1100   15.1920 C.ar  109  TYR109     -0.0009
     84  CD2        8.9990   -0.7250   16.8000 C.ar  109  TYR109     -0.0009
     85  CE1       11.3570    0.0690   15.6000 C.ar  109  TYR109      0.0417
     86  CE2        9.6200    0.4470   17.2090 C.ar  109  TYR109      0.0417
     87  CZ        10.7730    0.8490   16.6090 C.ar  109  TYR109      0.1957
     88  OH        11.3350    2.0260   17.0590 O.3   109  TYR109     -0.2866
     89  N          7.1100   -3.5250   12.6740 N.am  110  PHE110     -0.1962
     90  CA         6.7190   -4.5040   11.6530 C.3   110  PHE110      0.1771
     91  C          7.8280   -4.5900   10.6140 C.2   110  PHE110      0.2619
     92  O          8.5050   -3.5880   10.3620 O.2   110  PHE110     -0.2715
     93  CB         5.4200   -4.0580   10.9880 C.3   110  PHE110      0.0574
     94  CG         4.2170   -4.1520   11.8870 C.ar  110  PHE110     -0.0200
     95  CD1        3.4630   -5.3120   11.9410 C.ar  110  PHE110     -0.0042
     96  CD2        3.8470   -3.0790   12.6960 C.ar  110  PHE110     -0.0042
     97  CE1        2.3690   -5.4270   12.7890 C.ar  110  PHE110     -0.0003
     98  CE2        2.7540   -3.1750   13.5240 C.ar  110  PHE110     -0.0003
     99  CZ         2.0050   -4.3520   13.5660 C.ar  110  PHE110     -0.0000
    100  N          8.0480   -5.7800   10.0430 N.am  111  ALA111     -0.1977
    101  CA         9.1220   -6.0230    9.0820 C.3   111  ALA111      0.1597
    102  C          8.6660   -6.5390    7.7220 C.2   111  ALA111      0.2287
    103  O          7.7090   -7.3420    7.5930 O.2   111  ALA111     -0.2864
    104  CB        10.1250   -6.9950    9.6470 C.3   111  ALA111      0.0319
    105  N         13.5260  -10.9140    9.9180 N.3   116  LYS116     -0.1231
    106  CA        13.7130   -9.8090   10.8840 C.3   116  LYS116      0.1693
    107  C         12.7410   -9.9890   12.0690 C.2   116  LYS116      0.2592
    108  O         13.1280   -9.9890   13.2370 O.2   116  LYS116     -0.2718
    109  CB        13.5370   -8.4470   10.1670 C.3   116  LYS116      0.0285
    110  CG        13.3350   -7.2170   11.0680 C.3   116  LYS116      0.0035
    111  CD        14.3950   -7.0860   12.1410 C.3   116  LYS116      0.0206
    112  CE        15.7370   -6.8400   11.5080 C.3   116  LYS116      0.1093
    113  NZ        16.7820   -6.5210   12.5100 N.3   116  LYS116     -0.1314
    114  N         11.4850  -10.2370   11.7550 N.am  117  SER117     -0.1952
    115  CA        10.4820  -10.5430   12.7970 C.3   117  SER117      0.1924
    116  C         10.8350  -11.8000   13.5950 C.2   117  SER117      0.2314
    117  O         10.5910  -11.8490   14.8070 O.2   117  SER117     -0.2863
    118  CB         9.1100  -10.6520   12.1770 C.3   117  SER117      0.2116
    119  OG         8.6320   -9.3900   11.7120 O.3   117  SER117     -0.2180
    120  N         12.6350  -11.5380   16.9520 N.3   120  TYR120     -0.1241
    121  CA        11.8990  -11.1030   18.1430 C.3   120  TYR120      0.1605
    122  C         10.9200  -12.1190   18.7180 C.2   120  TYR120      0.2264
    123  O         10.3060  -11.8590   19.7470 O.2   120  TYR120     -0.2867
    124  CB        11.1400   -9.8070   17.8380 C.3   120  TYR120      0.0534
    125  CG        12.0830   -8.6730   17.5660 C.ar  120  TYR120     -0.0201
    126  CD1       12.5150   -7.8460   18.5970 C.ar  120  TYR120     -0.0009
    127  CD2       12.5930   -8.4560   16.2800 C.ar  120  TYR120     -0.0009
    128  CE1       13.3940   -6.8130   18.3550 C.ar  120  TYR120      0.0417
    129  CE2       13.4720   -7.4270   16.0280 C.ar  120  TYR120      0.0417
    130  CZ        13.8730   -6.6190   17.0810 C.ar  120  TYR120      0.1957
    131  OH        14.7340   -5.6040   16.8540 O.3   120  TYR120     -0.2866
    132  N         11.5630  -12.7390   22.0460 N.3   123  GLY123     -0.1210
    133  CA        11.8480  -11.4890   22.7670 C.3   123  GLY123      0.1956
    134  C         12.9500  -10.6620   22.0970 C.2   123  GLY123      0.2611
    135  O         13.5580  -11.0970   21.1190 O.2   123  GLY123     -0.2717
    136  N         13.1950   -9.4680   22.6320 N.am  124  ILE124     -0.1979
    137  CA        14.2480   -8.5510   22.1320 C.3   124  ILE124      0.1595
    138  C         15.5920   -9.2700   22.1400 C.2   124  ILE124      0.2287
    139  O         15.9680   -9.8870   23.1220 O.2   124  ILE124     -0.2864
    140  CB        14.3040   -7.2640   22.9630 C.3   124  ILE124      0.0276
    141  CG1       13.0200   -6.4680   22.7430 C.3   124  ILE124      0.0022
    142  CG2       15.5280   -6.4140   22.6030 C.3   124  ILE124      0.0022
    143  CD1       12.7820   -5.3960   23.7880 C.3   124  ILE124      0.0001
@<TRIPOS>BOND
     1   103   102    2
     2   102   101    1
     3   101   104    1
     4   101   100    1
     5   105   106    1
     6   100    91   am
     7   109   106    1
     8   109   110    1
     9    92    91    2
    10    91    90    1
    11   106   107    1
    12    93    90    1
    13    93    94    1
    14   110   111    1
    15   112   111    1
    16   112   113    1
    17    90    89    1
    18   119   118    1
    19   114   107   am
    20   114   115    1
    21    94    95   ar
    22    94    96   ar
    23    95    97   ar
    24     1     2    1
    25   107   108    2
    26   118   115    1
    27    89    79   am
    28    96    98   ar
    29    97    99   ar
    30   115   116    1
    31     2     5    1
    32     2     3    1
    33    98    99   ar
    34   116   117    2
    35     5     6    1
    36    79    80    2
    37    79    78    1
    38     3     4    2
    39     3    11   am
    40    78    81    1
    41    78    77    1
    42    11    12    1
    43    83    85   ar
    44    83    82   ar
    45    81    82    1
    46     6     7   ar
    47     6     8   ar
    48    85    87   ar
    49     7     9   ar
    50    12    13    1
    51    82    84   ar
    52   129   127   ar
    53   129   130   ar
    54   127   125   ar
    55     8    10   ar
    56    87    88    1
    57    87    86   ar
    58    84    86   ar
    59   131   130    1
    60   120   121    1
    61     9    10   ar
    62   130   128   ar
    63    13    14    2
    64    13    15   am
    65   125   124    1
    66   125   126   ar
    67   124   121    1
    68    15    16    1
    69   121   122    1
    70   128   126   ar
    71   122   123    2
    72    74    72   ar
    73    74    75   ar
    74    72    70   ar
    75    16    19    1
    76    16    17    1
    77    19    20    1
    78    18    17    2
    79    76    75    1
    80    75    73   ar
    81    70    69    1
    82    70    71   ar
    83    69    66    1
    84    17    21   am
    85    53    52    2
    86   135   134    2
    87    68    67    2
    88    73    71   ar
    89    65    66    1
    90    65    62   am
    91    54    55    1
    92    54    51    1
    93    66    67    1
    94    21    27    1
    95    21    22    1
    96    52    60   am
    97    52    51    1
    98    61    62    1
    99    61    60    1
   100    61    64    1
   101    56    55   ar
   102    56    58   ar
   103    30    31    2
   104    30    29    1
   105   132   133    1
   106    55    57   ar
   107   134   136   am
   108   134   133    1
   109   137   138    1
   110   137   136    1
   111   137   140    1
   112   138   139    2
   113    27    26    1
   114    62    63    2
   115    51    50    1
   116    22    23    1
   117    22    25    1
   118   142   140    1
   119    58    59   ar
   120    28    23   am
   121    28    29    1
   122   141   140    1
   123   141   143    1
   124    57    59   ar
   125    23    24    2
   126    29    32    1
   127    50    41   am
   128    32    33    1
   129    26    25    1
   130    35    33   ar
   131    35    37   ar
   132    33    34   ar
   133    41    42    2
   134    41    40    1
   135    37    38   ar
   136    39    40    1
   137    34    36   ar
   138    40    43    1
   139    38    36   ar
   140    43    44    1
   141    45    44    1
   142    45    46    1
   143    46    47    2
   144    47    49    1
   145    47    48    1
