@<TRIPOS>MOLECULE
tmp/4l2lA00.pdb
 139 138 0 0 0
SMALL
GASTEIGER

@<TRIPOS>ATOM
      1  N         19.0800   -9.6220   16.2760 N.3   134  ALA134     -0.1245
      2  CA        19.0670  -10.0540   17.6780 C.3   134  ALA134      0.1562
      3  C         20.4350  -10.1610   18.3580 C.2   134  ALA134      0.2260
      4  O         20.6170   -9.5860   19.4340 O.2   134  ALA134     -0.2867
      5  CB        18.3410  -11.4220   17.7750 C.3   134  ALA134      0.0290
      6  N         15.8070  -14.5780   23.5390 N.3   308  TRP308     -0.1227
      7  CA        15.0460  -14.4840   22.2670 C.3   308  TRP308      0.1737
      8  C         13.9230  -15.5040   22.1090 C.2   308  TRP308      0.2595
      9  O         13.0190  -15.2900   21.3230 O.2   308  TRP308     -0.2718
     10  CB        16.0640  -14.5250   21.0900 C.3   308  TRP308      0.0564
     11  CG        17.0090  -13.3220   21.1650 C.ar  308  TRP308      0.0003
     12  CD1       18.2940  -13.3330   21.5290 C.ar  308  TRP308      0.0946
     13  CD2       16.6300  -11.9540   21.0730 C.ar  308  TRP308      0.0152
     14  NE1       18.8030  -12.0850   21.5680 N.ar  308  TRP308     -0.2442
     15  CE2       17.7850  -11.1860   21.3330 C.ar  308  TRP308      0.0810
     16  CE3       15.4570  -11.3070   20.7550 C.ar  308  TRP308      0.0012
     17  CZ2       17.7770   -9.8060   21.3340 C.ar  308  TRP308      0.0191
     18  CZ3       15.4130   -9.9650   20.7600 C.ar  308  TRP308      0.0001
     19  CH2       16.6070   -9.1830   21.0260 C.ar  308  TRP308      0.0015
     20  N         13.9380  -16.5700   22.9330 N.am  309  ASP309     -0.1974
     21  CA        12.8120  -17.4510   22.9750 C.3   309  ASP309      0.1709
     22  C         11.4820  -16.7780   23.2990 C.2   309  ASP309      0.2293
     23  O         10.4060  -17.2260   22.9110 O.2   309  ASP309     -0.2864
     24  CB        13.0210  -18.5450   24.0010 C.3   309  ASP309      0.1436
     25  CG        14.1010  -19.5020   23.6590 C.2   309  ASP309      0.3671
     26  OD1       14.7040  -19.4470   22.5930 O.co2 309  ASP309     -0.2456
     27  OD2       14.3160  -20.4320   24.5340 O.co2 309  ASP309     -0.2456
     28  N         10.7430  -13.4150   22.5960 N.3   311  PHE311     -0.1227
     29  CA        10.5930  -12.2980   21.7050 C.3   311  PHE311      0.1736
     30  C          9.1590  -11.8560   21.5370 C.2   311  PHE311      0.2595
     31  O          8.9200  -10.6650   21.3660 O.2   311  PHE311     -0.2718
     32  CB        11.2290  -12.6430   20.3570 C.3   311  PHE311      0.0547
     33  CG        11.2440  -11.5540   19.3120 C.ar  311  PHE311     -0.0202
     34  CD1       11.8930  -10.3830   19.5550 C.ar  311  PHE311     -0.0042
     35  CD2       10.6830  -11.7740   18.0830 C.ar  311  PHE311     -0.0042
     36  CE1       11.9300   -9.4030   18.5350 C.ar  311  PHE311     -0.0003
     37  CE2       10.7670  -10.8400   17.0410 C.ar  311  PHE311     -0.0003
     38  CZ        11.4000   -9.6640   17.3100 C.ar  311  PHE311     -0.0000
     39  N          8.2110  -12.7870   21.5780 N.am  312  TRP312     -0.1976
     40  CA         6.8310  -12.3530   21.4380 C.3   312  TRP312      0.1640
     41  C          6.4060  -11.3510   22.5010 C.2   312  TRP312      0.2290
     42  O          5.5250  -10.4910   22.2190 O.2   312  TRP312     -0.2864
     43  CB         5.8260  -13.5080   21.4610 C.3   312  TRP312      0.0576
     44  CG         5.4460  -13.9640   22.8520 C.ar  312  TRP312      0.0006
     45  CD1        6.1550  -14.8660   23.6740 C.ar  312  TRP312      0.0946
     46  CD2        4.3340  -13.5040   23.6190 C.ar  312  TRP312      0.0152
     47  NE1        5.4930  -14.9910   24.8600 N.ar  312  TRP312     -0.2442
     48  CE2        4.3890  -14.1710   24.8770 C.ar  312  TRP312      0.0810
     49  CE3        3.2980  -12.5770   23.3840 C.ar  312  TRP312      0.0012
     50  CZ2        3.3890  -13.9890   25.8470 C.ar  312  TRP312      0.0191
     51  CZ3        2.3450  -12.3960   24.3580 C.ar  312  TRP312      0.0001
     52  CH2        2.4090  -13.0920   25.5600 C.ar  312  TRP312      0.0015
     53  N          8.1720  -22.7630   14.0080 N.3   359  PHE359     -0.1241
     54  CA         8.2560  -21.2750   13.9640 C.3   359  PHE359      0.1605
     55  C          6.8690  -20.6570   13.9700 C.2   359  PHE359      0.2264
     56  O          6.7400  -19.4370   13.8720 O.2   359  PHE359     -0.2867
     57  CB         9.0160  -20.6810   12.7700 C.3   359  PHE359      0.0534
     58  CG        10.5310  -21.0390   12.6870 C.ar  359  PHE359     -0.0203
     59  CD1       11.1890  -21.6770   13.7490 C.ar  359  PHE359     -0.0042
     60  CD2       11.2380  -20.7280   11.5130 C.ar  359  PHE359     -0.0042
     61  CE1       12.5170  -22.0070   13.6220 C.ar  359  PHE359     -0.0003
     62  CE2       12.6000  -21.0500   11.3920 C.ar  359  PHE359     -0.0003
     63  CZ        13.2200  -21.6800   12.4400 C.ar  359  PHE359     -0.0000
     64  N          4.8440  -21.4440   16.6430 N.3   361  LYS361     -0.1231
     65  CA         4.6510  -21.3450   18.1000 C.3   361  LYS361      0.1693
     66  C          4.9250  -19.9430   18.5750 C.2   361  LYS361      0.2591
     67  O          5.7440  -19.2630   18.0300 O.2   361  LYS361     -0.2718
     68  CB         5.6350  -22.2650   18.8070 C.3   361  LYS361      0.0285
     69  CG         5.4820  -23.7890   18.5140 C.3   361  LYS361      0.0035
     70  CD         6.5190  -24.6390   19.2730 C.3   361  LYS361      0.0206
     71  CE         6.3580  -26.0960   18.8880 C.3   361  LYS361      0.1093
     72  NZ         7.3100  -26.8890   19.7130 N.3   361  LYS361     -0.1314
     73  N          4.2760  -19.5630   19.6750 N.am  362  LEU362     -0.1980
     74  CA         4.4950  -18.2250   20.2450 C.3   362  LEU362      0.1596
     75  C          5.7990  -18.1850   21.0530 C.2   362  LEU362      0.2287
     76  O          6.5290  -17.1640   20.9850 O.2   362  LEU362     -0.2864
     77  CB         3.2460  -17.8460   21.0540 C.3   362  LEU362      0.0297
     78  CG         3.1690  -16.4230   21.5270 C.3   362  LEU362      0.0022
     79  CD1        3.1730  -15.4810   20.3820 C.3   362  LEU362      0.0001
     80  CD2        1.8520  -16.3290   22.2790 C.3   362  LEU362      0.0001
     81  N          9.4420  -20.1190   21.3430 N.3   364  VAL364     -0.1245
     82  CA        10.2640  -20.9550   20.4880 C.3   364  VAL364      0.1561
     83  C         11.4980  -21.3510   21.2850 C.2   364  VAL364      0.2260
     84  O         11.7730  -20.7540   22.2620 O.2   364  VAL364     -0.2867
     85  CB        10.5560  -20.2220   19.1710 C.3   364  VAL364      0.0252
     86  CG1       11.3410  -21.0510   18.1640 C.3   364  VAL364      0.0019
     87  CG2        9.2320  -19.8370   18.4940 C.3   364  VAL364      0.0019
     88  N         15.2970  -21.5740   20.5690 N.3   366  LEU366     -0.1245
     89  CA        16.2430  -21.1980   19.5640 C.3   366  LEU366      0.1561
     90  C         17.6260  -21.7910   19.8250 C.2   366  LEU366      0.2260
     91  O         18.6060  -21.3370   19.2870 O.2   366  LEU366     -0.2867
     92  CB        16.3900  -19.6300   19.4470 C.3   366  LEU366      0.0270
     93  CG        15.0970  -18.9620   19.0520 C.3   366  LEU366      0.0019
     94  CD1       15.2720  -17.4410   19.2140 C.3   366  LEU366      0.0001
     95  CD2       14.6900  -19.4000   17.6780 C.3   366  LEU366      0.0001
     96  N         18.8190  -16.8300   15.0580 N.3   371  PRO371     -0.2116
     97  CA        17.6430  -16.0450   15.2350 C.3   371  PRO371      0.1372
     98  C         17.1860  -15.3600   13.9810 C.2   371  PRO371      0.2244
     99  O         16.0050  -15.1750   13.8370 O.2   371  PRO371     -0.2868
    100  CB        18.0700  -14.9770   16.2880 C.3   371  PRO371      0.0268
    101  CG        18.9780  -15.7550   17.1260 C.3   371  PRO371      0.0207
    102  CD        19.8120  -16.5030   16.1010 C.3   371  PRO371      0.0892
    103  N         14.8330  -17.6000   12.1750 N.3   374  ALA374     -0.1231
    104  CA        13.5590  -17.7520   12.8270 C.3   374  ALA374      0.1694
    105  C         12.5990  -16.5570   12.6210 C.2   374  ALA374      0.2592
    106  O         11.4130  -16.7010   12.7750 O.2   374  ALA374     -0.2718
    107  CB        13.7480  -17.9980   14.3160 C.3   374  ALA374      0.0304
    108  N         13.1560  -15.4110   12.3460 N.am  375  TYR375     -0.1962
    109  CA        12.3370  -14.1730   12.3000 C.3   375  TYR375      0.1771
    110  C         11.1420  -14.2870   11.3770 C.2   375  TYR375      0.2620
    111  O         11.2980  -14.7260   10.2270 O.2   375  TYR375     -0.2715
    112  CB        13.2350  -13.0020   11.9010 C.3   375  TYR375      0.0574
    113  CG        12.4860  -11.6900   11.8770 C.ar  375  TYR375     -0.0198
    114  CD1       12.2720  -10.9700   13.0340 C.ar  375  TYR375     -0.0009
    115  CD2       11.9830  -11.1540   10.7280 C.ar  375  TYR375     -0.0009
    116  CE1       11.5270   -9.7950   12.9950 C.ar  375  TYR375      0.0417
    117  CE2       11.2810   -9.9980   10.7050 C.ar  375  TYR375      0.0417
    118  CZ        11.0470   -9.3250   11.8720 C.ar  375  TYR375      0.1957
    119  OH        10.3190   -8.0880   11.8770 O.3   375  TYR375     -0.2866
    120  N          9.9790  -13.8310   11.7730 N.am  376  SER376     -0.1950
    121  CA         8.8030  -13.7940   10.9710 C.3   376  SER376      0.1924
    122  C          7.7580  -12.9080   11.6690 C.2   376  SER376      0.2314
    123  O          7.9480  -12.4220   12.8250 O.2   376  SER376     -0.2863
    124  CB         8.1960  -15.1880   10.8390 C.3   376  SER376      0.2116
    125  OG         7.4090  -15.5810   12.0060 O.3   376  SER376     -0.2180
    126  N          5.0600  -14.0230   12.9460 N.3   378  VAL378     -0.1231
    127  CA         4.3400  -14.8050   13.9700 C.3   378  VAL378      0.1678
    128  C          4.3660  -14.2170   15.3890 C.2   378  VAL378      0.2434
    129  O          3.3240  -14.0790   16.0210 O.2   378  VAL378     -0.2733
    130  CB         4.7510  -16.3030   14.0050 C.3   378  VAL378      0.0265
    131  CG1        4.2220  -17.0380   15.1960 C.3   378  VAL378      0.0020
    132  CG2        4.3880  -16.9380   12.6230 C.3   378  VAL378      0.0020
    133  N          5.5550  -13.8680   15.9350 N.am  379  PRO379     -0.2729
    134  CA         5.5720  -13.2820   17.2950 C.3   379  PRO379      0.1401
    135  C          4.7520  -12.0170   17.3760 C.2   379  PRO379      0.2269
    136  O          4.0800  -11.7260   18.4070 O.2   379  PRO379     -0.2865
    137  CB         7.0400  -13.0790   17.6150 C.3   379  PRO379      0.0296
    138  CG         7.7370  -13.1870   16.3310 C.3   379  PRO379      0.0237
    139  CD         6.9180  -14.0570   15.4290 C.3   379  PRO379      0.0939
@<TRIPOS>BOND
     1   111   110    2
     2   117   115   ar
     3   117   118   ar
     4   115   113   ar
     5   124   121    1
     6   124   125    1
     7   121   122    1
     8   121   120    1
     9   110   120   am
    10   110   109    1
    11    62    60   ar
    12    62    63   ar
    13    60    58   ar
    14   122   123    2
    15   118   119    1
    16   118   116   ar
    17   113   112    1
    18   113   114   ar
    19   112   109    1
    20   103   104    1
    21   109   108    1
    22   108   105   am
    23    63    61   ar
    24   105   106    2
    25   105   104    1
    26   132   130    1
    27    58    57    1
    28    58    59   ar
    29    57    54    1
    30   104   107    1
    31   126   127    1
    32   116   114   ar
    33    61    59   ar
    34    99    98    2
    35    56    55    2
    36    54    55    1
    37    54    53    1
    38   127   130    1
    39   127   128    1
    40    98    97    1
    41   130   131    1
    42    96    97    1
    43    96   102    1
    44    97   100    1
    45   128   133   am
    46   128   129    2
    47   139   133    1
    48   139   138    1
    49   133   134    1
    50   102   101    1
    51     1     2    1
    52   100   101    1
    53   138   137    1
    54    64    65    1
    55    37    38   ar
    56    37    35   ar
    57   134   135    1
    58   134   137    1
    59    38    36   ar
    60   135   136    2
    61    95    93    1
    62     2     5    1
    63     2     3    1
    64    67    66    2
    65    35    33   ar
    66    65    66    1
    67    65    68    1
    68    86    85    1
    69     3     4    2
    70    87    85    1
    71    69    68    1
    72    69    70    1
    73    36    34   ar
    74    66    73   am
    75    71    70    1
    76    71    72    1
    77    93    94    1
    78    93    92    1
    79    85    82    1
    80    91    90    2
    81    33    34   ar
    82    33    32    1
    83    92    89    1
    84    89    90    1
    85    89    88    1
    86    73    74    1
    87    74    75    1
    88    74    77    1
    89    32    29    1
    90    79    78    1
    91    82    83    1
    92    82    81    1
    93    16    18   ar
    94    16    13   ar
    95    18    19   ar
    96    76    75    2
    97    19    17   ar
    98    77    78    1
    99    13    11   ar
   100    13    15   ar
   101    10    11    1
   102    10     7    1
   103    11    12   ar
   104    83    84    2
   105     9     8    2
   106    15    17   ar
   107    15    14   ar
   108    31    30    2
   109    40    43    1
   110    40    39    1
   111    40    41    1
   112    43    44    1
   113    78    80    1
   114    12    14   ar
   115    30    39   am
   116    30    29    1
   117    29    28    1
   118     8     7    1
   119     8    20   am
   120    42    41    2
   121     7     6    1
   122    26    25   ar
   123    44    46   ar
   124    44    45   ar
   125    23    22    2
   126    20    21    1
   127    21    22    1
   128    21    24    1
   129    49    46   ar
   130    49    51   ar
   131    46    48   ar
   132    25    24    1
   133    25    27   ar
   134    45    47   ar
   135    51    52   ar
   136    47    48   ar
   137    48    50   ar
   138    52    50   ar
