@<TRIPOS>MOLECULE
tmp/4l2mB00.pdb
 234 225 0 0 0
SMALL
GASTEIGER

@<TRIPOS>ATOM
      1  N         22.8250  -14.6320    2.6320 N.3    21  TYR21      -0.1241
      2  CA        22.8230  -16.0780    2.4340 C.3    21  TYR21       0.1605
      3  C         24.2040  -16.6310    2.0750 C.2    21  TYR21       0.2264
      4  O         24.5390  -17.7530    2.4590 O.2    21  TYR21      -0.2867
      5  CB        21.7520  -16.5190    1.4090 C.3    21  TYR21       0.0534
      6  CG        20.3770  -16.5990    2.0530 C.ar   21  TYR21      -0.0201
      7  CD1       20.1250  -17.5090    3.0560 C.ar   21  TYR21      -0.0009
      8  CD2       19.3740  -15.6880    1.7220 C.ar   21  TYR21      -0.0009
      9  CE1       18.8940  -17.5700    3.6780 C.ar   21  TYR21       0.0417
     10  CE2       18.1500  -15.7140    2.3550 C.ar   21  TYR21       0.0417
     11  CZ        17.9090  -16.6570    3.3300 C.ar   21  TYR21       0.1957
     12  OH        16.6890  -16.6980    3.9740 O.3    21  TYR21      -0.2866
     13  N         24.4030  -23.1620   11.1140 N.3    30  VAL30      -0.1245
     14  CA        23.0400  -23.1620   10.5670 C.3    30  VAL30       0.1561
     15  C         22.9190  -23.6440    9.1410 C.2    30  VAL30       0.2260
     16  O         21.8150  -23.9420    8.6900 O.2    30  VAL30      -0.2867
     17  CB        22.4030  -21.7750   10.6670 C.3    30  VAL30       0.0252
     18  CG1       22.0890  -21.4430   12.1250 C.3    30  VAL30       0.0019
     19  CG2       23.3120  -20.7200   10.0390 C.3    30  VAL30       0.0019
     20  N         20.7780  -26.5160    7.7520 N.3    33  PHE33      -0.1227
     21  CA        19.3390  -26.3630    7.5210 C.3    33  PHE33       0.1736
     22  C         18.9860  -26.0770    6.0630 C.2    33  PHE33       0.2595
     23  O         17.8720  -26.2580    5.6570 O.2    33  PHE33      -0.2718
     24  CB        18.7760  -25.2560    8.3960 C.3    33  PHE33       0.0547
     25  CG        18.6050  -25.6460    9.8150 C.ar   33  PHE33      -0.0202
     26  CD1       17.3870  -26.1290   10.2690 C.ar   33  PHE33      -0.0042
     27  CD2       19.6520  -25.4970   10.7240 C.ar   33  PHE33      -0.0042
     28  CE1       17.2200  -26.4900   11.6000 C.ar   33  PHE33      -0.0003
     29  CE2       19.4950  -25.8540   12.0450 C.ar   33  PHE33      -0.0003
     30  CZ        18.2790  -26.3620   12.4860 C.ar   33  PHE33      -0.0000
     31  N         19.9570  -25.6270    5.2930 N.am   34  PHE34      -0.1976
     32  CA        19.7110  -25.1730    3.9680 C.3    34  PHE34       0.1639
     33  C         20.2720  -26.1540    2.9030 C.2    34  PHE34       0.2290
     34  O         20.2620  -25.8590    1.6870 O.2    34  PHE34      -0.2864
     35  CB        20.3150  -23.7800    3.7990 C.3    34  PHE34       0.0560
     36  CG        19.6720  -22.7320    4.6700 C.ar   34  PHE34      -0.0200
     37  CD1       20.1750  -22.4470    5.9210 C.ar   34  PHE34      -0.0042
     38  CD2       18.5270  -22.0690    4.2520 C.ar   34  PHE34      -0.0042
     39  CE1       19.5730  -21.4720    6.7240 C.ar   34  PHE34      -0.0003
     40  CE2       17.9040  -21.1410    5.0620 C.ar   34  PHE34      -0.0003
     41  CZ        18.4350  -20.8350    6.2920 C.ar   34  PHE34      -0.0000
     42  N         19.2990  -28.7920    1.5740 N.3    36  ASN36      -0.1225
     43  CA        18.3580  -29.2740    0.5980 C.3    36  ASN36       0.1785
     44  C         17.4070  -28.2120    0.0520 C.2    36  ASN36       0.2597
     45  O         16.4250  -28.5500   -0.5850 O.2    36  ASN36      -0.2718
     46  CB        17.5540  -30.4050    1.2070 C.3    36  ASN36       0.1169
     47  CG        18.3740  -31.6640    1.3780 C.2    36  ASN36       0.2627
     48  OD1       19.4530  -31.8090    0.7820 O.2    36  ASN36      -0.2716
     49  ND2       17.8980  -32.5650    2.2110 N.am   36  ASN36      -0.0877
     50  N         17.7250  -26.9330    0.2810 N.am   37  THR37      -0.1953
     51  CA        16.8110  -25.8260   -0.0760 C.3    37  THR37       0.1897
     52  C         17.1660  -25.1780   -1.4390 C.2    37  THR37       0.2313
     53  O         18.3580  -24.9800   -1.7680 O.2    37  THR37      -0.2863
     54  CB        16.8060  -24.7430    1.0110 C.3    37  THR37       0.1794
     55  OG1       16.3930  -25.3220    2.2460 O.3    37  THR37      -0.2208
     56  CG2       15.8370  -23.6170    0.6690 C.3    37  THR37       0.0378
     57  N         14.4710  -19.4150   -2.0620 N.3    42  GLN42      -0.1245
     58  CA        14.6080  -18.9500   -0.6510 C.3    42  GLN42       0.1566
     59  C         14.9630  -17.4540   -0.5820 C.2    42  GLN42       0.2260
     60  O         14.3040  -16.6690    0.1320 O.2    42  GLN42      -0.2867
     61  CB        15.6630  -19.7800    0.1090 C.3    42  GLN42       0.0367
     62  CG        15.7880  -19.4330    1.5870 C.3    42  GLN42       0.0905
     63  CD        14.4880  -19.6320    2.3450 C.2    42  GLN42       0.2608
     64  OE1       13.8080  -20.6460    2.1750 O.2    42  GLN42      -0.2717
     65  NE2       14.1470  -18.6770    3.2010 N.am   42  GLN42      -0.0878
     66  N         11.8780  -15.4530   -1.5400 N.3    45  HIS45      -0.1226
     67  CA        10.9250  -15.3920   -0.4120 C.3    45  HIS45       0.1752
     68  C         11.3630  -14.3620    0.6320 C.2    45  HIS45       0.2595
     69  O         10.5450  -13.6070    1.1720 O.2    45  HIS45      -0.2718
     70  CB        10.8180  -16.7480    0.2810 C.3    45  HIS45       0.0759
     71  CG        10.1960  -17.8150   -0.5580 C.ar   45  HIS45       0.0818
     72  ND1        9.1930  -17.5600   -1.4710 N.ar   45  HIS45      -0.2268
     73  CD2       10.4010  -19.1530   -0.5870 C.ar   45  HIS45       0.1154
     74  CE1        8.8240  -18.6940   -2.0430 C.ar   45  HIS45       0.1986
     75  NE2        9.5390  -19.6760   -1.5220 N.ar   45  HIS45      -0.2212
     76  N         12.6450  -14.3990    0.9580 N.am   46  GLN46      -0.1979
     77  CA        13.2080  -13.5620    1.9900 C.3    46  GLN46       0.1601
     78  C         13.1450  -12.1090    1.5920 C.2    46  GLN46       0.2287
     79  O         12.8950  -11.2530    2.4260 O.2    46  GLN46      -0.2864
     80  CB        14.6720  -13.9600    2.2800 C.3    46  GLN46       0.0394
     81  CG        15.3340  -13.1700    3.4280 C.3    46  GLN46       0.0908
     82  CD        14.7420  -13.4780    4.8000 C.2    46  GLN46       0.2608
     83  OE1       13.9870  -12.6710    5.3700 O.2    46  GLN46      -0.2717
     84  NE2       15.0880  -14.6410    5.3490 N.am   46  GLN46      -0.0878
     85  N          9.5360  -11.0840    2.2470 N.3    49  PHE49      -0.1227
     86  CA         9.3000  -10.8830    3.6630 C.3    49  PHE49       0.1736
     87  C          9.8410   -9.5400    4.1460 C.2    49  PHE49       0.2595
     88  O          9.1810   -8.8210    4.8930 O.2    49  PHE49      -0.2718
     89  CB         9.9210  -11.9920    4.4850 C.3    49  PHE49       0.0547
     90  CG         9.6900  -11.8370    5.9400 C.ar   49  PHE49      -0.0202
     91  CD1        8.4690  -12.1870    6.4900 C.ar   49  PHE49      -0.0042
     92  CD2       10.6460  -11.2570    6.7520 C.ar   49  PHE49      -0.0042
     93  CE1        8.2230  -12.0080    7.8330 C.ar   49  PHE49      -0.0003
     94  CE2       10.4040  -11.0840    8.0860 C.ar   49  PHE49      -0.0003
     95  CZ         9.1780  -11.4440    8.6280 C.ar   49  PHE49      -0.0000
     96  N         11.0460   -9.2210    3.7180 N.am   50  MET50      -0.1979
     97  CA        11.7300   -8.0320    4.1660 C.3    50  MET50       0.1605
     98  C         11.0920   -6.7770    3.5830 C.2    50  MET50       0.2287
     99  O         11.0080   -5.7320    4.2540 O.2    50  MET50      -0.2864
    100  CB        13.1980   -8.1140    3.7980 C.3    50  MET50       0.0413
    101  CG        14.0380   -8.8380    4.8460 C.3    50  MET50       0.0598
    102  SD        15.7300   -9.0860    4.2850 S.3    50  MET50      -0.1393
    103  CE        16.4990   -9.6950    5.8010 C.3    50  MET50       0.0692
    104  N          2.1150   -9.8660    2.1450 N.3    60  PHE60      -0.1241
    105  CA         3.1000  -10.7640    1.5300 C.3    60  PHE60       0.1605
    106  C          2.4760  -12.1170    1.1890 C.2    60  PHE60       0.2264
    107  O          1.6540  -12.6260    1.9530 O.2    60  PHE60      -0.2867
    108  CB         4.3580  -10.9160    2.4070 C.3    60  PHE60       0.0534
    109  CG         4.1760  -11.8060    3.6080 C.ar   60  PHE60      -0.0203
    110  CD1        4.8910  -12.9940    3.7210 C.ar   60  PHE60      -0.0042
    111  CD2        3.3330  -11.4340    4.6520 C.ar   60  PHE60      -0.0042
    112  CE1        4.7450  -13.8050    4.8360 C.ar   60  PHE60      -0.0003
    113  CE2        3.1880  -12.2450    5.7690 C.ar   60  PHE60      -0.0003
    114  CZ         3.8930  -13.4300    5.8600 C.ar   60  PHE60      -0.0000
    115  N          3.7850  -14.9670    1.1580 N.3    62  GLY62      -0.1210
    116  CA         4.4960  -16.0740    1.7580 C.3    62  GLY62       0.1956
    117  C          3.7160  -16.7720    2.8540 C.2    62  GLY62       0.2611
    118  O          2.6400  -16.3270    3.2600 O.2    62  GLY62      -0.2717
    119  N          4.2620  -17.8890    3.3160 N.am   63  ARG63      -0.1979
    120  CA         3.8040  -18.5230    4.5420 C.3    63  ARG63       0.1597
    121  C          4.1400  -17.6410    5.7240 C.2    63  ARG63       0.2287
    122  O          5.1370  -16.9230    5.7050 O.2    63  ARG63      -0.2864
    123  CB         4.4920  -19.8630    4.7530 C.3    63  ARG63       0.0334
    124  CG         4.6530  -20.7200    3.5110 C.3    63  ARG63       0.0492
    125  CD         5.0320  -22.1300    3.9060 C.3    63  ARG63       0.2205
    126  NE         4.0070  -22.7170    4.7700 N.pl3  63  ARG63      -0.0865
    127  CZ         4.2330  -23.6380    5.6990 C.cat  63  ARG63       0.5346
    128  NH1        5.4580  -24.1030    5.9050 N.pl3  63  ARG63       0.1354
    129  NH2        3.2260  -24.0990    6.4240 N.pl3  63  ARG63       0.1354
    130  N          5.7680  -17.0260    9.3260 N.3    65  MET65      -0.1245
    131  CA         7.0400  -17.4500    9.8880 C.3    65  MET65       0.1570
    132  C          6.8860  -18.6770   10.7780 C.2    65  MET65       0.2261
    133  O          7.7470  -19.5400   10.7970 O.2    65  MET65      -0.2867
    134  CB         7.6520  -16.3110   10.6820 C.3    65  MET65       0.0387
    135  CG         8.1290  -15.1670    9.8160 C.3    65  MET65       0.0595
    136  SD         9.5230  -15.6310    8.7620 S.3    65  MET65      -0.1393
    137  CE         8.6820  -16.0410    7.2260 C.3    65  MET65       0.0692
    138  N          6.2490  -21.4670    8.3780 N.3    68  ALA68      -0.1231
    139  CA         7.4130  -21.6580    7.5190 C.3    68  ALA68       0.1694
    140  C          8.5240  -22.4600    8.2120 C.2    68  ALA68       0.2592
    141  O          9.3320  -23.1080    7.5520 O.2    68  ALA68      -0.2718
    142  CB         7.9470  -20.3090    7.0350 C.3    68  ALA68       0.0304
    143  N          8.5430  -22.4400    9.5350 N.am   69  HIS69      -0.1976
    144  CA         9.6440  -23.0590   10.2820 C.3    69  HIS69       0.1656
    145  C          9.2180  -24.2670   11.1850 C.2    69  HIS69       0.2291
    146  O         10.0620  -24.8970   11.8350 O.2    69  HIS69      -0.2864
    147  CB        10.3630  -21.9860   11.0900 C.3    69  HIS69       0.0771
    148  CG        10.9050  -20.8640   10.2490 C.ar   69  HIS69       0.0820
    149  ND1       10.2780  -19.6480   10.1380 N.ar   69  HIS69      -0.2267
    150  CD2       12.0090  -20.7880    9.4750 C.ar   69  HIS69       0.1154
    151  CE1       10.9830  -18.8640    9.3500 C.ar   69  HIS69       0.1986
    152  NE2       12.0260  -19.5430    8.9160 N.ar   69  HIS69      -0.2212
    153  N         10.8330  -27.7530   10.8340 N.3    72  LEU72      -0.1245
    154  CA        12.2090  -27.6010   11.3320 C.3    72  LEU72       0.1561
    155  C         12.2950  -27.6220   12.8660 C.2    72  LEU72       0.2260
    156  O         13.2540  -28.1360   13.4330 O.2    72  LEU72      -0.2867
    157  CB        12.8050  -26.2840   10.8320 C.3    72  LEU72       0.0270
    158  CG        12.9080  -26.0760    9.3240 C.3    72  LEU72       0.0019
    159  CD1       13.2980  -24.6450    9.0230 C.3    72  LEU72       0.0001
    160  CD2       13.9240  -27.0380    8.7150 C.3    72  LEU72       0.0001
    161  N         15.5990  -27.2960   15.6900 N.3    78  LEU78      -0.1245
    162  CA        15.7590  -25.8330   15.5230 C.3    78  LEU78       0.1561
    163  C         15.3970  -25.0670   16.7950 C.2    78  LEU78       0.2260
    164  O         14.2530  -25.0950   17.2330 O.2    78  LEU78      -0.2867
    165  CB        14.8940  -25.3410   14.3860 C.3    78  LEU78       0.0270
    166  CG        15.0490  -23.8480   14.0440 C.3    78  LEU78       0.0019
    167  CD1       16.2940  -23.6030   13.2240 C.3    78  LEU78       0.0001
    168  CD2       13.8180  -23.3390   13.3070 C.3    78  LEU78       0.0001
    169  N         20.3590  -21.3230   16.8950 N.3    82  HIS82      -0.1226
    170  CA        20.2050  -21.1240   15.4200 C.3    82  HIS82       0.1752
    171  C         19.5390  -19.7950   15.1000 C.2    82  HIS82       0.2596
    172  O         20.0120  -19.0410   14.2460 O.2    82  HIS82      -0.2718
    173  CB        19.4010  -22.2800   14.8060 C.3    82  HIS82       0.0759
    174  CG        19.9100  -23.6310   15.2030 C.ar   82  HIS82       0.0818
    175  ND1       19.1730  -24.5110   15.9510 N.ar   82  HIS82      -0.2268
    176  CD2       21.1170  -24.2160   15.0170 C.ar   82  HIS82       0.1154
    177  CE1       19.8880  -25.5960   16.1900 C.ar   82  HIS82       0.1986
    178  NE2       21.0740  -25.4390   15.6330 N.ar   82  HIS82      -0.2212
    179  N         18.4490  -19.5050   15.8070 N.am   83  PHE83      -0.1976
    180  CA        17.8130  -18.1820   15.7340 C.3    83  PHE83       0.1639
    181  C         18.8380  -17.0450   15.8580 C.2    83  PHE83       0.2290
    182  O         18.8470  -16.1180   15.0370 O.2    83  PHE83      -0.2864
    183  CB        16.6990  -18.0310   16.8140 C.3    83  PHE83       0.0560
    184  CG        15.9150  -16.7450   16.6950 C.ar   83  PHE83      -0.0200
    185  CD1       14.8420  -16.6370   15.7900 C.ar   83  PHE83      -0.0042
    186  CD2       16.2700  -15.6270   17.4360 C.ar   83  PHE83      -0.0042
    187  CE1       14.1460  -15.4540   15.6600 C.ar   83  PHE83      -0.0003
    188  CE2       15.5620  -14.4410   17.3100 C.ar   83  PHE83      -0.0003
    189  CZ        14.5140  -14.3480   16.3920 C.ar   83  PHE83      -0.0000
    190  N         21.3720  -16.6160   12.8190 N.3    86  ILE86      -0.1231
    191  CA        20.7420  -15.9820   11.6870 C.3    86  ILE86       0.1692
    192  C         20.7130  -14.4740   11.8880 C.2    86  ILE86       0.2591
    193  O         21.2010  -13.7180   11.0240 O.2    86  ILE86      -0.2718
    194  CB        19.3070  -16.5430   11.4610 C.3    86  ILE86       0.0266
    195  CG1       19.3810  -17.9640   10.8990 C.3    86  ILE86       0.0019
    196  CG2       18.5090  -15.6640   10.5210 C.3    86  ILE86       0.0020
    197  CD1       20.0940  -18.0820    9.5520 C.3    86  ILE86       0.0001
    198  N         20.1870  -14.0240   13.0350 N.am   87  ALA87      -0.1980
    199  CA        20.1140  -12.5630   13.3150 C.3    87  ALA87       0.1597
    200  C         21.5010  -11.9610   13.2150 C.2    87  ALA87       0.2287
    201  O         21.6920  -10.9110   12.6420 O.2    87  ALA87      -0.2864
    202  CB        19.5130  -12.2930   14.7070 C.3    87  ALA87       0.0319
    203  N         22.7120  -11.5000    9.6390 N.3    90  LEU90      -0.1245
    204  CA        22.0870  -10.3470    9.0310 C.3    90  LEU90       0.1561
    205  C         22.7980   -9.0460    9.4910 C.2    90  LEU90       0.2260
    206  O         23.0440   -8.1470    8.6960 O.2    90  LEU90      -0.2867
    207  CB        20.6030  -10.3030    9.3450 C.3    90  LEU90       0.0270
    208  CG        19.8510   -9.2090    8.5810 C.3    90  LEU90       0.0019
    209  CD1       20.2170   -9.2070    7.0830 C.3    90  LEU90       0.0001
    210  CD2       18.3620   -9.3690    8.7600 C.3    90  LEU90       0.0001
    211  N         14.2630   -8.4400   13.1810 N.3   111  VAL111     -0.1245
    212  CA        14.7550   -9.8060   13.0370 C.3   111  VAL111      0.1561
    213  C         15.1560  -10.4390   14.3710 C.2   111  VAL111      0.2260
    214  O         15.1940  -11.6300   14.4770 O.2   111  VAL111     -0.2867
    215  CB        15.9240   -9.9120   12.0300 C.3   111  VAL111      0.0252
    216  CG1       15.4920   -9.4100   10.6820 C.3   111  VAL111      0.0019
    217  CG2       17.1640   -9.1900   12.5340 C.3   111  VAL111      0.0019
    218  N          9.5190  -12.3750   16.7140 N.3   116  HIS116     -0.1245
    219  CA        10.0060  -13.1460   15.6020 C.3   116  HIS116      0.1576
    220  C         10.5770  -14.4730   16.0790 C.2   116  HIS116      0.2261
    221  O         10.4230  -15.4870   15.4240 O.2   116  HIS116     -0.2867
    222  CB        11.0400  -12.3670   14.8380 C.3   116  HIS116      0.0459
    223  CG        11.5560  -13.0780   13.6260 C.3   116  HIS116      0.0936
    224  ND1       10.7250  -13.6460   12.6810 N.3   116  HIS116     -0.1997
    225  CD2       12.8220  -13.3790   13.2560 C.3   116  HIS116      0.1077
    226  CE1       11.4660  -14.1810   11.7140 C.3   116  HIS116      0.1782
    227  NE2       12.7490  -14.1760   12.1300 N.3   116  HIS116     -0.1983
    228  N          9.2620  -18.1470   14.7760 N.3   120  VAL120     -0.1245
    229  CA        10.1490  -19.0730   14.0910 C.3   120  VAL120      0.1561
    230  C         10.2890  -20.3600   14.8920 C.2   120  VAL120      0.2260
    231  O         10.2420  -21.4600   14.3240 O.2   120  VAL120     -0.2867
    232  CB        11.5560  -18.4470   13.8540 C.3   120  VAL120      0.0252
    233  CG1       12.5270  -19.4750   13.2900 C.3   120  VAL120      0.0019
    234  CG2       11.4620  -17.2720   12.9120 C.3   120  VAL120      0.0019
@<TRIPOS>BOND
     1    57    58    1
     2    74    75   ar
     3    74    72   ar
     4    53    52    2
     5    66    67    1
     6    75    73   ar
     7    72    71   ar
     8    52    51    1
     9    58    59    1
    10    58    61    1
    11    73    71   ar
    12    45    44    2
    13    59    60    2
    14    71    70    1
    15    67    70    1
    16    67    68    1
    17    51    50    1
    18    51    54    1
    19    44    50   am
    20    44    43    1
    21    61    62    1
    22    43    46    1
    23    43    42    1
    24    68    76   am
    25    68    69    2
    26    56    54    1
    27    48    47    2
    28    76    77    1
    29    54    55    1
    30   115   116    1
    31   106   105    1
    32   106   107    2
    33    46    47    1
    34    47    49   am
    35     5     6    1
    36     5     2    1
    37   105   104    1
    38   105   108    1
    39    62    63    1
    40    78    77    1
    41    78    79    2
    42    34    33    2
    43     8     6   ar
    44     8    10   ar
    45   116   117    1
    46    77    80    1
    47     6     7   ar
    48     3     2    1
    49     3     4    2
    50    64    63    2
    51    85    86    1
    52    80    81    1
    53    63    65   am
    54    10    11   ar
    55   108   109    1
    56     2     1    1
    57   117   118    2
    58   117   119   am
    59    33    32    1
    60     7     9   ar
    61   119   120    1
    62    11     9   ar
    63    11    12    1
    64    81    82    1
    65   124   125    1
    66   124   123    1
    67    98    97    1
    68    98    99    2
    69   109   110   ar
    70   109   111   ar
    71    86    87    1
    72    86    89    1
    73    96    87   am
    74    96    97    1
    75   110   112   ar
    76   100    97    1
    77   100   101    1
    78    35    32    1
    79    35    36    1
    80   125   126    1
    81    32    31    1
    82    87    88    2
    83    38    36   ar
    84    38    40   ar
    85   102   101    1
    86   102   103    1
    87    89    90    1
    88   120   123    1
    89   120   121    1
    90   111   113   ar
    91    36    37   ar
    92   126   127    2
    93    82    84   am
    94    82    83    2
    95   112   114   ar
    96    40    41   ar
    97    31    22   am
    98    23    22    2
    99   127   128    1
   100   127   129    1
   101   122   121    2
   102   113   114   ar
   103    37    39   ar
   104    90    91   ar
   105    90    92   ar
   106    22    21    1
   107    41    39   ar
   108    91    93   ar
   109    92    94   ar
   110   142   139    1
   111   209   208    1
   112   137   136    1
   113   139   140    1
   114   139   138    1
   115    21    20    1
   116    21    24    1
   117   141   140    2
   118    93    95   ar
   119    94    95   ar
   120   140   143   am
   121    24    25    1
   122   208   210    1
   123   208   207    1
   124    16    15    2
   125   206   205    2
   126   160   158    1
   127   136   135    1
   128   152   151   ar
   129   152   150   ar
   130   159   158    1
   131   204   207    1
   132   204   205    1
   133   204   203    1
   134    15    14    1
   135   158   157    1
   136   130   131    1
   137   151   149   ar
   138   150   148   ar
   139   143   144    1
   140   197   195    1
   141    25    26   ar
   142    25    27   ar
   143   135   134    1
   144   131   134    1
   145   131   132    1
   146    19    17    1
   147   149   148   ar
   148   148   147    1
   149    26    28   ar
   150   144   147    1
   151   144   145    1
   152   196   194    1
   153    14    17    1
   154    14    13    1
   155    17    18    1
   156   216   215    1
   157    27    29   ar
   158   132   133    2
   159   157   154    1
   160   153   154    1
   161   195   194    1
   162   193   192    2
   163   145   146    2
   164   154   155    1
   165   194   191    1
   166    28    30   ar
   167   191   192    1
   168   191   190    1
   169   226   227    1
   170   226   224    1
   171   192   198   am
   172   215   217    1
   173   215   212    1
   174    29    30   ar
   175   227   225    1
   176   201   200    2
   177   224   223    1
   178   155   156    2
   179   234   232    1
   180   198   199    1
   181   212   211    1
   182   212   213    1
   183   200   199    1
   184   167   166    1
   185   225   223    1
   186   233   232    1
   187   168   166    1
   188   199   202    1
   189   223   222    1
   190   232   229    1
   191   166   165    1
   192   229   228    1
   193   229   230    1
   194   172   171    2
   195   231   230    2
   196   213   214    2
   197   165   162    1
   198   173   174    1
   199   173   170    1
   200   222   219    1
   201   176   174   ar
   202   176   178   ar
   203   182   181    2
   204   171   170    1
   205   171   179   am
   206   174   175   ar
   207   170   169    1
   208   221   220    2
   209   162   161    1
   210   162   163    1
   211   219   220    1
   212   219   218    1
   213   178   177   ar
   214   187   185   ar
   215   187   189   ar
   216   180   179    1
   217   180   181    1
   218   180   183    1
   219   185   184   ar
   220   175   177   ar
   221   189   188   ar
   222   184   183    1
   223   184   186   ar
   224   163   164    2
   225   188   186   ar
