@<TRIPOS>MOLECULE
tmp/4l2oB01.pdb
 158 153 0 0 0
SMALL
GASTEIGER

@<TRIPOS>ATOM
      1  N         59.2990  -10.2780    5.3320 N.3    60  TYR60      -0.1227
      2  CA        59.3840  -10.7730    6.7110 C.3    60  TYR60       0.1736
      3  C         59.1780   -9.7260    7.8090 C.2    60  TYR60       0.2595
      4  O         59.1790  -10.0590    8.9960 O.2    60  TYR60      -0.2718
      5  CB        60.7000  -11.5280    6.9340 C.3    60  TYR60       0.0548
      6  CG        60.7530  -12.8660    6.2310 C.ar   60  TYR60      -0.0200
      7  CD1       60.1180  -13.9850    6.7730 C.ar   60  TYR60      -0.0009
      8  CD2       61.4350  -13.0150    5.0240 C.ar   60  TYR60      -0.0009
      9  CE1       60.1600  -15.2140    6.1320 C.ar   60  TYR60       0.0417
     10  CE2       61.4840  -14.2410    4.3750 C.ar   60  TYR60       0.0417
     11  CZ        60.8440  -15.3340    4.9340 C.ar   60  TYR60       0.1957
     12  OH        60.8890  -16.5530    4.2970 O.3    60  TYR60      -0.2866
     13  N         58.9990   -8.4680    7.4140 N.am   61  GLU61      -0.1965
     14  CA        58.6640   -7.4080    8.3680 C.3    61  GLU61       0.1733
     15  C         57.3500   -6.7090    8.0200 C.2    61  GLU61       0.2616
     16  O         57.0150   -5.6820    8.6150 O.2    61  GLU61      -0.2715
     17  CB        59.7920   -6.3770    8.4690 C.3    61  GLU61       0.0429
     18  CG        61.0640   -6.8900    9.1220 C.3    61  GLU61       0.1163
     19  CD        62.1480   -5.8310    9.2110 C.2    61  GLU61       0.3649
     20  OE1       61.9460   -4.7030    8.7140 O.co2  61  GLU61      -0.2457
     21  OE2       63.2140   -6.1300    9.7790 O.co2  61  GLU61      -0.2457
     22  N         56.6130   -7.2650    7.0600 N.am   62  GLU62      -0.1977
     23  CA        55.3310   -6.6910    6.6460 C.3    62  GLU62       0.1602
     24  C         54.3830   -7.7200    6.0190 C.2    62  GLU62       0.2287
     25  O         53.4070   -8.1310    6.6480 O.2    62  GLU62      -0.2864
     26  CB        55.5520   -5.5030    5.6970 C.3    62  GLU62       0.0415
     27  CG        54.2760   -4.7710    5.3060 C.3    62  GLU62       0.1163
     28  CD        54.5140   -3.3430    4.8460 C.2    62  GLU62       0.3649
     29  OE1       55.6830   -2.8960    4.7990 O.co2  62  GLU62      -0.2457
     30  OE2       53.5170   -2.6610    4.5370 O.co2  62  GLU62      -0.2457
     31  N         52.8710  -11.3130    7.4860 N.3    65  TYR65      -0.1241
     32  CA        51.8960  -11.2450    8.5690 C.3    65  TYR65       0.1605
     33  C         50.4750  -11.0100    8.0630 C.2    65  TYR65       0.2264
     34  O         49.5090  -11.3790    8.7320 O.2    65  TYR65      -0.2867
     35  CB        52.3100  -10.1930    9.5990 C.3    65  TYR65       0.0534
     36  CG        53.6020  -10.5460   10.3000 C.ar   65  TYR65      -0.0201
     37  CD1       53.6290  -11.5170   11.3020 C.ar   65  TYR65      -0.0009
     38  CD2       54.8030   -9.9330    9.9430 C.ar   65  TYR65      -0.0009
     39  CE1       54.8110  -11.8570   11.9380 C.ar   65  TYR65       0.0417
     40  CE2       55.9920  -10.2660   10.5760 C.ar   65  TYR65       0.0417
     41  CZ        55.9880  -11.2280   11.5740 C.ar   65  TYR65       0.1957
     42  OH        57.1620  -11.5660   12.2080 O.3    65  TYR65      -0.2866
     43  N         54.0380    1.3080    7.1290 N.3   115  TYR115     -0.1241
     44  CA        53.8510   -0.0620    6.6690 C.3   115  TYR115      0.1605
     45  C         52.6110   -0.0470    5.7750 C.2   115  TYR115      0.2264
     46  O         51.5360   -0.4930    6.1800 O.2   115  TYR115     -0.2867
     47  CB        53.7150   -1.0300    7.8500 C.3   115  TYR115      0.0534
     48  CG        54.9810   -1.1410    8.6740 C.ar  115  TYR115     -0.0201
     49  CD1       55.2540   -0.2300    9.6960 C.ar  115  TYR115     -0.0009
     50  CD2       55.9150   -2.1460    8.4230 C.ar  115  TYR115     -0.0009
     51  CE1       56.4160   -0.3190   10.4460 C.ar  115  TYR115      0.0417
     52  CE2       57.0820   -2.2430    9.1690 C.ar  115  TYR115      0.0417
     53  CZ        57.3260   -1.3240   10.1790 C.ar  115  TYR115      0.1957
     54  OH        58.4800   -1.4090   10.9260 O.3   115  TYR115     -0.2866
     55  N         50.6710   -3.5690    4.9890 N.3   118  ASN118     -0.1225
     56  CA        50.1200   -4.1750    6.1940 C.3   118  ASN118      0.1785
     57  C         48.9890   -3.3520    6.8090 C.2   118  ASN118      0.2597
     58  O         47.9510   -3.8940    7.1790 O.2   118  ASN118     -0.2718
     59  CB        51.2220   -4.4160    7.2280 C.3   118  ASN118      0.1169
     60  CG        50.7600   -5.2880    8.3780 C.2   118  ASN118      0.2627
     61  OD1       50.9810   -6.4990    8.3770 O.2   118  ASN118     -0.2716
     62  ND2       50.1040   -4.6790    9.3630 N.am  118  ASN118     -0.0877
     63  N         49.1910   -2.0410    6.8960 N.am  119  LEU119     -0.1980
     64  CA        48.2470   -1.1710    7.5980 C.3   119  LEU119      0.1596
     65  C         47.1050   -0.6710    6.7160 C.2   119  LEU119      0.2287
     66  O         46.3080    0.1740    7.1320 O.2   119  LEU119     -0.2864
     67  CB        48.9870   -0.0210    8.2870 C.3   119  LEU119      0.0297
     68  CG        49.9200   -0.5050    9.4030 C.3   119  LEU119      0.0022
     69  CD1       50.9090    0.5760    9.8030 C.3   119  LEU119      0.0001
     70  CD2       49.1350   -0.9970   10.6120 C.3   119  LEU119      0.0001
     71  N         45.8050   -5.5950    6.2540 N.3   122  GLN122     -0.1245
     72  CA        45.4810   -6.3800    7.4550 C.3   122  GLN122      0.1566
     73  C         44.1240   -5.9840    8.0690 C.2   122  GLN122      0.2260
     74  O         43.3080   -6.8650    8.3410 O.2   122  GLN122     -0.2867
     75  CB        46.6160   -6.4100    8.4950 C.3   122  GLN122      0.0367
     76  CG        46.3940   -7.4620    9.5820 C.3   122  GLN122      0.0905
     77  CD        47.6680   -7.9870   10.2320 C.2   122  GLN122      0.2608
     78  OE1       47.6070   -8.6850   11.2460 O.2   122  GLN122     -0.2717
     79  NE2       48.8210   -7.6680    9.6530 N.am  122  GLN122     -0.0878
     80  N         67.2370   -3.4780   17.3930 N.3   233  TRP233     -0.1241
     81  CA        66.4530   -4.0970   16.3280 C.3   233  TRP233      0.1605
     82  C         65.1030   -3.4440   16.1590 C.2   233  TRP233      0.2264
     83  O         64.6900   -3.1330   15.0390 O.2   233  TRP233     -0.2867
     84  CB        66.3080   -5.5900   16.6000 C.3   233  TRP233      0.0550
     85  CG        65.2590   -6.2780   15.7640 C.ar  233  TRP233      0.0003
     86  CD1       65.3240   -6.6020   14.4110 C.ar  233  TRP233      0.0946
     87  CD2       63.9420   -6.7550   16.2080 C.ar  233  TRP233      0.0152
     88  NE1       64.1730   -7.2270   14.0020 N.ar  233  TRP233     -0.2442
     89  CE2       63.3050   -7.3540   15.0300 C.ar  233  TRP233      0.0810
     90  CE3       63.2550   -6.7500   17.4170 C.ar  233  TRP233      0.0012
     91  CZ2       62.0330   -7.9090   15.0840 C.ar  233  TRP233      0.0191
     92  CZ3       61.9750   -7.3150   17.4580 C.ar  233  TRP233      0.0001
     93  CH2       61.3800   -7.8780   16.3190 C.ar  233  TRP233      0.0015
     94  N         64.7240   -0.6190   12.8020 N.3   237  MET237     -0.1245
     95  CA        64.0000   -1.1700   11.6510 C.3   237  MET237      0.1570
     96  C         63.1430   -0.0740   11.0180 C.2   237  MET237      0.2261
     97  O         62.6750    0.8340   11.7140 O.2   237  MET237     -0.2867
     98  CB        63.1440   -2.3850   12.0410 C.3   237  MET237      0.0387
     99  CG        61.9900   -2.0980   12.9970 C.3   237  MET237      0.0595
    100  SD        60.7290   -3.3940   13.0270 S.3   237  MET237     -0.1393
    101  CE        61.6720   -4.7830   13.6390 C.3   237  MET237      0.0692
    102  N         58.4160    3.2310   13.0660 N.3   242  THR242     -0.1203
    103  CA        57.5050    2.2070   13.5530 C.3   242  THR242      0.1994
    104  C         56.7490    2.7610   14.7470 C.2   242  THR242      0.2618
    105  O         57.3450    3.3140   15.6720 O.2   242  THR242     -0.2717
    106  CB        58.2550    0.9170   13.9410 C.3   242  THR242      0.1784
    107  OG1       59.0750    0.4950   12.8440 O.3   242  THR242     -0.2211
    108  CG2       57.2820   -0.2030   14.2990 C.3   242  THR242      0.0376
    109  N         55.4300    2.6210   14.7030 N.am  243  CYS243     -0.1969
    110  CA        54.5510    3.1090   15.7560 C.3   243  CYS243      0.1712
    111  C         54.8460    2.4590   17.1060 C.2   243  CYS243      0.2296
    112  O         54.6960    3.0970   18.1440 O.2   243  CYS243     -0.2864
    113  CB        53.1010    2.8600   15.3670 C.3   243  CYS243      0.0983
    114  SG        52.7850    1.1650   14.8260 S.3   243  CYS243     -0.0798
    115  N         58.3920   -4.8670   19.7950 N.3   391  ILE391     -0.1245
    116  CA        57.6710   -5.1390   18.5360 C.3   391  ILE391      0.1561
    117  C         56.8050   -6.4120   18.5340 C.2   391  ILE391      0.2260
    118  O         55.6380   -6.3620   18.1480 O.2   391  ILE391     -0.2867
    119  CB        58.6130   -5.1590   17.2940 C.3   391  ILE391      0.0252
    120  CG1       59.6820   -4.0480   17.3550 C.3   391  ILE391      0.0019
    121  CG2       57.8110   -5.1130   15.9960 C.3   391  ILE391      0.0019
    122  CD1       59.1690   -2.6270   17.2330 C.3   391  ILE391      0.0001
    123  N         52.8030   -7.3730   18.7050 N.3   394  ILE394     -0.1231
    124  CA        51.8620   -7.0050   17.6360 C.3   394  ILE394      0.1692
    125  C         51.7490   -8.0730   16.5380 C.2   394  ILE394      0.2592
    126  O         50.9360   -7.9430   15.6190 O.2   394  ILE394     -0.2718
    127  CB        52.2280   -5.6460   16.9840 C.3   394  ILE394      0.0266
    128  CG1       53.4750   -5.7850   16.0950 C.3   394  ILE394      0.0019
    129  CG2       52.3950   -4.5660   18.0470 C.3   394  ILE394      0.0020
    130  CD1       53.8180   -4.5610   15.2710 C.3   394  ILE394      0.0001
    131  N         52.5620   -9.1220   16.6350 N.am  395  THR395     -0.1953
    132  CA        52.6270  -10.1500   15.5900 C.3   395  THR395      0.1897
    133  C         51.8760  -11.4280   15.9630 C.2   395  THR395      0.2313
    134  O         51.8520  -12.3900   15.1900 O.2   395  THR395     -0.2863
    135  CB        54.0880  -10.5070   15.2340 C.3   395  THR395      0.1794
    136  OG1       54.7210  -11.1490   16.3490 O.3   395  THR395     -0.2208
    137  CG2       54.8770   -9.2590   14.8470 C.3   395  THR395      0.0378
    138  N         45.6190   -5.8400   19.1320 N.3   401  PHE401     -0.1241
    139  CA        46.5100   -4.7010   18.9580 C.3   401  PHE401      0.1605
    140  C         45.7390   -3.3870   18.8970 C.2   401  PHE401      0.2264
    141  O         44.8520   -3.2090   18.0600 O.2   401  PHE401     -0.2867
    142  CB        47.3700   -4.8720   17.7000 C.3   401  PHE401      0.0534
    143  CG        48.0900   -3.6180   17.2820 C.ar  401  PHE401     -0.0203
    144  CD1       49.0940   -3.0730   18.0790 C.ar  401  PHE401     -0.0042
    145  CD2       47.7610   -2.9770   16.0920 C.ar  401  PHE401     -0.0042
    146  CE1       49.7530   -1.9140   17.6970 C.ar  401  PHE401     -0.0003
    147  CE2       48.4170   -1.8160   15.7050 C.ar  401  PHE401     -0.0003
    148  CZ        49.4160   -1.2850   16.5080 C.ar  401  PHE401     -0.0000
    149  N         43.2600   -7.3790   14.9110 N.3   413  HIS413     -0.1241
    150  CA        44.1320   -8.5640   14.7900 C.3   413  HIS413      0.1621
    151  C         43.4170   -9.7980   15.2510 C.2   413  HIS413      0.2264
    152  O         42.8150   -9.8130   16.3290 O.2   413  HIS413     -0.2867
    153  CB        45.4540   -8.4120   15.5450 C.3   413  HIS413      0.0745
    154  CG        46.4290   -7.4620   14.8920 C.ar  413  HIS413      0.0817
    155  ND1       47.7180   -7.3830   15.2670 N.ar  413  HIS413     -0.2268
    156  CD2       46.2670   -6.5490   13.8510 C.ar  413  HIS413      0.1154
    157  CE1       48.3470   -6.4590   14.5190 C.ar  413  HIS413      0.1986
    158  NE2       47.4590   -5.9490   13.6520 N.ar  413  HIS413     -0.2212
@<TRIPOS>BOND
     1    12    11    1
     2    10    11   ar
     3    10     8   ar
     4    30    28   ar
     5    29    28   ar
     6    28    27    1
     7    11     9   ar
     8    55    56    1
     9     8     6   ar
    10    27    26    1
    11     1     2    1
    12    26    23    1
    13    45    46    2
    14    45    44    1
    15    24    23    1
    16    24    25    2
    17     9     7   ar
    18    56    57    1
    19    56    59    1
    20     6     7   ar
    21     6     5    1
    22    71    72    1
    23    23    22    1
    24    44    43    1
    25    44    47    1
    26     2     5    1
    27     2     3    1
    28    65    66    2
    29    65    64    1
    30    57    63   am
    31    57    58    2
    32    63    64    1
    33    22    15   am
    34    59    60    1
    35    13     3   am
    36    13    14    1
    37    72    73    1
    38    72    75    1
    39    31    32    1
    40    64    67    1
    41     3     4    2
    42    47    48    1
    43    15    14    1
    44    15    16    2
    45    33    32    1
    46    33    34    2
    47    73    74    2
    48    67    68    1
    49    14    17    1
    50    61    60    2
    51    60    62   am
    52    50    48   ar
    53    50    52   ar
    54    17    18    1
    55    75    76    1
    56    32    35    1
    57    48    49   ar
    58    20    19   ar
    59    18    19    1
    60    52    53   ar
    61    19    21   ar
    62    68    69    1
    63    68    70    1
    64    76    77    1
    65    35    36    1
    66    79    77   am
    67    49    51   ar
    68    38    36   ar
    69    38    40   ar
    70    53    51   ar
    71    53    54    1
    72    77    78    2
    73    36    37   ar
    74    40    41   ar
    75    96    95    1
    76    96    97    2
    77    37    39   ar
    78    41    39   ar
    79    41    42    1
    80    95    98    1
    81    95    94    1
    82    98    99    1
    83   107   106    1
    84    99   100    1
    85   100   101    1
    86   102   103    1
    87   103   106    1
    88   103   104    1
    89   158   156   ar
    90   158   157   ar
    91   156   154   ar
    92   106   108    1
    93    88    86   ar
    94    88    89   ar
    95    86    85   ar
    96   157   155   ar
    97   109   104   am
    98   109   110    1
    99   104   105    2
   100   150   149    1
   101   150   151    1
   102   150   153    1
   103   114   113    1
   104   137   135    1
   105   154   155   ar
   106   154   153    1
   107    89    91   ar
   108    89    87   ar
   109    83    82    2
   110    91    93   ar
   111   134   133    2
   112   135   132    1
   113   135   136    1
   114   151   152    2
   115   130   128    1
   116   113   110    1
   117   132   133    1
   118   132   131    1
   119   126   125    2
   120   147   145   ar
   121   147   148   ar
   122   110   111    1
   123    85    87   ar
   124    85    84    1
   125   121   119    1
   126   145   143   ar
   127   128   127    1
   128    82    81    1
   129    87    90   ar
   130    93    92   ar
   131    81    84    1
   132    81    80    1
   133   148   146   ar
   134   125   131   am
   135   125   124    1
   136   127   124    1
   137   127   129    1
   138   111   112    2
   139   122   120    1
   140   143   142    1
   141   143   144   ar
   142   119   120    1
   143   119   116    1
   144    90    92   ar
   145   124   123    1
   146   146   144   ar
   147   142   139    1
   148   141   140    2
   149   118   117    2
   150   117   116    1
   151   116   115    1
   152   140   139    1
   153   139   138    1
