@<TRIPOS>MOLECULE
tmp/4l2xA00.pdb
 235 221 0 0 0
SMALL
GASTEIGER

@<TRIPOS>ATOM
      1  N          2.6400   30.5880   -3.2550 N.3    53  ARG53      -0.1245
      2  CA         2.6930   29.1520   -3.5330 C.3    53  ARG53       0.1563
      3  C          1.9500   28.3370   -2.4980 C.2    53  ARG53       0.2260
      4  O          1.1920   27.4100   -2.8360 O.2    53  ARG53      -0.2867
      5  CB         4.1360   28.6950   -3.6140 C.3    53  ARG53       0.0307
      6  CG         4.8500   29.1380   -4.8700 C.3    53  ARG53       0.0489
      7  CD         6.3400   28.8330   -4.7270 C.3    53  ARG53       0.2205
      8  NE         7.1320   29.5350   -5.7360 N.pl3  53  ARG53      -0.0865
      9  CZ         7.5340   30.7900   -5.5970 C.cat  53  ARG53       0.5346
     10  NH1        7.2600   31.4720   -4.4830 N.pl3  53  ARG53       0.1354
     11  NH2        8.2120   31.3570   -6.5810 N.pl3  53  ARG53       0.1354
     12  N         10.5450   26.7450   -0.9070 N.3    89  GLN89      -0.1245
     13  CA        10.9180   28.0670   -1.3970 C.3    89  GLN89       0.1566
     14  C         12.0310   28.6130   -0.5260 C.2    89  GLN89       0.2260
     15  O         13.0010   29.0730   -1.0310 O.2    89  GLN89      -0.2867
     16  CB         9.7210   29.0210   -1.3470 C.3    89  GLN89       0.0367
     17  CG        10.0210   30.4540   -1.7870 C.3    89  GLN89       0.0905
     18  CD        10.2660   30.5510   -3.2670 C.2    89  GLN89       0.2608
     19  OE1       10.5690   29.5730   -3.9280 O.2    89  GLN89      -0.2717
     20  NE2       10.1230   31.7440   -3.8020 N.am   89  GLN89      -0.0878
     21  N         14.2680   27.2650    1.2130 N.3    91  PHE91      -0.1227
     22  CA        15.4970   26.5460    1.0570 C.3    91  PHE91       0.1736
     23  C         16.1610   27.0060   -0.2330 C.2    91  PHE91       0.2595
     24  O         17.3390   27.3130   -0.2500 O.2    91  PHE91      -0.2718
     25  CB        15.1540   25.0330    1.1060 C.3    91  PHE91       0.0547
     26  CG        15.9940   24.1680    0.2410 C.ar   91  PHE91      -0.0202
     27  CD1       17.2820   23.8040    0.6370 C.ar   91  PHE91      -0.0042
     28  CD2       15.4930   23.6630   -0.9500 C.ar   91  PHE91      -0.0042
     29  CE1       18.0640   22.9710   -0.1660 C.ar   91  PHE91      -0.0003
     30  CE2       16.2710   22.8200   -1.7330 C.ar   91  PHE91      -0.0003
     31  CZ        17.5620   22.4810   -1.3500 C.ar   91  PHE91      -0.0000
     32  N         15.4120   27.0890   -1.3150 N.am   92  PHE92      -0.1962
     33  CA        15.9970   27.5780   -2.5630 C.3    92  PHE92       0.1771
     34  C         16.5400   29.0190   -2.4300 C.2    92  PHE92       0.2619
     35  O         17.6170   29.3340   -2.9030 O.2    92  PHE92      -0.2715
     36  CB        14.9600   27.5440   -3.6720 C.3    92  PHE92       0.0574
     37  CG        14.5470   26.1680   -4.1100 C.ar   92  PHE92      -0.0200
     38  CD1       15.4650   25.0990   -4.1650 C.ar   92  PHE92      -0.0042
     39  CD2       13.2380   25.9390   -4.5280 C.ar   92  PHE92      -0.0042
     40  CE1       15.0720   23.8400   -4.6070 C.ar   92  PHE92      -0.0003
     41  CE2       12.8410   24.6930   -4.9880 C.ar   92  PHE92      -0.0003
     42  CZ        13.7570   23.6410   -5.0330 C.ar   92  PHE92      -0.0000
     43  N         15.8030   29.8910   -1.7650 N.am   93  LEU93      -0.1977
     44  CA        16.2170   31.2730   -1.6650 C.3    93  LEU93       0.1596
     45  C         17.4630   31.4260   -0.8300 C.2    93  LEU93       0.2287
     46  O         18.3700   32.1230   -1.2200 O.2    93  LEU93      -0.2864
     47  CB        15.1030   32.1330   -1.0570 C.3    93  LEU93       0.0297
     48  CG        13.8480   32.1810   -1.9420 C.3    93  LEU93       0.0022
     49  CD1       12.8850   33.2710   -1.4680 C.3    93  LEU93       0.0001
     50  CD2       14.1540   32.2980   -3.4490 C.3    93  LEU93       0.0001
     51  N         19.8800   29.6200   -0.3790 N.3    95  ALA95      -0.1231
     52  CA        21.0130   29.1460   -1.1140 C.3    95  ALA95       0.1694
     53  C         21.2080   29.8360   -2.4790 C.2    95  ALA95       0.2592
     54  O         22.3490   29.9970   -2.9060 O.2    95  ALA95      -0.2718
     55  CB        20.8910   27.6350   -1.2760 C.3    95  ALA95       0.0304
     56  N         20.1430   30.2070   -3.1900 N.am   96  ASP96      -0.1960
     57  CA        20.2940   31.0300   -4.4480 C.3    96  ASP96       0.1840
     58  C         20.9090   32.4460   -4.1540 C.2    96  ASP96       0.2622
     59  O         21.6020   33.0040   -4.9930 O.2    96  ASP96      -0.2715
     60  CB        18.9580   31.1500   -5.1680 C.3    96  ASP96       0.1450
     61  CG        18.9890   32.0560   -6.4410 C.2    96  ASP96       0.3671
     62  OD1       18.5730   33.2460   -6.3770 O.co2  96  ASP96      -0.2456
     63  OD2       19.2930   31.5570   -7.5560 O.co2  96  ASP96      -0.2456
     64  N         20.6770   32.9830   -2.9530 N.am   97  ASP97      -0.1971
     65  CA        21.2800   34.2380   -2.5190 C.3    97  ASP97       0.1709
     66  C         22.8150   34.1570   -2.3540 C.2    97  ASP97       0.2293
     67  O         23.5480   35.0650   -2.7150 O.2    97  ASP97      -0.2864
     68  CB        20.6060   34.7390   -1.2170 C.3    97  ASP97       0.1436
     69  CG        19.1640   35.2690   -1.4690 C.2    97  ASP97       0.3671
     70  OD1       18.8770   35.5440   -2.6730 O.co2  97  ASP97      -0.2456
     71  OD2       18.3420   35.3840   -0.4970 O.co2  97  ASP97      -0.2456
     72  N         24.6550   31.7800   -3.9480 N.3    99  MET99      -0.1230
     73  CA        25.0960   31.5500   -5.3120 C.3    99  MET99       0.1702
     74  C         25.0040   32.7770   -6.1890 C.2    99  MET99       0.2592
     75  O         25.7540   32.9160   -7.1130 O.2    99  MET99      -0.2718
     76  CB        24.3370   30.3730   -5.9480 C.3    99  MET99       0.0401
     77  CG        24.6810   29.0030   -5.3310 C.3    99  MET99       0.0596
     78  SD        23.5230   27.6510   -5.7160 S.3    99  MET99      -0.1393
     79  CE        23.7490   27.6710   -7.4810 C.3    99  MET99       0.0692
     80  N         24.0830   33.6770   -5.9090 N.am  100  ASP100     -0.1974
     81  CA        23.8620   34.8340   -6.7850 C.3   100  ASP100      0.1709
     82  C         24.5310   36.0920   -6.2340 C.2   100  ASP100      0.2293
     83  O         24.5270   37.1270   -6.8900 O.2   100  ASP100     -0.2864
     84  CB        22.3530   35.0330   -6.9650 C.3   100  ASP100      0.1436
     85  CG        21.7560   34.0910   -8.0030 C.2   100  ASP100      0.3671
     86  OD1       22.5080   33.4910   -8.7750 O.co2 100  ASP100     -0.2456
     87  OD2       20.5290   34.0100   -8.1180 O.co2 100  ASP100     -0.2456
     88  N         23.6990   37.8760   -3.7610 N.3   102  SER102     -0.1217
     89  CA        22.6550   38.8510   -3.5270 C.3   102  SER102      0.1889
     90  C         22.8330   39.5100   -2.1730 C.2   102  SER102      0.2288
     91  O         23.5350   38.9730   -1.3160 O.2   102  SER102     -0.2866
     92  CB        21.2910   38.1620   -3.6750 C.3   102  SER102      0.2089
     93  OG        20.9660   38.0810   -5.0810 O.3   102  SER102     -0.2183
     94  N         16.6980   40.1910    0.6590 N.3   105  ARG105     -0.1245
     95  CA        15.5890   39.3280    0.2390 C.3   105  ARG105      0.1563
     96  C         14.3850   39.6630    1.1210 C.2   105  ARG105      0.2260
     97  O         14.5140   39.7710    2.3600 O.2   105  ARG105     -0.2867
     98  CB        16.0170   37.8560    0.4490 C.3   105  ARG105      0.0307
     99  CG        14.9430   36.7730    0.3140 C.3   105  ARG105      0.0489
    100  CD        14.5490   36.5980   -1.1480 C.3   105  ARG105      0.2205
    101  NE        15.6220   36.0870   -1.9730 N.pl3 105  ARG105     -0.0865
    102  CZ        15.4940   35.8450   -3.2810 C.cat 105  ARG105      0.5346
    103  NH1       14.3470   36.0650   -3.8700 N.pl3 105  ARG105      0.1354
    104  NH2       16.5100   35.3970   -4.0210 N.pl3 105  ARG105      0.1354
    105  N         14.2140   21.3400  -10.3550 N.3   160  THR160     -0.1203
    106  CA        14.5130   22.7230  -10.0370 C.3   160  THR160      0.1994
    107  C         16.0280   22.8680   -9.8980 C.2   160  THR160      0.2617
    108  O         16.6050   23.8540  -10.3410 O.2   160  THR160     -0.2717
    109  CB        13.6740   23.1900   -8.8160 C.3   160  THR160      0.1784
    110  OG1       12.3170   23.2850   -9.2400 O.3   160  THR160     -0.2211
    111  CG2       14.0920   24.5380   -8.3060 C.3   160  THR160      0.0376
    112  N         16.6860   21.8530   -9.3600 N.am  161  GLU161     -0.1979
    113  CA        18.1560   21.8450   -9.3260 C.3   161  GLU161      0.1602
    114  C         18.6800   21.6870  -10.7230 C.2   161  GLU161      0.2287
    115  O         19.7030   22.2890  -11.1040 O.2   161  GLU161     -0.2864
    116  CB        18.6710   20.8010   -8.3610 C.3   161  GLU161      0.0415
    117  CG        18.2330   21.1290   -6.9200 C.3   161  GLU161      0.1163
    118  CD        18.0940   19.9260   -6.0050 C.2   161  GLU161      0.3649
    119  OE1       18.2660   18.7850   -6.4830 O.co2 161  GLU161     -0.2457
    120  OE2       17.8160   20.1160   -4.7970 O.co2 161  GLU161     -0.2457
    121  N         18.4280   25.1970  -12.0540 N.3   164  GLN164     -0.1245
    122  CA        19.5210   25.9580  -11.4710 C.3   164  GLN164      0.1566
    123  C         20.8920   25.7020  -12.1070 C.2   164  GLN164      0.2260
    124  O         21.6440   26.6250  -12.3620 O.2   164  GLN164     -0.2867
    125  CB        19.6420   25.6860   -9.9910 C.3   164  GLN164      0.0367
    126  CG        20.5830   26.6740   -9.2800 C.3   164  GLN164      0.0905
    127  CD        19.9900   28.0770   -9.0460 C.2   164  GLN164      0.2608
    128  OE1       19.2840   28.6220   -9.8830 O.2   164  GLN164     -0.2717
    129  NE2       20.2880   28.6530   -7.9010 N.am  164  GLN164     -0.0878
    130  N         21.0010   27.6170  -15.2880 N.3   167  ASP167     -0.1239
    131  CA        21.0800   29.0260  -14.9680 C.3   167  ASP167      0.1674
    132  C         22.5520   29.4350  -14.7540 C.2   167  ASP167      0.2266
    133  O         22.9770   30.4970  -15.1920 O.2   167  ASP167     -0.2867
    134  CB        20.2290   29.3030  -13.7270 C.3   167  ASP167      0.1410
    135  CG        20.1820   30.7800  -13.3570 C.2   167  ASP167      0.3668
    136  OD1       19.5720   31.5720  -14.1380 O.co2 167  ASP167     -0.2456
    137  OD2       20.7430   31.1200  -12.2790 O.co2 167  ASP167     -0.2456
    138  N         13.7450   25.7900  -13.6300 N.3   193  LYS193     -0.1231
    139  CA        14.0500   26.4460  -12.3700 C.3   193  LYS193      0.1693
    140  C         12.8570   27.0500  -11.6800 C.2   193  LYS193      0.2592
    141  O         12.8510   27.1410  -10.4670 O.2   193  LYS193     -0.2718
    142  CB        15.2010   27.4700  -12.4730 C.3   193  LYS193      0.0285
    143  CG        15.1110   28.6360  -13.4470 C.3   193  LYS193      0.0035
    144  CD        15.8080   29.8530  -12.7890 C.3   193  LYS193      0.0206
    145  CE        15.9770   31.0840  -13.6920 C.3   193  LYS193      0.1093
    146  NZ        16.3560   32.3100  -12.9050 N.3   193  LYS193     -0.1314
    147  N         11.8250   27.4240  -12.4170 N.am  194  THR194     -0.1953
    148  CA        10.7350   28.1440  -11.7710 C.3   194  THR194      0.1897
    149  C          9.3740   27.4670  -11.8610 C.2   194  THR194      0.2313
    150  O          8.6630   27.3440  -10.8490 O.2   194  THR194     -0.2863
    151  CB        10.6480   29.5640  -12.3530 C.3   194  THR194      0.1794
    152  OG1       11.9370   30.1960  -12.2210 O.3   194  THR194     -0.2208
    153  CG2        9.5740   30.3810  -11.6130 C.3   194  THR194      0.0378
    154  N          8.0610   24.0470   -9.7790 N.3   197  TYR197     -0.1241
    155  CA         7.8760   24.1170   -8.3220 C.3   197  TYR197      0.1605
    156  C          7.0110   25.2730   -7.8780 C.2   197  TYR197      0.2264
    157  O          6.4880   25.2350   -6.7340 O.2   197  TYR197     -0.2867
    158  CB         9.2260   24.1690   -7.5600 C.3   197  TYR197      0.0534
    159  CG         9.7230   25.5690   -7.2110 C.ar  197  TYR197     -0.0201
    160  CD1       10.2060   26.4330   -8.2020 C.ar  197  TYR197     -0.0009
    161  CD2        9.7140   26.0210   -5.8980 C.ar  197  TYR197     -0.0009
    162  CE1       10.6710   27.6900   -7.8810 C.ar  197  TYR197      0.0417
    163  CE2       10.1610   27.2880   -5.5710 C.ar  197  TYR197      0.0417
    164  CZ        10.6370   28.1190   -6.5550 C.ar  197  TYR197      0.1957
    165  OH        11.0670   29.4010   -6.2510 O.3   197  TYR197     -0.2866
    166  N          5.8690   34.1290  -15.3260 N.3   232  PHE232     -0.1227
    167  CA         6.2240   34.6320  -14.0080 C.3   232  PHE232      0.1736
    168  C          7.7330   34.8910  -13.8350 C.2   232  PHE232      0.2595
    169  O          8.1300   35.6910  -12.9820 O.2   232  PHE232     -0.2718
    170  CB         5.7590   33.6400  -12.9580 C.3   232  PHE232      0.0547
    171  CG         6.0980   34.0090  -11.5450 C.ar  232  PHE232     -0.0202
    172  CD1        7.3160   33.6590  -10.9940 C.ar  232  PHE232     -0.0042
    173  CD2        5.1550   34.6060  -10.7180 C.ar  232  PHE232     -0.0042
    174  CE1        7.5890   33.9200   -9.6590 C.ar  232  PHE232     -0.0003
    175  CE2        5.4330   34.8670   -9.3750 C.ar  232  PHE232     -0.0003
    176  CZ         6.6610   34.5400   -8.8540 C.ar  232  PHE232     -0.0000
    177  N          8.5830   34.1870  -14.5830 N.am  233  GLN233     -0.1979
    178  CA        10.0210   34.3070  -14.3450 C.3   233  GLN233      0.1601
    179  C         10.5500   35.4800  -15.1480 C.2   233  GLN233      0.2287
    180  O         11.4780   36.1790  -14.7260 O.2   233  GLN233     -0.2864
    181  CB        10.7450   33.0220  -14.6950 C.3   233  GLN233      0.0394
    182  CG        12.2590   33.0770  -14.5010 C.3   233  GLN233      0.0908
    183  CD        12.6500   33.4080  -13.1000 C.2   233  GLN233      0.2608
    184  OE1       12.1770   32.7980  -12.1800 O.2   233  GLN233     -0.2717
    185  NE2       13.4950   34.4150  -12.9280 N.am  233  GLN233     -0.0878
    186  N          9.8820   38.1880  -13.1140 N.3   236  ASP236     -0.1225
    187  CA        11.0110   38.2120  -12.1640 C.3   236  ASP236      0.1805
    188  C         12.3110   38.8210  -12.7310 C.2   236  ASP236      0.2597
    189  O         13.0770   39.4900  -12.0110 O.2   236  ASP236     -0.2718
    190  CB        11.2880   36.8120  -11.6360 C.3   236  ASP236      0.1424
    191  CG        12.4420   36.7980  -10.6930 C.2   236  ASP236      0.3668
    192  OD1       12.2840   37.2680   -9.5160 O.co2 236  ASP236     -0.2456
    193  OD2       13.5300   36.3530  -11.1730 O.co2 236  ASP236     -0.2456
    194  N         12.5570   38.6030  -14.0170 N.am  237  ASP237     -0.1974
    195  CA        13.7440   39.1590  -14.6460 C.3   237  ASP237      0.1709
    196  C         13.6070   40.6640  -14.8810 C.2   237  ASP237      0.2293
    197  O         14.6020   41.4040  -14.7130 O.2   237  ASP237     -0.2864
    198  CB        14.0650   38.4270  -15.9370 C.3   237  ASP237      0.1436
    199  CG        14.5130   36.9770  -15.6900 C.2   237  ASP237      0.3671
    200  OD1       14.7320   36.6000  -14.5000 O.co2 237  ASP237     -0.2456
    201  OD2       14.6080   36.2360  -16.7010 O.co2 237  ASP237     -0.2456
    202  N         14.0250   42.5150  -11.5960 N.3   240  ASP240     -0.1239
    203  CA        15.3740   42.4800  -11.0980 C.3   240  ASP240      0.1674
    204  C         15.9650   43.8870  -11.2970 C.2   240  ASP240      0.2266
    205  O         16.5070   44.5100  -10.3550 O.2   240  ASP240     -0.2867
    206  CB        16.1840   41.4270  -11.8610 C.3   240  ASP240      0.1410
    207  CG        17.5770   41.2190  -11.2730 C.2   240  ASP240      0.3668
    208  OD1       18.5500   41.6530  -11.9210 O.co2 240  ASP240     -0.2456
    209  OD2       17.6840   40.6550  -10.1510 O.co2 240  ASP240     -0.2456
    210  N         14.1390   43.2090   -2.7290 N.3   250  LYS250     -0.1245
    211  CA        15.4300   42.6990   -3.1460 C.3   250  LYS250      0.1561
    212  C         16.0730   43.5630   -4.2310 C.2   250  LYS250      0.2260
    213  O         15.4000   44.0800   -5.1570 O.2   250  LYS250     -0.2867
    214  CB        15.3420   41.2110   -3.5880 C.3   250  LYS250      0.0271
    215  CG        14.7740   40.9560   -4.9850 C.3   250  LYS250      0.0035
    216  CD        14.0510   39.6010   -5.1220 C.3   250  LYS250      0.0206
    217  CE        13.5950   39.4140   -6.5760 C.3   250  LYS250      0.1093
    218  NZ        12.9590   38.1010   -6.8840 N.3   250  LYS250     -0.1314
    219  N         21.1640   40.3680  -12.0590 N.3   254  ASP254     -0.1239
    220  CA        21.2640   39.6110  -13.2930 C.3   254  ASP254      0.1674
    221  C         22.4600   40.1070  -14.1240 C.2   254  ASP254      0.2266
    222  O         23.2290   39.3050  -14.6380 O.2   254  ASP254     -0.2867
    223  CB        19.9600   39.6460  -14.1120 C.3   254  ASP254      0.1410
    224  CG        18.7570   38.9400  -13.4100 C.2   254  ASP254      0.3668
    225  OD1       18.9360   38.3370  -12.3180 O.co2 254  ASP254     -0.2456
    226  OD2       17.6110   39.0200  -13.9700 O.co2 254  ASP254     -0.2456
    227  N         23.7000   36.9770  -16.1550 N.3   259  LYS259     -0.1245
    228  CA        22.5520   36.0600  -16.2950 C.3   259  LYS259      0.1561
    229  C         21.8320   36.0990  -17.6130 C.2   259  LYS259      0.2260
    230  O         21.7700   37.1130  -18.2890 O.2   259  LYS259     -0.2867
    231  CB        21.5420   36.2970  -15.2130 C.3   259  LYS259      0.0271
    232  CG        22.0290   35.8920  -13.8220 C.3   259  LYS259      0.0035
    233  CD        22.1670   34.3890  -13.7080 C.3   259  LYS259      0.0206
    234  CE        22.9780   34.0150  -12.5050 C.3   259  LYS259      0.1093
    235  NZ        22.2730   34.2110  -11.2090 N.3   259  LYS259     -0.1314
@<TRIPOS>BOND
     1   230   229    2
     2   229   228    1
     3   201   199   ar
     4   228   227    1
     5   228   231    1
     6   198   199    1
     7   198   195    1
     8   199   200   ar
     9   166   167    1
    10   130   131    1
    11   231   232    1
    12   133   132    2
    13   179   180    2
    14   179   178    1
    15   131   132    1
    16   131   134    1
    17   196   197    2
    18   196   195    1
    19   181   182    1
    20   181   178    1
    21   195   194    1
    22   222   221    2
    23   177   178    1
    24   177   168   am
    25   182   183    1
    26   136   135   ar
    27   221   220    1
    28   223   224    1
    29   223   220    1
    30   194   188   am
    31   167   168    1
    32   167   170    1
    33   226   224   ar
    34   168   169    2
    35   232   233    1
    36   134   135    1
    37   233   234    1
    38   145   146    1
    39   145   144    1
    40   138   139    1
    41   143   144    1
    42   143   142    1
    43   224   225   ar
    44   135   137   ar
    45   220   219    1
    46   186   187    1
    47   183   185   am
    48   183   184    2
    49   170   171    1
    50   188   187    1
    51   188   189    2
    52   234   235    1
    53   142   139    1
    54   147   148    1
    55   147   140   am
    56   139   140    1
    57   124   123    2
    58   151   152    1
    59   151   148    1
    60   151   153    1
    61   187   190    1
    62   123   122    1
    63   121   122    1
    64   208   207   ar
    65   206   207    1
    66   206   203    1
    67   149   148    1
    68   149   150    2
    69   140   141    2
    70   190   191    1
    71   202   203    1
    72   171   172   ar
    73   171   173   ar
    74   122   125    1
    75   204   203    1
    76   204   205    2
    77   207   209   ar
    78   193   191   ar
    79   115   114    2
    80   172   174   ar
    81   114   113    1
    82   173   175   ar
    83   191   192   ar
    84   105   106    1
    85   108   107    2
    86   106   107    1
    87   106   109    1
    88   125   126    1
    89   107   112   am
    90   128   127    2
    91   154   155    1
    92   174   176   ar
    93   175   176   ar
    94   112   113    1
    95   113   116    1
    96   126   127    1
    97   110   109    1
    98   127   129   am
    99   109   111    1
   100    86    85   ar
   101   116   117    1
   102   155   156    1
   103   155   158    1
   104   160   162   ar
   105   160   159   ar
   106    87    85   ar
   107    85    84    1
   108   162   164   ar
   109   156   157    2
   110   158   159    1
   111    63    61   ar
   112    79    78    1
   113   159   161   ar
   114    75    74    2
   115    84    81    1
   116   117   118    1
   117    83    82    2
   118   218   217    1
   119    81    82    1
   120    81    80    1
   121    11     9    1
   122   217   216    1
   123   164   165    1
   124   164   163   ar
   125   119   118   ar
   126    61    62   ar
   127    61    60    1
   128    74    80   am
   129    74    73    1
   130   118   120   ar
   131    76    77    1
   132    76    73    1
   133   161   163   ar
   134     8     9    2
   135     8     7    1
   136    78    77    1
   137     9    10    1
   138    73    72    1
   139    60    57    1
   140   213   212    2
   141   216   215    1
   142    93    92    1
   143    42    41   ar
   144    42    40   ar
   145    59    58    2
   146    41    39   ar
   147   215   214    1
   148     6     7    1
   149     6     5    1
   150    40    38   ar
   151    39    37   ar
   152    57    58    1
   153    57    56    1
   154   212   211    1
   155    38    37   ar
   156    58    64   am
   157    37    36    1
   158   104   102    1
   159    19    18    2
   160   103   102    1
   161    20    18   am
   162    88    89    1
   163    92    89    1
   164    36    33    1
   165     5     2    1
   166   214   211    1
   167     2     1    1
   168     2     3    1
   169    89    90    1
   170    50    48    1
   171   102   101    2
   172    18    17    1
   173    56    53   am
   174   211   210    1
   175    64    65    1
   176    54    53    2
   177    35    34    2
   178     4     3    2
   179    67    66    2
   180    70    69   ar
   181    33    34    1
   182    33    32    1
   183    65    66    1
   184    65    68    1
   185    53    52    1
   186    34    43   am
   187    90    91    2
   188   101   100    1
   189    48    49    1
   190    48    47    1
   191    17    16    1
   192    43    44    1
   193    30    31   ar
   194    30    28   ar
   195    44    47    1
   196    44    45    1
   197    69    68    1
   198    69    71   ar
   199    13    16    1
   200    13    12    1
   201    13    14    1
   202    31    29   ar
   203    32    23   am
   204    55    52    1
   205    46    45    2
   206   100    99    1
   207    52    51    1
   208    15    14    2
   209    28    26   ar
   210    24    23    2
   211    23    22    1
   212    29    27   ar
   213    95    98    1
   214    95    94    1
   215    95    96    1
   216    26    27   ar
   217    26    25    1
   218    99    98    1
   219    22    25    1
   220    22    21    1
   221    96    97    2
