@<TRIPOS>MOLECULE
tmp/4l2yA00.pdb
 195 181 0 0 0
SMALL
GASTEIGER

@<TRIPOS>ATOM
      1  N        -31.8320   55.9140  -37.4080 N.3   720  MET720     -0.1230
      2  CA       -32.9330   55.0190  -37.7590 C.3   720  MET720      0.1702
      3  C        -34.0430   55.0870  -36.7020 C.2   720  MET720      0.2593
      4  O        -33.8780   55.7280  -35.6630 O.2   720  MET720     -0.2718
      5  CB       -32.4200   53.5910  -37.9820 C.3   720  MET720      0.0401
      6  CG       -31.4290   53.4710  -39.1340 C.3   720  MET720      0.0596
      7  SD       -30.9780   51.7770  -39.5710 S.3   720  MET720     -0.1393
      8  CE       -32.4280   51.2430  -40.4810 C.3   720  MET720      0.0692
      9  N        -35.1690   54.4330  -36.9770 N.am  721  SER721     -0.1938
     10  CA       -36.3780   54.5710  -36.1580 C.3   721  SER721      0.2055
     11  C        -36.3210   53.9080  -34.7730 C.2   721  SER721      0.2643
     12  O        -37.0330   54.3280  -33.8550 O.2   721  SER721     -0.2714
     13  CB       -37.5980   54.0620  -36.9310 C.3   721  SER721      0.2130
     14  OG       -37.4430   52.6980  -37.2730 O.3   721  SER721     -0.2179
     15  N        -35.4760   52.8870  -34.6280 N.am  722  SER722     -0.1949
     16  CA       -35.3930   52.0870  -33.4000 C.3   722  SER722      0.1924
     17  C        -35.0010   52.8820  -32.1530 C.2   722  SER722      0.2314
     18  O        -34.4390   53.9810  -32.2460 O.2   722  SER722     -0.2863
     19  CB       -34.4220   50.9170  -33.5880 C.3   722  SER722      0.2116
     20  OG       -34.7240   50.1850  -34.7640 O.3   722  SER722     -0.2180
     21  N        -27.4850   55.2290  -39.6600 N.3   728  TRP728     -0.1241
     22  CA       -27.3380   54.8940  -41.0710 C.3   728  TRP728      0.1605
     23  C        -26.3310   55.8330  -41.6680 C.2   728  TRP728      0.2264
     24  O        -26.6610   56.9630  -42.0290 O.2   728  TRP728     -0.2867
     25  CB       -28.6820   55.0150  -41.7810 C.3   728  TRP728      0.0550
     26  CG       -28.7030   54.5150  -43.2140 C.ar  728  TRP728      0.0003
     27  CD1      -28.0310   55.0450  -44.3170 C.ar  728  TRP728      0.0946
     28  CD2      -29.4690   53.3800  -43.7510 C.ar  728  TRP728      0.0152
     29  NE1      -28.3100   54.3270  -45.4520 N.ar  728  TRP728     -0.2442
     30  CE2      -29.1650   53.3210  -45.1860 C.ar  728  TRP728      0.0810
     31  CE3      -30.3400   52.4440  -43.2080 C.ar  728  TRP728      0.0012
     32  CZ2      -29.7210   52.3620  -46.0160 C.ar  728  TRP728      0.0191
     33  CZ3      -30.8900   51.4750  -44.0560 C.ar  728  TRP728      0.0001
     34  CH2      -30.5850   51.4360  -45.4260 C.ar  728  TRP728      0.0015
     35  N        -24.6590   50.5070  -41.4130 N.3   748  ILE748     -0.1245
     36  CA       -25.4860   50.7650  -40.2420 C.3   748  ILE748      0.1561
     37  C        -24.6540   50.5040  -38.9920 C.2   748  ILE748      0.2260
     38  O        -24.1720   49.3860  -38.7780 O.2   748  ILE748     -0.2867
     39  CB       -26.7780   49.9110  -40.2360 C.3   748  ILE748      0.0252
     40  CG1      -27.7000   50.3220  -41.3930 C.3   748  ILE748      0.0019
     41  CG2      -27.5160   50.0500  -38.9060 C.3   748  ILE748      0.0019
     42  CD1      -28.8320   49.3570  -41.6780 C.3   748  ILE748      0.0001
     43  N        -24.7740   50.1390  -35.0830 N.3   750  LYS750     -0.1245
     44  CA       -25.7380   49.8400  -34.0310 C.3   750  LYS750      0.1561
     45  C        -25.0280   49.7500  -32.6960 C.2   750  LYS750      0.2260
     46  O        -24.0230   49.0560  -32.5660 O.2   750  LYS750     -0.2867
     47  CB       -26.4570   48.5240  -34.3240 C.3   750  LYS750      0.0271
     48  CG       -27.9350   48.5100  -33.9660 C.3   750  LYS750      0.0035
     49  CD       -28.5810   47.2190  -34.4490 C.3   750  LYS750      0.0206
     50  CE       -30.0490   47.4130  -34.8020 C.3   750  LYS750      0.1093
     51  NZ       -30.9220   47.6860  -33.6240 N.3   750  LYS750     -0.1314
     52  N        -27.6890   46.5560  -29.3950 N.3   753  ASP753     -0.1239
     53  CA       -28.0510   45.1700  -29.6660 C.3   753  ASP753      0.1674
     54  C        -26.8140   44.3070  -29.8130 C.2   753  ASP753      0.2266
     55  O        -25.8280   44.7140  -30.4400 O.2   753  ASP753     -0.2867
     56  CB       -28.8970   45.0620  -30.9360 C.3   753  ASP753      0.1410
     57  CG       -30.3700   45.3530  -30.6940 C.2   753  ASP753      0.3668
     58  OD1      -30.8390   45.2270  -29.5380 O.co2 753  ASP753     -0.2456
     59  OD2      -31.0650   45.7020  -31.6720 O.co2 753  ASP753     -0.2456
     60  N        -24.9150   41.8240  -31.6220 N.3   755  LEU755     -0.1245
     61  CA       -24.9280   41.4360  -33.0320 C.3   755  LEU755      0.1561
     62  C        -24.1230   40.1740  -33.3140 C.2   755  LEU755      0.2260
     63  O        -23.8070   39.8840  -34.4660 O.2   755  LEU755     -0.2867
     64  CB       -24.4190   42.5800  -33.9180 C.3   755  LEU755      0.0270
     65  CG       -25.3380   43.7650  -34.2130 C.3   755  LEU755      0.0019
     66  CD1      -24.5650   44.7980  -35.0130 C.3   755  LEU755      0.0001
     67  CD2      -26.5900   43.3400  -34.9670 C.3   755  LEU755      0.0001
     68  N        -26.4520   37.4260  -35.1360 N.3   758  ASP758     -0.1239
     69  CA       -26.5300   37.7600  -36.5600 C.3   758  ASP758      0.1674
     70  C        -25.2170   37.4680  -37.2790 C.2   758  ASP758      0.2266
     71  O        -25.2150   36.9120  -38.3780 O.2   758  ASP758     -0.2867
     72  CB       -26.9080   39.2270  -36.7600 C.3   758  ASP758      0.1410
     73  CG       -28.3920   39.4640  -36.6430 C.2   758  ASP758      0.3668
     74  OD1      -28.8970   39.5300  -35.5050 O.co2 758  ASP758     -0.2456
     75  OD2      -29.0560   39.5940  -37.6910 O.co2 758  ASP758     -0.2456
     76  N        -25.1130   34.8340  -40.3410 N.3   762  LEU762     -0.1245
     77  CA       -24.6260   35.2220  -41.6610 C.3   762  LEU762      0.1561
     78  C        -23.4040   34.4120  -42.0990 C.2   762  LEU762      0.2260
     79  O        -23.2410   34.1260  -43.2910 O.2   762  LEU762     -0.2867
     80  CB       -24.3730   36.7270  -41.7260 C.3   762  LEU762      0.0270
     81  CG       -25.6710   37.5460  -41.6480 C.3   762  LEU762      0.0019
     82  CD1      -25.4110   38.9340  -41.0890 C.3   762  LEU762      0.0001
     83  CD2      -26.3930   37.6250  -42.9890 C.3   762  LEU762      0.0001
     84  N        -24.7430   39.4550  -46.0580 N.3   784  TYR784     -0.1241
     85  CA       -24.1620   40.7900  -46.0320 C.3   784  TYR784      0.1605
     86  C        -23.1760   40.9000  -44.8820 C.2   784  TYR784      0.2264
     87  O        -23.1720   40.0600  -43.9830 O.2   784  TYR784     -0.2867
     88  CB       -25.2600   41.8640  -45.9390 C.3   784  TYR784      0.0534
     89  CG       -26.2680   41.6400  -44.8280 C.ar  784  TYR784     -0.0201
     90  CD1      -26.0540   42.1640  -43.5470 C.ar  784  TYR784     -0.0009
     91  CD2      -27.4360   40.9090  -45.0570 C.ar  784  TYR784     -0.0009
     92  CE1      -26.9670   41.9540  -42.5260 C.ar  784  TYR784      0.0417
     93  CE2      -28.3550   40.6940  -44.0410 C.ar  784  TYR784      0.0417
     94  CZ       -28.1120   41.2150  -42.7800 C.ar  784  TYR784      0.1957
     95  OH       -29.0150   41.0040  -41.7730 O.3   784  TYR784     -0.2866
     96  N        -21.5170   41.8370  -41.4940 N.3   786  CYS786     -0.1235
     97  CA       -21.9440   42.0890  -40.1200 C.3   786  CYS786      0.1677
     98  C        -20.8020   41.7590  -39.1750 C.2   786  CYS786      0.2270
     99  O        -20.2810   40.6430  -39.1880 O.2   786  CYS786     -0.2867
    100  CB       -23.1710   41.2580  -39.7550 C.3   786  CYS786      0.0956
    101  SG       -23.6820   41.4620  -38.0330 S.3   786  CYS786     -0.0801
    102  N        -23.2040   46.7680  -39.6270 N.3   796  ILE796     -0.1231
    103  CA       -23.9990   46.0150  -40.5910 C.3   796  ILE796      0.1692
    104  C        -23.8440   46.6630  -41.9660 C.2   796  ILE796      0.2592
    105  O        -24.0680   47.8660  -42.1250 O.2   796  ILE796     -0.2718
    106  CB       -25.4950   46.0220  -40.1980 C.3   796  ILE796      0.0266
    107  CG1      -25.6960   45.3380  -38.8410 C.3   796  ILE796      0.0019
    108  CG2      -26.3540   45.3870  -41.2900 C.3   796  ILE796      0.0020
    109  CD1      -27.0090   45.6650  -38.1620 C.3   796  ILE796      0.0001
    110  N        -23.4560   45.8600  -42.9510 N.am  797  GLU797     -0.1966
    111  CA       -23.3580   46.3120  -44.3320 C.3   797  GLU797      0.1733
    112  C        -24.7490   46.6010  -44.8750 C.2   797  GLU797      0.2616
    113  O        -25.6900   45.8500  -44.6180 O.2   797  GLU797     -0.2715
    114  CB       -22.6970   45.2350  -45.1870 C.3   797  GLU797      0.0429
    115  CG       -22.3810   45.6550  -46.6130 C.3   797  GLU797      0.1163
    116  CD       -22.2510   44.4820  -47.5720 C.2   797  GLU797      0.3649
    117  OE1      -21.9690   43.3490  -47.1330 O.co2 797  GLU797     -0.2457
    118  OE2      -22.4260   44.7000  -48.7860 O.co2 797  GLU797     -0.2457
    119  N        -24.8700   47.6940  -45.6230 N.am  798  VAL798     -0.1963
    120  CA       -26.1210   48.0410  -46.2880 C.3   798  VAL798      0.1727
    121  C        -26.1240   47.5270  -47.7270 C.2   798  VAL798      0.2616
    122  O        -25.1910   47.7810  -48.4910 O.2   798  VAL798     -0.2715
    123  CB       -26.3860   49.5600  -46.2430 C.3   798  VAL798      0.0290
    124  CG1      -27.5330   49.9420  -47.1650 C.3   798  VAL798      0.0023
    125  CG2      -26.6830   50.0010  -44.8190 C.3   798  VAL798      0.0023
    126  N        -27.1760   46.7860  -48.0700 N.am  799  VAL799     -0.1977
    127  CA       -27.3860   46.2800  -49.4200 C.3   799  VAL799      0.1596
    128  C        -28.1010   47.3550  -50.2250 C.2   799  VAL799      0.2287
    129  O        -29.1950   47.7950  -49.8570 O.2   799  VAL799     -0.2864
    130  CB       -28.2260   44.9810  -49.4200 C.3   799  VAL799      0.0276
    131  CG1      -28.4380   44.4740  -50.8390 C.3   799  VAL799      0.0022
    132  CG2      -27.5650   43.9030  -48.5750 C.3   799  VAL799      0.0022
    133  N        -32.4820   47.7770  -51.9440 N.3   802  SER802     -0.1217
    134  CA       -33.2710   46.7370  -51.2730 C.3   802  SER802      0.1889
    135  C        -34.4470   47.3130  -50.4870 C.2   802  SER802      0.2288
    136  O        -34.3260   48.3570  -49.8480 O.2   802  SER802     -0.2866
    137  CB       -32.3860   45.8720  -50.3690 C.3   802  SER802      0.2089
    138  OG       -31.6840   46.6600  -49.4220 O.3   802  SER802     -0.2183
    139  N        -37.9880   46.3110  -47.9510 N.3   804  THR804     -0.1218
    140  CA       -38.7210   45.3420  -47.1320 C.3   804  THR804      0.1862
    141  C        -40.0330   44.9640  -47.8160 C.2   804  THR804      0.2287
    142  O        -40.5130   45.6920  -48.6830 O.2   804  THR804     -0.2866
    143  CB       -39.0230   45.8770  -45.7150 C.3   804  THR804      0.1770
    144  OG1      -39.7770   47.0880  -45.8040 O.3   804  THR804     -0.2211
    145  CG2      -37.7440   46.1370  -44.9450 C.3   804  THR804      0.0375
    146  N        -42.8970   47.5600  -47.3550 N.3   807  GLN807     -0.1245
    147  CA       -42.7260   48.7150  -48.2440 C.3   807  GLN807      0.1566
    148  C        -43.3750   48.4890  -49.6120 C.2   807  GLN807      0.2260
    149  O        -43.9770   49.4020  -50.1830 O.2   807  GLN807     -0.2867
    150  CB       -41.2400   49.0540  -48.4170 C.3   807  GLN807      0.0367
    151  CG       -40.6150   49.8150  -47.2540 C.3   807  GLN807      0.0905
    152  CD       -39.0950   49.8700  -47.3290 C.2   807  GLN807      0.2608
    153  OE1      -38.4020   49.5680  -46.3560 O.2   807  GLN807     -0.2717
    154  NE2      -38.5700   50.2530  -48.4890 N.am  807  GLN807     -0.0878
    155  N        -41.1990   42.8580  -42.4630 N.3   857  SER857     -0.1217
    156  CA       -40.0470   43.6950  -42.1060 C.3   857  SER857      0.1889
    157  C        -38.7380   42.9100  -42.0870 C.2   857  SER857      0.2288
    158  O        -37.6680   43.4760  -42.3100 O.2   857  SER857     -0.2866
    159  CB       -40.2630   44.3770  -40.7510 C.3   857  SER857      0.2089
    160  OG       -41.4020   45.2200  -40.7720 O.3   857  SER857     -0.2183
    161  N        -36.4640   41.0420  -47.2140 N.3   860  MET860     -0.1245
    162  CA       -36.1880   42.1020  -48.1790 C.3   860  MET860      0.1570
    163  C        -36.0000   41.5680  -49.6000 C.2   860  MET860      0.2261
    164  O        -35.7150   40.3860  -49.7990 O.2   860  MET860     -0.2867
    165  CB       -34.9790   42.9330  -47.7400 C.3   860  MET860      0.0387
    166  CG       -35.1910   43.6790  -46.4310 C.3   860  MET860      0.0595
    167  SD       -33.9020   44.8800  -46.0600 S.3   860  MET860     -0.1393
    168  CE       -34.3920   46.2480  -47.1040 C.3   860  MET860      0.0692
    169  N        -33.7300   38.1600  -49.6220 N.3   868  PHE868     -0.1241
    170  CA       -32.8680   37.8720  -48.4700 C.3   868  PHE868      0.1605
    171  C        -33.5100   38.2690  -47.1370 C.2   868  PHE868      0.2264
    172  O        -34.5900   38.8650  -47.1080 O.2   868  PHE868     -0.2867
    173  CB       -31.4760   38.5010  -48.6360 C.3   868  PHE868      0.0534
    174  CG       -31.4580   40.0010  -48.5270 C.ar  868  PHE868     -0.0203
    175  CD1      -31.8980   40.8020  -49.5830 C.ar  868  PHE868     -0.0042
    176  CD2      -30.9830   40.6190  -47.3730 C.ar  868  PHE868     -0.0042
    177  CE1      -31.8740   42.1840  -49.4820 C.ar  868  PHE868     -0.0003
    178  CE2      -30.9570   42.0030  -47.2670 C.ar  868  PHE868     -0.0003
    179  CZ       -31.3990   42.7850  -48.3240 C.ar  868  PHE868     -0.0000
    180  N        -33.0630   39.7340  -42.9320 N.3   870  ILE870     -0.1231
    181  CA       -32.3080   40.5730  -41.9960 C.3   870  ILE870      0.1692
    182  C        -32.7890   40.3420  -40.5660 C.2   870  ILE870      0.2592
    183  O        -33.7870   39.6580  -40.3510 O.2   870  ILE870     -0.2718
    184  CB       -32.4110   42.0830  -42.3320 C.3   870  ILE870      0.0266
    185  CG1      -33.8760   42.5030  -42.5330 C.3   870  ILE870      0.0019
    186  CG2      -31.5490   42.4230  -43.5420 C.3   870  ILE870      0.0020
    187  CD1      -34.1460   43.9770  -42.3120 C.3   870  ILE870      0.0001
    188  N        -32.0760   40.9170  -39.6010 N.am  871  ASP871     -0.1974
    189  CA       -32.4330   40.8360  -38.1830 C.3   871  ASP871      0.1709
    190  C        -32.8620   39.4230  -37.7830 C.2   871  ASP871      0.2293
    191  O        -34.0510   39.1380  -37.6210 O.2   871  ASP871     -0.2864
    192  CB       -33.5250   41.8640  -37.8320 C.3   871  ASP871      0.1436
    193  CG       -33.6270   42.1340  -36.3310 C.2   871  ASP871      0.3671
    194  OD1      -33.1390   41.3130  -35.5200 O.co2 871  ASP871     -0.2456
    195  OD2      -34.2050   43.1800  -35.9590 O.co2 871  ASP871     -0.2456
@<TRIPOS>BOND
     1   133   134    1
     2   134   135    1
     3   134   137    1
     4   131   130    1
     5   135   136    2
     6   137   138    1
     7   128   129    2
     8   128   127    1
     9   149   148    2
    10   164   163    2
    11   169   170    1
    12   148   147    1
    13   163   162    1
    14   175   177   ar
    15   175   174   ar
    16   177   179   ar
    17   130   127    1
    18   130   132    1
    19   127   126    1
    20   118   116   ar
    21   142   141    2
    22   173   174    1
    23   173   170    1
    24   174   176   ar
    25   122   121    2
    26   154   152   am
    27   170   171    1
    28   150   147    1
    29   150   151    1
    30   179   178   ar
    31   147   146    1
    32   162   165    1
    33   162   161    1
    34   126   121   am
    35   139   140    1
    36   141   140    1
    37   165   166    1
    38   121   120    1
    39   116   117   ar
    40   116   115    1
    41   176   178   ar
    42   152   151    1
    43   152   153    2
    44   124   123    1
    45   171   172    2
    46   140   143    1
    47   168   167    1
    48   115   114    1
    49   166   167    1
    50   120   123    1
    51   120   119    1
    52   123   125    1
    53    84    85    1
    54    85    88    1
    55    85    86    1
    56    32    34   ar
    57    32    30   ar
    58    88    89    1
    59   144   143    1
    60   143   145    1
    61   119   112   am
    62    29    30   ar
    63    29    27   ar
    64    34    33   ar
    65   114   111    1
    66    30    28   ar
    67    91    89   ar
    68    91    93   ar
    69    86    87    2
    70   112   113    2
    71   112   111    1
    72    89    90   ar
    73   111   110    1
    74    27    26   ar
    75    33    31   ar
    76    93    94   ar
    77    28    26   ar
    78    28    31   ar
    79    90    92   ar
    80   186   184    1
    81    79    78    2
    82    26    25    1
    83    83    81    1
    84   110   104   am
    85   180   181    1
    86    94    92   ar
    87    94    95    1
    88   185   184    1
    89   185   187    1
    90   155   156    1
    91   184   181    1
    92   158   157    2
    93   105   104    2
    94   156   157    1
    95   156   159    1
    96    78    77    1
    97    24    23    2
    98   181   182    1
    99   104   103    1
   100    25    22    1
   101    80    77    1
   102    80    81    1
   103    42    40    1
   104    23    22    1
   105    77    76    1
   106    81    82    1
   107    96    97    1
   108    35    36    1
   109    40    39    1
   110   108   106    1
   111    22    21    1
   112   160   159    1
   113   103   106    1
   114   103   102    1
   115   182   183    2
   116   182   188   am
   117     8     7    1
   118    36    39    1
   119    36    37    1
   120    39    41    1
   121   106   107    1
   122    97   100    1
   123    97    98    1
   124   100   101    1
   125   188   189    1
   126     7     6    1
   127    99    98    2
   128     6     5    1
   129    37    38    2
   130   107   109    1
   131    71    70    2
   132   189   192    1
   133   189   190    1
   134     5     2    1
   135   192   193    1
   136   190   191    2
   137     2     1    1
   138     2     3    1
   139    75    73   ar
   140    70    69    1
   141    14    13    1
   142     9     3   am
   143     9    10    1
   144    13    10    1
   145    72    73    1
   146    72    69    1
   147     3     4    2
   148    73    74   ar
   149    69    68    1
   150   193   195   ar
   151   193   194   ar
   152    10    11    1
   153    43    44    1
   154    66    65    1
   155    67    65    1
   156    50    49    1
   157    50    51    1
   158    11    15   am
   159    11    12    2
   160    20    19    1
   161    15    16    1
   162    63    62    2
   163    49    48    1
   164    47    44    1
   165    47    48    1
   166    65    64    1
   167    44    45    1
   168    64    61    1
   169    19    16    1
   170    16    17    1
   171    62    61    1
   172    61    60    1
   173    45    46    2
   174    18    17    2
   175    59    57   ar
   176    56    57    1
   177    56    53    1
   178    57    58   ar
   179    55    54    2
   180    54    53    1
   181    53    52    1
