@<TRIPOS>MOLECULE
tmp/4l32A00.pdb
 151 153 0 0 0
SMALL
GASTEIGER

@<TRIPOS>ATOM
      1  N          9.6100  -41.8160  -17.2240 N.3    80  HIS80      -0.1226
      2  CA         9.2440  -41.5570  -15.8490 C.3    80  HIS80       0.1752
      3  C         10.5070  -41.3740  -15.0690 C.2    80  HIS80       0.2597
      4  O         11.4110  -42.2210  -15.1230 O.2    80  HIS80      -0.2718
      5  CB         8.4090  -42.7150  -15.2810 C.3    80  HIS80       0.0759
      6  CG         7.9050  -42.4630  -13.8830 C.ar   80  HIS80       0.0818
      7  ND1        6.8560  -41.6340  -13.6130 N.ar   80  HIS80      -0.2268
      8  CD2        8.3760  -42.9160  -12.6520 C.ar   80  HIS80       0.1154
      9  CE1        6.6500  -41.6120  -12.2820 C.ar   80  HIS80       0.1986
     10  NE2        7.5740  -42.3980  -11.6930 N.ar   80  HIS80      -0.2212
     11  N         10.5970  -40.2570  -14.3490 N.am   81  GLY81      -0.1942
     12  CA        11.7400  -39.9450  -13.5050 C.3    81  GLY81       0.2014
     13  C         11.2770  -39.8370  -12.0760 C.2    81  GLY81       0.2640
     14  O         10.2880  -39.1650  -11.8130 O.2    81  GLY81      -0.2714
     15  N         11.9730  -40.4870  -11.1430 N.am   82  SER82      -0.1936
     16  CA        11.4890  -40.5540   -9.7740 C.3    82  SER82       0.2040
     17  C         12.5690  -40.9060   -8.7830 C.2    82  SER82       0.2485
     18  O         13.4220  -41.7340   -9.0710 O.2    82  SER82      -0.2729
     19  CB        10.4050  -41.6190   -9.6560 C.3    82  SER82       0.2129
     20  OG         9.9240  -41.7750   -8.3160 O.3    82  SER82      -0.2179
     21  N         12.4760  -40.3660   -7.5660 N.am   83  PRO83      -0.2715
     22  CA        13.3450  -40.9080   -6.5150 C.3    83  PRO83       0.1536
     23  C         13.0440  -42.3760   -6.1640 C.2    83  PRO83       0.2598
     24  O         13.8380  -43.0240   -5.4640 O.2    83  PRO83      -0.2715
     25  CB        13.0130  -40.0370   -5.2940 C.3    83  PRO83       0.0310
     26  CG        12.2950  -38.8320   -5.8370 C.3    83  PRO83       0.0237
     27  CD        11.5740  -39.3230   -7.0470 C.3    83  PRO83       0.0939
     28  N         11.9120  -42.9020   -6.6170 N.am   84  PHE84      -0.1974
     29  CA        11.4860  -44.2220   -6.1860 C.3    84  PHE84       0.1639
     30  C         11.6590  -45.2640   -7.2870 C.2    84  PHE84       0.2290
     31  O         10.9480  -46.2750   -7.3300 O.2    84  PHE84      -0.2864
     32  CB        10.0640  -44.1100   -5.6680 C.3    84  PHE84       0.0560
     33  CG         9.8700  -42.9300   -4.7740 C.ar   84  PHE84      -0.0200
     34  CD1       10.5370  -42.8520   -3.5590 C.ar   84  PHE84      -0.0042
     35  CD2        9.0780  -41.8600   -5.1700 C.ar   84  PHE84      -0.0042
     36  CE1       10.3970  -41.7380   -2.7460 C.ar   84  PHE84      -0.0003
     37  CE2        8.9220  -40.7550   -4.3530 C.ar   84  PHE84      -0.0003
     38  CZ         9.5830  -40.6920   -3.1460 C.ar   84  PHE84      -0.0000
     39  N          0.9180  -46.0450   -4.2150 N.3    96  ARG96      -0.1231
     40  CA         1.8810  -45.2760   -3.4210 C.3    96  ARG96       0.1694
     41  C          2.6380  -44.2310   -4.2480 C.2    96  ARG96       0.2592
     42  O          3.2180  -43.3000   -3.6940 O.2    96  ARG96      -0.2718
     43  CB         2.9000  -46.1980   -2.7620 C.3    96  ARG96       0.0321
     44  CG         2.3350  -47.1500   -1.7280 C.3    96  ARG96       0.0489
     45  CD         3.4070  -48.1690   -1.3390 C.3    96  ARG96       0.2205
     46  NE         3.5430  -49.2300   -2.3480 N.pl3  96  ARG96      -0.0865
     47  CZ         4.3860  -50.2700   -2.2880 C.cat  96  ARG96       0.5346
     48  NH1        5.1990  -50.4480   -1.2610 N.pl3  96  ARG96       0.1354
     49  NH2        4.4100  -51.1630   -3.2730 N.pl3  96  ARG96       0.1354
     50  N          2.6510  -44.3950   -5.5670 N.am   97  HIS97      -0.1962
     51  CA         3.2780  -43.4130   -6.4570 C.3    97  HIS97       0.1787
     52  C          2.3520  -42.2940   -6.9200 C.2    97  HIS97       0.2620
     53  O          2.7950  -41.4310   -7.6710 O.2    97  HIS97      -0.2715
     54  CB         3.8810  -44.1300   -7.6770 C.3    97  HIS97       0.0785
     55  CG         4.9950  -45.0890   -7.3150 C.ar   97  HIS97       0.0821
     56  ND1        6.2820  -44.7450   -7.3690 N.ar   97  HIS97      -0.2267
     57  CD2        4.9530  -46.3850   -6.7940 C.ar   97  HIS97       0.1154
     58  CE1        7.0390  -45.7830   -6.9300 C.ar   97  HIS97       0.1986
     59  NE2        6.2180  -46.7820   -6.5920 N.ar   97  HIS97      -0.2212
     60  N          1.0820  -42.2850   -6.5050 N.am   98  ALA98      -0.1963
     61  CA         0.1490  -41.2250   -6.9630 C.3    98  ALA98       0.1728
     62  C          0.6410  -39.8510   -6.5080 C.2    98  ALA98       0.2616
     63  O          0.9470  -39.6420   -5.3120 O.2    98  ALA98      -0.2715
     64  CB        -1.2640  -41.4800   -6.4720 C.3    98  ALA98       0.0334
     65  N          0.7230  -38.9200   -7.4610 N.am   99  TYR99      -0.1960
     66  CA         1.2520  -37.5810   -7.2120 C.3    99  TYR99       0.1771
     67  C          0.0890  -36.7000   -6.7610 C.2    99  TYR99       0.2619
     68  O         -0.6690  -36.1860   -7.5870 O.2    99  TYR99      -0.2715
     69  CB         1.9340  -37.0600   -8.4830 C.3    99  TYR99       0.0574
     70  CG         2.5530  -35.6790   -8.4250 C.ar   99  TYR99      -0.0198
     71  CD1        2.8790  -35.0170   -9.6030 C.ar   99  TYR99      -0.0009
     72  CD2        2.7700  -35.0120   -7.2220 C.ar   99  TYR99      -0.0009
     73  CE1        3.4330  -33.7520   -9.5860 C.ar   99  TYR99       0.0417
     74  CE2        3.3260  -33.7360   -7.1990 C.ar   99  TYR99       0.0417
     75  CZ         3.6540  -33.1200   -8.3720 C.ar   99  TYR99       0.1957
     76  OH         4.1940  -31.8620   -8.3740 O.3    99  TYR99      -0.2866
     77  N         -0.0630  -36.5740   -5.4430 N.am  100  ILE100     -0.1977
     78  CA        -1.2170  -35.8770   -4.8580 C.3   100  ILE100      0.1596
     79  C         -1.3210  -34.4370   -5.3600 C.2   100  ILE100      0.2287
     80  O         -2.4120  -33.9790   -5.6960 O.2   100  ILE100     -0.2864
     81  CB        -1.2330  -35.9400   -3.3030 C.3   100  ILE100      0.0276
     82  CG1       -1.4890  -37.3750   -2.8270 C.3   100  ILE100      0.0022
     83  CG2       -2.3390  -35.0610   -2.7210 C.3   100  ILE100      0.0022
     84  CD1       -0.3680  -37.9760   -2.0040 C.3   100  ILE100      0.0001
     85  N          2.4780  -40.0110  -13.3300 N.3   109  TYR109     -0.1227
     86  CA         2.7700  -39.0970  -14.4600 C.3   109  TYR109      0.1736
     87  C          3.9010  -39.6140  -15.3320 C.2   109  TYR109      0.2595
     88  O          4.9100  -40.0750  -14.8180 O.2   109  TYR109     -0.2718
     89  CB         3.1540  -37.7040  -13.9070 C.3   109  TYR109      0.0548
     90  CG         1.9550  -36.9330  -13.3570 C.ar  109  TYR109     -0.0200
     91  CD1        1.5400  -35.7540  -13.9590 C.ar  109  TYR109     -0.0009
     92  CD2        1.1800  -37.4370  -12.3030 C.ar  109  TYR109     -0.0009
     93  CE1        0.4330  -35.0640  -13.4890 C.ar  109  TYR109      0.0417
     94  CE2        0.0630  -36.7550  -11.8460 C.ar  109  TYR109      0.0417
     95  CZ        -0.3140  -35.5720  -12.4480 C.ar  109  TYR109      0.1957
     96  OH        -1.4330  -34.8750  -11.9930 O.3   109  TYR109     -0.2866
     97  N          3.7480  -39.4730  -16.6530 N.am  110  PHE110     -0.1962
     98  CA         4.7550  -39.8550  -17.6410 C.3   110  PHE110      0.1771
     99  C          4.9200  -38.7460  -18.6540 C.2   110  PHE110      0.2619
    100  O          3.9880  -37.9690  -18.8730 O.2   110  PHE110     -0.2715
    101  CB         4.2900  -41.1190  -18.3650 C.3   110  PHE110      0.0574
    102  CG         4.2280  -42.3270  -17.4690 C.ar  110  PHE110     -0.0200
    103  CD1        5.3070  -43.1920  -17.3760 C.ar  110  PHE110     -0.0042
    104  CD2        3.1180  -42.5630  -16.6860 C.ar  110  PHE110     -0.0042
    105  CE1        5.2550  -44.3000  -16.5380 C.ar  110  PHE110     -0.0003
    106  CE2        3.0660  -43.6460  -15.8260 C.ar  110  PHE110     -0.0003
    107  CZ         4.1360  -44.5240  -15.7640 C.ar  110  PHE110     -0.0000
    108  N          6.0840  -38.6760  -19.2870 N.am  111  ALA111     -0.1977
    109  CA         6.3810  -37.6080  -20.2530 C.3   111  ALA111      0.1597
    110  C          6.8870  -38.0960  -21.6030 C.2   111  ALA111      0.2287
    111  O          7.6590  -39.0490  -21.6780 O.2   111  ALA111     -0.2864
    112  CB         7.4190  -36.6570  -19.6380 C.3   111  ALA111      0.0319
    113  N         11.6310  -33.5590  -19.3140 N.3   116  LYS116     -0.1231
    114  CA        10.5660  -33.3060  -18.3220 C.3   116  LYS116      0.1693
    115  C         10.6790  -34.3080  -17.1610 C.2   116  LYS116      0.2592
    116  O         10.7050  -33.9300  -15.9860 O.2   116  LYS116     -0.2718
    117  CB         9.1710  -33.3620  -18.9790 C.3   116  LYS116      0.0285
    118  CG         7.9930  -33.3950  -17.9810 C.3   116  LYS116      0.0035
    119  CD         8.0070  -32.2710  -16.9480 C.3   116  LYS116      0.0206
    120  CE         7.9170  -30.8800  -17.5150 C.3   116  LYS116      0.1093
    121  NZ         7.4910  -29.8930  -16.4430 N.3   116  LYS116     -0.1314
    122  N         10.7750  -35.5870  -17.4920 N.am  117  SER117     -0.1952
    123  CA        11.0160  -36.6480  -16.4760 C.3   117  SER117      0.1924
    124  C         12.3120  -36.4270  -15.6820 C.2   117  SER117      0.2314
    125  O         12.3380  -36.6660  -14.4680 O.2   117  SER117     -0.2863
    126  CB        11.0040  -38.0380  -17.1340 C.3   117  SER117      0.2116
    127  OG         9.7000  -38.3740  -17.5910 O.3   117  SER117     -0.2180
    128  N         12.2650  -34.6640  -12.3430 N.3   120  TYR120     -0.1241
    129  CA        11.7620  -35.3420  -11.1450 C.3   120  TYR120      0.1605
    130  C         12.6700  -36.4200  -10.5540 C.2   120  TYR120      0.2264
    131  O         12.3120  -37.0570   -9.5680 O.2   120  TYR120     -0.2867
    132  CB        10.3850  -35.9500  -11.4320 C.3   120  TYR120      0.0534
    133  CG         9.2980  -34.9180  -11.6120 C.ar  120  TYR120     -0.0201
    134  CD1        8.5490  -34.4820  -10.5390 C.ar  120  TYR120     -0.0009
    135  CD2        9.0430  -34.3580  -12.8540 C.ar  120  TYR120     -0.0009
    136  CE1        7.5470  -33.5340  -10.6940 C.ar  120  TYR120      0.0417
    137  CE2        8.0510  -33.4010  -13.0210 C.ar  120  TYR120      0.0417
    138  CZ         7.2990  -33.0070  -11.9440 C.ar  120  TYR120      0.1957
    139  OH         6.3180  -32.0530  -12.1000 O.3   120  TYR120     -0.2866
    140  N         13.3450  -35.5170   -7.1950 N.3   123  GLY123     -0.1210
    141  CA        12.1300  -35.2540   -6.4340 C.3   123  GLY123      0.1956
    142  C         11.3500  -34.1320   -7.0990 C.2   123  GLY123      0.2611
    143  O         11.7660  -33.6320   -8.1250 O.2   123  GLY123     -0.2717
    144  N         10.2200  -33.7600   -6.5080 N.am  124  ILE124     -0.1979
    145  CA         9.3680  -32.6910   -7.0360 C.3   124  ILE124      0.1595
    146  C         10.1770  -31.3830   -7.0970 C.2   124  ILE124      0.2287
    147  O         10.7920  -30.9800   -6.1200 O.2   124  ILE124     -0.2864
    148  CB         8.0890  -32.5210   -6.1810 C.3   124  ILE124      0.0276
    149  CG1        7.1850  -33.7670   -6.3310 C.3   124  ILE124      0.0022
    150  CG2        7.3230  -31.2490   -6.5660 C.3   124  ILE124      0.0022
    151  CD1        6.0600  -33.8810   -5.3210 C.3   124  ILE124      0.0001
@<TRIPOS>BOND
     1   111   110    2
     2   110   109    1
     3   109   112    1
     4   109   108    1
     5   113   114    1
     6   108    99   am
     7   117   114    1
     8   117   118    1
     9   100    99    2
    10    99    98    1
    11   101    98    1
    12   101   102    1
    13   114   115    1
    14   118   119    1
    15    98    97    1
    16   127   126    1
    17   120   119    1
    18   120   121    1
    19   122   115   am
    20   122   123    1
    21   102   103   ar
    22   102   104   ar
    23   103   105   ar
    24     1     2    1
    25   115   116    2
    26   126   123    1
    27   104   106   ar
    28    97    87   am
    29   105   107   ar
    30   123   124    1
    31     2     5    1
    32     2     3    1
    33   106   107   ar
    34   124   125    2
    35    87    88    2
    36    87    86    1
    37     5     6    1
    38     4     3    2
    39     3    11   am
    40    86    89    1
    41    86    85    1
    42    11    12    1
    43    91    93   ar
    44    91    90   ar
    45    89    90    1
    46     6     7   ar
    47     6     8   ar
    48     7     9   ar
    49    12    13    1
    50    93    95   ar
    51    90    92   ar
    52   137   135   ar
    53   137   138   ar
    54   135   133   ar
    55     8    10   ar
    56    95    96    1
    57    95    94   ar
    58   128   129    1
    59    92    94   ar
    60     9    10   ar
    61   139   138    1
    62    13    14    2
    63    13    15   am
    64   138   136   ar
    65   133   132    1
    66   133   134   ar
    67   132   129    1
    68   129   130    1
    69    15    16    1
    70   136   134   ar
    71   130   131    2
    72    16    19    1
    73    16    17    1
    74    19    20    1
    75    71    73   ar
    76    71    70   ar
    77    73    75   ar
    78    18    17    2
    79    17    21   am
    80    69    70    1
    81    69    66    1
    82    70    72   ar
    83    76    75    1
    84    75    74   ar
    85   143   142    2
    86    54    55    1
    87    54    51    1
    88    53    52    2
    89    68    67    2
    90    21    27    1
    91    21    22    1
    92    65    66    1
    93    65    62   am
    94    56    55   ar
    95    56    58   ar
    96    31    30    2
    97    55    57   ar
    98    30    29    1
    99    72    74   ar
   100    66    67    1
   101   140   141    1
   102   142   144   am
   103   142   141    1
   104   146   145    1
   105   146   147    2
   106    27    26    1
   107   145   144    1
   108   145   148    1
   109    61    62    1
   110    61    60    1
   111    61    64    1
   112    58    59   ar
   113    52    60   am
   114    52    51    1
   115    57    59   ar
   116    67    77   am
   117    28    29    1
   118    28    23   am
   119   150   148    1
   120    22    23    1
   121    22    25    1
   122    62    63    2
   123    51    50    1
   124   149   148    1
   125   149   151    1
   126    29    32    1
   127    23    24    2
   128    26    25    1
   129    80    79    2
   130    32    33    1
   131    50    41   am
   132    77    78    1
   133    79    78    1
   134    35    33   ar
   135    35    37   ar
   136    78    81    1
   137    33    34   ar
   138    37    38   ar
   139    41    42    2
   140    41    40    1
   141    39    40    1
   142    34    36   ar
   143    40    43    1
   144    81    82    1
   145    81    83    1
   146    49    47    1
   147    38    36   ar
   148    82    84    1
   149    43    44    1
   150    46    47    2
   151    46    45    1
   152    47    48    1
   153    44    45    1
