@<TRIPOS>MOLECULE
tmp/4l34C00.pdb
 151 153 0 0 0
SMALL
GASTEIGER

@<TRIPOS>ATOM
      1  N         -4.9530    9.5600   11.9690 N.3    80  HIS80      -0.1226
      2  CA        -5.1670    9.1700   13.3490 C.3    80  HIS80       0.1752
      3  C         -5.4350   10.4000   14.1770 C.2    80  HIS80       0.2597
      4  O         -4.5960   11.3580   14.1770 O.2    80  HIS80      -0.2718
      5  CB        -3.9550    8.4670   13.9130 C.3    80  HIS80       0.0759
      6  CG        -4.1610    7.9790   15.3080 C.ar   80  HIS80       0.0818
      7  ND1       -4.8810    6.8320   15.6040 N.ar   80  HIS80      -0.2268
      8  CD2       -3.7460    8.4770   16.4970 C.ar   80  HIS80       0.1154
      9  CE1       -4.9080    6.6600   16.9130 C.ar   80  HIS80       0.1986
     10  NE2       -4.2210    7.6360   17.4740 N.ar   80  HIS80      -0.2212
     11  N         -6.5860   10.4160   14.8350 N.am   81  GLY81      -0.1942
     12  CA        -7.0000   11.5680   15.6650 C.3    81  GLY81       0.2014
     13  C         -7.0920   11.1460   17.1210 C.2    81  GLY81       0.2640
     14  O         -7.7170   10.1560   17.4500 O.2    81  GLY81      -0.2714
     15  N         -6.4690   11.8790   18.0160 N.am   82  SER82      -0.1936
     16  CA        -6.4180   11.4460   19.4070 C.3    82  SER82       0.2040
     17  C         -6.1390   12.6020   20.3410 C.2    82  SER82       0.2485
     18  O         -5.3780   13.5220   19.9770 O.2    82  SER82      -0.2729
     19  CB        -5.2930   10.4290   19.5310 C.3    82  SER82       0.2129
     20  OG        -5.0500   10.1030   20.8850 O.3    82  SER82      -0.2179
     21  N         -6.6830   12.5380   21.5620 N.am   83  PRO83      -0.2715
     22  CA        -6.2050   13.4610   22.6040 C.3    83  PRO83       0.1536
     23  C         -4.7280   13.2580   22.9800 C.2    83  PRO83       0.2598
     24  O         -4.1620   14.0890   23.6760 O.2    83  PRO83      -0.2715
     25  CB        -7.0750   13.0950   23.8300 C.3    83  PRO83       0.0310
     26  CG        -8.2120   12.2850   23.3030 C.3    83  PRO83       0.0237
     27  CD        -7.6990   11.6010   22.0810 C.3    83  PRO83       0.0939
     28  N         -4.1100   12.1700   22.5530 N.am   84  PHE84      -0.1974
     29  CA        -2.7370   11.8380   22.9870 C.3    84  PHE84       0.1639
     30  C         -1.7030   12.2180   21.9240 C.2    84  PHE84       0.2290
     31  O         -0.5750   11.7640   21.9850 O.2    84  PHE84      -0.2864
     32  CB        -2.6210   10.3440   23.2800 C.3    84  PHE84       0.0560
     33  CG        -3.6760    9.8300   24.2220 C.ar   84  PHE84      -0.0200
     34  CD1       -3.9880   10.5340   25.3880 C.ar   84  PHE84      -0.0042
     35  CD2       -4.3610    8.6460   23.9480 C.ar   84  PHE84      -0.0042
     36  CE1       -4.9680   10.0680   26.2520 C.ar   84  PHE84      -0.0003
     37  CE2       -5.3280    8.1730   24.8220 C.ar   84  PHE84      -0.0003
     38  CZ        -5.6320    8.8880   25.9680 C.ar   84  PHE84      -0.0000
     39  N         -0.7680    2.1950   25.3010 N.3    96  ARG96      -0.1231
     40  CA        -1.4630    3.4050   25.7870 C.3    96  ARG96       0.1694
     41  C         -2.4580    3.9970   24.7810 C.2    96  ARG96       0.2592
     42  O         -3.4560    4.5890   25.1810 O.2    96  ARG96      -0.2718
     43  CB        -0.4570    4.5140   26.1160 C.3    96  ARG96       0.0321
     44  CG         0.1410    4.4690   27.5080 C.3    96  ARG96       0.0489
     45  CD         1.5550    5.0470   27.5370 C.3    96  ARG96       0.2205
     46  NE         2.5540    4.0310   27.1800 N.pl3  96  ARG96      -0.0865
     47  CZ         3.0100    3.0740   28.0010 C.cat  96  ARG96       0.5346
     48  NH1        2.5840    2.9780   29.2620 N.pl3  96  ARG96       0.1354
     49  NH2        3.9110    2.2000   27.5560 N.pl3  96  ARG96       0.1354
     50  N         -2.1640    3.8740   23.4800 N.am   97  HIS97      -0.1962
     51  CA        -2.9560    4.5500   22.4110 C.3    97  HIS97       0.1787
     52  C         -4.0430    3.6540   21.7660 C.2    97  HIS97       0.2620
     53  O         -4.6760    4.0470   20.7530 O.2    97  HIS97      -0.2715
     54  CB        -1.9900    5.1900   21.3970 C.3    97  HIS97       0.0785
     55  CG        -0.9210    6.0010   22.0720 C.ar   97  HIS97       0.0821
     56  ND1        0.4200    5.7430   21.9200 N.ar   97  HIS97      -0.2267
     57  CD2       -1.0060    6.9750   23.0130 C.ar   97  HIS97       0.1154
     58  CE1        1.1230    6.5630   22.6850 C.ar   97  HIS97       0.1986
     59  NE2        0.2800    7.3160   23.3660 N.ar   97  HIS97      -0.2212
     60  N         -4.3040    2.5120   22.4280 N.am   98  ALA98      -0.1963
     61  CA        -5.2120    1.4750   21.9180 C.3    98  ALA98       0.1728
     62  C         -6.6320    1.7860   22.2960 C.2    98  ALA98       0.2616
     63  O         -6.8950    2.3730   23.3480 O.2    98  ALA98      -0.2715
     64  CB        -4.8390    0.0900   22.4340 C.3    98  ALA98       0.0334
     65  N         -7.5470    1.3830   21.4250 N.am   99  TYR99      -0.1960
     66  CA        -8.9490    1.7100   21.5660 C.3    99  TYR99       0.1771
     67  C         -9.5130    0.4320   22.1450 C.2    99  TYR99       0.2619
     68  O         -9.8220   -0.5080   21.4330 O.2    99  TYR99      -0.2715
     69  CB        -9.5300    2.1050   20.1940 C.3    99  TYR99       0.0574
     70  CG       -10.9980    2.4530   20.1150 C.ar   99  TYR99      -0.0198
     71  CD1      -11.7490    2.7500   21.2590 C.ar   99  TYR99      -0.0009
     72  CD2      -11.6400    2.5050   18.8810 C.ar   99  TYR99      -0.0009
     73  CE1      -13.0890    3.0540   21.1670 C.ar   99  TYR99       0.0417
     74  CE2      -12.9810    2.8390   18.7840 C.ar   99  TYR99       0.0417
     75  CZ       -13.6860    3.1160   19.9310 C.ar   99  TYR99       0.1957
     76  OH       -15.0090    3.4280   19.8550 O.3    99  TYR99      -0.2866
     77  N         -9.5860    0.3700   23.4640 N.am  100  ILE100     -0.1977
     78  CA        -9.9140   -0.9050   24.1100 C.3   100  ILE100      0.1596
     79  C        -11.2660   -1.4300   23.6030 C.2   100  ILE100      0.2287
     80  O        -11.3750   -2.5940   23.2940 O.2   100  ILE100     -0.2864
     81  CB        -9.8860   -0.8410   25.6730 C.3   100  ILE100      0.0276
     82  CG1       -8.5790   -0.2000   26.2210 C.3   100  ILE100      0.0022
     83  CG2      -10.0730   -2.2380   26.2530 C.3   100  ILE100      0.0022
     84  CD1       -7.2640   -0.8470   25.7970 C.3   100  ILE100      0.0001
     85  N         -6.1830    2.3230   15.8960 N.3   109  TYR109     -0.1227
     86  CA        -7.0920    2.5030   14.8140 C.3   109  TYR109      0.1736
     87  C         -6.6650    3.6700   13.9330 C.2   109  TYR109      0.2595
     88  O         -6.2640    4.7140   14.4650 O.2   109  TYR109     -0.2718
     89  CB        -8.4890    2.8200   15.3620 C.3   109  TYR109      0.0548
     90  CG        -9.2090    1.5660   15.8280 C.ar  109  TYR109     -0.0200
     91  CD1      -10.3660    1.1490   15.2190 C.ar  109  TYR109     -0.0009
     92  CD2       -8.6860    0.7780   16.8700 C.ar  109  TYR109     -0.0009
     93  CE1      -11.0040   -0.0240   15.6150 C.ar  109  TYR109      0.0417
     94  CE2       -9.3170   -0.4020   17.2840 C.ar  109  TYR109      0.0417
     95  CZ       -10.4520   -0.8190   16.6420 C.ar  109  TYR109      0.1957
     96  OH       -11.0740   -1.9990   17.0620 O.3   109  TYR109     -0.2866
     97  N         -6.7680    3.4950   12.6140 N.am  110  PHE110     -0.1962
     98  CA        -6.4670    4.5430   11.6360 C.3   110  PHE110      0.1771
     99  C         -7.5880    4.5770   10.6060 C.2   110  PHE110      0.2619
    100  O         -8.2760    3.5590   10.3900 O.2   110  PHE110     -0.2715
    101  CB        -5.1570    4.2270   10.9190 C.3   110  PHE110      0.0574
    102  CG        -3.9740    4.2470   11.8130 C.ar  110  PHE110     -0.0200
    103  CD1       -3.2110    5.3920   11.9520 C.ar  110  PHE110     -0.0042
    104  CD2       -3.6510    3.1310   12.5350 C.ar  110  PHE110     -0.0042
    105  CE1       -2.1530    5.4260   12.8220 C.ar  110  PHE110     -0.0003
    106  CE2       -2.5930    3.1430   13.4260 C.ar  110  PHE110     -0.0003
    107  CZ        -1.8210    4.2850   13.5420 C.ar  110  PHE110     -0.0000
    108  N         -7.7500    5.7290    9.9750 N.am  111  ALA111     -0.1977
    109  CA        -8.8250    5.9550    9.0010 C.3   111  ALA111      0.1597
    110  C         -8.3350    6.4990    7.6540 C.2   111  ALA111      0.2287
    111  O         -7.3980    7.3430    7.5600 O.2   111  ALA111     -0.2864
    112  CB        -9.8360    6.8860    9.5780 C.3   111  ALA111      0.0319
    113  N        -13.3320   10.8040    9.8380 N.3   116  LYS116     -0.1231
    114  CA       -13.4880    9.7320   10.8430 C.3   116  LYS116      0.1693
    115  C        -12.5140    9.9420   12.0080 C.2   116  LYS116      0.2592
    116  O        -12.8960    9.9530   13.1550 O.2   116  LYS116     -0.2718
    117  CB       -13.3280    8.3640   10.1990 C.3   116  LYS116      0.0285
    118  CG       -13.2220    7.1690   11.1100 C.3   116  LYS116      0.0035
    119  CD       -14.3590    7.0290   12.1340 C.3   116  LYS116      0.0206
    120  CE       -15.6910    6.7910   11.4800 C.3   116  LYS116      0.1093
    121  NZ       -16.6890    6.5130   12.5830 N.3   116  LYS116     -0.1314
    122  N        -11.2510   10.1640   11.6770 N.am  117  SER117     -0.1952
    123  CA       -10.2250   10.5010   12.6910 C.3   117  SER117      0.1924
    124  C        -10.5770   11.7850   13.4330 C.2   117  SER117      0.2314
    125  O        -10.3360   11.8440   14.6700 O.2   117  SER117     -0.2863
    126  CB        -8.8500   10.5780   12.0750 C.3   117  SER117      0.2116
    127  OG        -8.3780    9.3170   11.7060 O.3   117  SER117     -0.2180
    128  N        -12.3530   11.6090   16.8090 N.3   120  TYR120     -0.1241
    129  CA       -11.6270   11.1660   17.9940 C.3   120  TYR120      0.1605
    130  C        -10.6640   12.1960   18.5790 C.2   120  TYR120      0.2264
    131  O        -10.0190   11.9170   19.5760 O.2   120  TYR120     -0.2867
    132  CB       -10.8830    9.8620   17.7070 C.3   120  TYR120      0.0534
    133  CG       -11.8480    8.7300   17.4770 C.ar  120  TYR120     -0.0201
    134  CD1      -12.2250    7.9050   18.5020 C.ar  120  TYR120     -0.0009
    135  CD2      -12.4240    8.5090   16.2140 C.ar  120  TYR120     -0.0009
    136  CE1      -13.1630    6.8820   18.2960 C.ar  120  TYR120      0.0417
    137  CE2      -13.3270    7.4810   16.0000 C.ar  120  TYR120      0.0417
    138  CZ       -13.6860    6.6700   17.0650 C.ar  120  TYR120      0.1957
    139  OH       -14.6030    5.6660   16.8790 O.3   120  TYR120     -0.2866
    140  N        -11.4760   12.8840   22.0460 N.3   123  GLY123     -0.1210
    141  CA       -11.8110   11.6960   22.8190 C.3   123  GLY123      0.1956
    142  C        -12.7760   10.7870   22.0910 C.2   123  GLY123      0.2611
    143  O        -13.2660   11.1230   21.0280 O.2   123  GLY123     -0.2717
    144  N        -13.0570    9.6400   22.6890 N.am  124  ILE124     -0.1979
    145  CA       -14.0400    8.7140   22.1230 C.3   124  ILE124      0.1595
    146  C        -15.4090    9.3960   22.0660 C.2   124  ILE124      0.2287
    147  O        -15.8330   10.0050   23.0280 O.2   124  ILE124     -0.2864
    148  CB       -14.0920    7.4330   22.9530 C.3   124  ILE124      0.0276
    149  CG1      -12.7450    6.7110   22.8580 C.3   124  ILE124      0.0022
    150  CG2      -15.2500    6.5500   22.4770 C.3   124  ILE124      0.0022
    151  CD1      -12.5570    5.6570   23.9360 C.3   124  ILE124      0.0001
@<TRIPOS>BOND
     1   111   110    2
     2   110   109    1
     3   109   112    1
     4   109   108    1
     5   113   114    1
     6   108    99   am
     7   117   114    1
     8   117   118    1
     9   100    99    2
    10    99    98    1
    11   114   115    1
    12   101    98    1
    13   101   102    1
    14   118   119    1
    15   120   119    1
    16   120   121    1
    17    98    97    1
    18   122   115   am
    19   122   123    1
    20   127   126    1
    21   102   103   ar
    22   102   104   ar
    23   103   105   ar
    24     1     2    1
    25   115   116    2
    26   126   123    1
    27   104   106   ar
    28    97    87   am
    29   123   124    1
    30   105   107   ar
    31     2     5    1
    32     2     3    1
    33   106   107   ar
    34   124   125    2
    35     5     6    1
    36    87    88    2
    37    87    86    1
    38     4     3    2
    39     3    11   am
    40    86    89    1
    41    86    85    1
    42    11    12    1
    43    91    93   ar
    44    91    90   ar
    45     6     7   ar
    46     6     8   ar
    47    89    90    1
    48     7     9   ar
    49    93    95   ar
    50    12    13    1
    51    90    92   ar
    52   137   135   ar
    53   137   138   ar
    54   135   133   ar
    55     8    10   ar
    56    95    96    1
    57    95    94   ar
    58   128   129    1
    59    92    94   ar
    60   139   138    1
    61     9    10   ar
    62   138   136   ar
    63    13    14    2
    64    13    15   am
    65   133   132    1
    66   133   134   ar
    67   132   129    1
    68   129   130    1
    69    15    16    1
    70   136   134   ar
    71   130   131    2
    72    74    72   ar
    73    74    75   ar
    74    72    70   ar
    75    16    19    1
    76    16    17    1
    77    19    20    1
    78    76    75    1
    79    75    73   ar
    80    18    17    2
    81    70    69    1
    82    70    71   ar
    83    69    66    1
    84    17    21   am
    85    53    52    2
    86   143   142    2
    87    73    71   ar
    88    54    55    1
    89    54    51    1
    90    65    66    1
    91    65    62   am
    92    68    67    2
    93    21    27    1
    94    21    22    1
    95    66    67    1
    96    52    51    1
    97    52    60   am
    98    61    62    1
    99    61    60    1
   100    61    64    1
   101    56    55   ar
   102    56    58   ar
   103    30    31    2
   104    30    29    1
   105   140   141    1
   106   146   145    1
   107   146   147    2
   108    55    57   ar
   109    27    26    1
   110   142   144   am
   111   142   141    1
   112   145   144    1
   113   145   148    1
   114    67    77   am
   115    62    63    2
   116    51    50    1
   117   150   148    1
   118    28    23   am
   119    28    29    1
   120    22    23    1
   121    22    25    1
   122    58    59   ar
   123   149   148    1
   124   149   151    1
   125    23    24    2
   126    29    32    1
   127    57    59   ar
   128    32    33    1
   129    80    79    2
   130    26    25    1
   131    77    78    1
   132    50    41   am
   133    79    78    1
   134    35    33   ar
   135    35    37   ar
   136    78    81    1
   137    33    34   ar
   138    41    42    2
   139    41    40    1
   140    37    38   ar
   141    39    40    1
   142    34    36   ar
   143    81    82    1
   144    81    83    1
   145    40    43    1
   146    84    82    1
   147    38    36   ar
   148    43    44    1
   149    46    45    1
   150    46    47    2
   151    44    45    1
   152    49    47    1
   153    47    48    1
