@<TRIPOS>MOLECULE
tmp/4l37A00.pdb
 110 108 0 0 0
SMALL
GASTEIGER

@<TRIPOS>ATOM
      1  N         61.5510   41.8220   88.7390 N.3   150  GLU150     -0.1245
      2  CA        60.8130   41.1670   87.6710 C.3   150  GLU150      0.1567
      3  C         59.4700   40.6560   88.1650 C.2   150  GLU150      0.2260
      4  O         58.4220   40.9060   87.5530 O.2   150  GLU150     -0.2867
      5  CB        61.6220   39.9890   87.1480 C.3   150  GLU150      0.0388
      6  CG        60.9070   39.1500   86.0900 C.3   150  GLU150      0.1160
      7  CD        61.8440   38.2960   85.2340 C.2   150  GLU150      0.3649
      8  OE1       62.9850   37.9780   85.6660 O.co2 150  GLU150     -0.2457
      9  OE2       61.4230   37.9360   84.1130 O.co2 150  GLU150     -0.2457
     10  N         55.5990   41.9790   87.6200 N.3   154  LYS154     -0.1245
     11  CA        54.5570   41.1030   87.0900 C.3   154  LYS154      0.1561
     12  C         53.3580   41.1340   88.0250 C.2   154  LYS154      0.2260
     13  O         52.2200   41.0880   87.5710 O.2   154  LYS154     -0.2867
     14  CB        55.0360   39.6520   86.9710 C.3   154  LYS154      0.0271
     15  CG        55.9170   39.2820   85.7950 C.3   154  LYS154      0.0035
     16  CD        56.1390   37.7760   85.7420 C.3   154  LYS154      0.0206
     17  CE        57.5300   37.3730   85.2110 C.3   154  LYS154      0.1093
     18  NZ        58.0790   36.0630   85.7330 N.3   154  LYS154     -0.1314
     19  N         52.9890   31.3920   79.8690 N.3   172  ASN172     -0.1225
     20  CA        54.3250   31.4990   79.2940 C.3   172  ASN172      0.1785
     21  C         55.2240   32.4430   80.0550 C.2   172  ASN172      0.2597
     22  O         56.4360   32.2800   80.0100 O.2   172  ASN172     -0.2718
     23  CB        54.2960   31.9290   77.8350 C.3   172  ASN172      0.1169
     24  CG        53.3440   31.1030   76.9950 C.2   172  ASN172      0.2627
     25  OD1       52.9770   29.9740   77.3520 O.2   172  ASN172     -0.2716
     26  ND2       52.9200   31.6780   75.8660 N.am  172  ASN172     -0.0877
     27  N         54.6490   33.4350   80.7390 N.am  173  TYR173     -0.1962
     28  CA        55.4460   34.3280   81.5840 C.3   173  TYR173      0.1771
     29  C         55.5070   33.8260   83.0200 C.2   173  TYR173      0.2620
     30  O         55.9150   34.5470   83.9160 O.2   173  TYR173     -0.2715
     31  CB        54.9120   35.7600   81.5680 C.3   173  TYR173      0.0574
     32  CG        54.9680   36.4800   80.2280 C.ar  173  TYR173     -0.0198
     33  CD1       56.1220   36.4780   79.4510 C.ar  173  TYR173     -0.0009
     34  CD2       53.8600   37.1890   79.7590 C.ar  173  TYR173     -0.0009
     35  CE1       56.1570   37.1330   78.2350 C.ar  173  TYR173      0.0417
     36  CE2       53.8900   37.8450   78.5490 C.ar  173  TYR173      0.0417
     37  CZ        55.0380   37.8110   77.7970 C.ar  173  TYR173      0.1957
     38  OH        55.0610   38.4770   76.6030 O.3   173  TYR173     -0.2866
     39  N         55.0850   32.5850   83.2400 N.am  174  GLY174     -0.1954
     40  CA        55.2730   31.9150   84.5260 C.3   174  GLY174      0.1869
     41  C         54.2370   32.3090   85.5670 C.2   174  GLY174      0.2309
     42  O         54.5230   32.2860   86.7600 O.2   174  GLY174     -0.2863
     43  N         56.0590   32.0790   89.2960 N.3   185  TYR185     -0.1227
     44  CA        57.3760   31.4570   89.3450 C.3   185  TYR185      0.1736
     45  C         58.4380   32.5520   89.2610 C.2   185  TYR185      0.2595
     46  O         58.2740   33.5640   88.5500 O.2   185  TYR185     -0.2718
     47  CB        57.5170   30.4490   88.2030 C.3   185  TYR185      0.0548
     48  CG        56.6180   29.2410   88.3820 C.ar  185  TYR185     -0.0200
     49  CD1       57.1300   28.0370   88.8890 C.ar  185  TYR185     -0.0009
     50  CD2       55.2480   29.3030   88.0810 C.ar  185  TYR185     -0.0009
     51  CE1       56.3090   26.9290   89.0740 C.ar  185  TYR185      0.0417
     52  CE2       54.4200   28.1980   88.2500 C.ar  185  TYR185      0.0417
     53  CZ        54.9480   27.0160   88.7500 C.ar  185  TYR185      0.1957
     54  OH        54.1450   25.9080   88.9370 O.3   185  TYR185     -0.2866
     55  N         59.5000   32.3620   90.0270 N.am  186  ALA186     -0.1966
     56  CA        60.5390   33.3690   90.1850 C.3   186  ALA186      0.1728
     57  C         61.9090   32.7200   90.0000 C.2   186  ALA186      0.2616
     58  O         62.2010   31.6970   90.6020 O.2   186  ALA186     -0.2715
     59  CB        60.4300   34.0020   91.5650 C.3   186  ALA186      0.0334
     60  N         62.7430   33.2960   89.1520 N.am  187  ASN187     -0.1972
     61  CA        64.0890   32.7640   88.9640 C.3   187  ASN187      0.1688
     62  C         64.9850   33.5650   89.8610 C.2   187  ASN187      0.2292
     63  O         64.5720   34.5720   90.3530 O.2   187  ASN187     -0.2864
     64  CB        64.5280   32.9790   87.5280 C.3   187  ASN187      0.1181
     65  CG        64.1810   31.8320   86.6200 C.2   187  ASN187      0.2629
     66  OD1       64.1770   30.6690   87.0250 O.2   187  ASN187     -0.2716
     67  ND2       63.8980   32.1630   85.3640 N.am  187  ASN187     -0.0877
     68  N         66.9390   27.4540   87.6530 N.3   661  TYR661     -0.1227
     69  CA        66.1250   27.8970   86.4980 C.3   661  TYR661      0.1736
     70  C         65.3490   26.7750   85.7660 C.2   661  TYR661      0.2595
     71  O         64.2020   26.9630   85.4110 O.2   661  TYR661     -0.2718
     72  CB        66.9290   28.7460   85.5090 C.3   661  TYR661      0.0548
     73  CG        67.7620   27.9720   84.5110 C.ar  661  TYR661     -0.0200
     74  CD1       67.2270   27.5830   83.2850 C.ar  661  TYR661     -0.0009
     75  CD2       69.1070   27.6360   84.7950 C.ar  661  TYR661     -0.0009
     76  CE1       67.9930   26.8700   82.3740 C.ar  661  TYR661      0.0417
     77  CE2       69.8880   26.9270   83.8820 C.ar  661  TYR661      0.0417
     78  CZ        69.3180   26.5540   82.6700 C.ar  661  TYR661      0.1957
     79  OH        70.0580   25.8570   81.7460 O.3   661  TYR661     -0.2866
     80  N         65.9680   25.6150   85.5630 N.am  662  LEU662     -0.1980
     81  CA        65.3250   24.4690   84.8960 C.3   662  LEU662      0.1596
     82  C         63.9490   24.0800   85.4460 C.2   662  LEU662      0.2287
     83  O         63.2250   23.2880   84.8340 O.2   662  LEU662     -0.2864
     84  CB        66.2590   23.2350   84.9120 C.3   662  LEU662      0.0297
     85  CG        67.5020   23.3880   84.0320 C.3   662  LEU662      0.0022
     86  CD1       68.6260   22.5030   84.5260 C.3   662  LEU662      0.0001
     87  CD2       67.2000   23.1210   82.5700 C.3   662  LEU662      0.0001
     88  N         61.6070   26.5420   86.3000 N.3   664  ASN664     -0.1225
     89  CA        60.6560   27.5970   86.0400 C.3   664  ASN664      0.1785
     90  C         60.4620   27.8240   84.5540 C.2   664  ASN664      0.2597
     91  O         60.0470   28.9310   84.1020 O.2   664  ASN664     -0.2718
     92  CB        61.1070   28.8910   86.7010 C.3   664  ASN664      0.1169
     93  CG        61.3140   28.7500   88.1910 C.2   664  ASN664      0.2627
     94  OD1       60.4770   28.1780   88.8840 O.2   664  ASN664     -0.2716
     95  ND2       62.4210   29.2970   88.6990 N.am  664  ASN664     -0.0877
     96  N         60.7580   26.7780   83.7870 N.am  665  ILE665     -0.1966
     97  CA        60.5370   26.8290   82.3400 C.3   665  ILE665      0.1712
     98  C         59.1060   26.3630   82.0400 C.2   665  ILE665      0.2458
     99  O         58.7040   25.2570   82.4360 O.2   665  ILE665     -0.2730
    100  CB        61.5320   25.9330   81.5690 C.3   665  ILE665      0.0289
    101  CG1       62.9730   26.4560   81.6800 C.3   665  ILE665      0.0022
    102  CG2       61.1040   25.8170   80.1120 C.3   665  ILE665      0.0023
    103  CD1       64.0130   25.3610   81.5480 C.3   665  ILE665      0.0001
    104  N         58.3210   27.2020   81.3510 N.am  666  PRO666     -0.2727
    105  CA        56.9560   26.7660   80.9980 C.3   666  PRO666      0.1402
    106  C         56.9770   25.6330   79.9930 C.2   666  PRO666      0.2269
    107  O         57.6650   25.7310   78.9850 O.2   666  PRO666     -0.2865
    108  CB        56.2810   28.0310   80.4260 C.3   666  PRO666      0.0296
    109  CG        57.3630   29.0420   80.2550 C.3   666  PRO666      0.0237
    110  CD        58.5430   28.6350   81.1050 C.3   666  PRO666      0.0939
@<TRIPOS>BOND
     1    26    24   am
     2    38    37    1
     3    24    25    2
     4    24    23    1
     5    37    35   ar
     6    37    36   ar
     7    23    20    1
     8    35    33   ar
     9    36    34   ar
    10   107   106    2
    11    20    19    1
    12    20    21    1
    13    33    32   ar
    14    34    32   ar
    15   106   105    1
    16    22    21    2
    17    21    27   am
    18   102   100    1
    19    32    31    1
    20   109   108    1
    21   109   110    1
    22   108   105    1
    23    27    28    1
    24   105   104    1
    25   110   104    1
    26   104    98   am
    27   103   101    1
    28    31    28    1
    29   100   101    1
    30   100    97    1
    31    28    29    1
    32    79    78    1
    33    98    97    1
    34    98    99    2
    35    97    96    1
    36    76    78   ar
    37    76    74   ar
    38    87    85    1
    39    78    77   ar
    40    29    39   am
    41    29    30    2
    42    39    40    1
    43    74    73   ar
    44    96    90   am
    45    77    75   ar
    46    85    86    1
    47    85    84    1
    48    91    90    2
    49     9     7   ar
    50    73    75   ar
    51    73    72    1
    52    40    41    1
    53    90    89    1
    54    83    82    2
    55    81    84    1
    56    81    82    1
    57    81    80    1
    58    17    18    1
    59    17    16    1
    60     7     8   ar
    61     7     6    1
    62    67    65   am
    63    71    70    2
    64    72    69    1
    65    80    70   am
    66    41    42    2
    67    16    15    1
    68    70    69    1
    69    15    14    1
    70    89    88    1
    71    89    92    1
    72     6     5    1
    73    69    68    1
    74    65    66    2
    75    65    64    1
    76    92    93    1
    77    14    11    1
    78    11    10    1
    79    11    12    1
    80     5     2    1
    81    64    61    1
    82     4     3    2
    83    13    12    2
    84     2     3    1
    85     2     1    1
    86    50    52   ar
    87    50    48   ar
    88    93    95   am
    89    93    94    2
    90    47    48    1
    91    47    44    1
    92    52    53   ar
    93    48    49   ar
    94    46    45    2
    95    53    54    1
    96    53    51   ar
    97    49    51   ar
    98    61    60    1
    99    61    62    1
   100    60    57   am
   101    45    44    1
   102    45    55   am
   103    43    44    1
   104    62    63    2
   105    57    56    1
   106    57    58    2
   107    55    56    1
   108    56    59    1
