@<TRIPOS>MOLECULE
tmp/4l38A05.pdb
 163 157 0 0 0
SMALL
GASTEIGER

@<TRIPOS>ATOM
      1  N         26.9390   44.8240  165.5360 N.3   367  VAL367     -0.1231
      2  CA        25.9560   45.9310  165.5540 C.3   367  VAL367      0.1692
      3  C         24.9380   45.7780  164.4160 C.2   367  VAL367      0.2592
      4  O         23.7100   45.8970  164.6210 O.2   367  VAL367     -0.2718
      5  CB        26.6310   47.3410  165.5450 C.3   367  VAL367      0.0266
      6  CG1       25.5910   48.4330  165.4180 C.3   367  VAL367      0.0020
      7  CG2       27.3370   47.5820  166.8820 C.3   367  VAL367      0.0020
      8  N         25.4190   45.4400  163.2150 N.am  368  HIS368     -0.1976
      9  CA        24.4550   45.2500  162.1320 C.3   368  HIS368      0.1656
     10  C         23.5160   44.0670  162.3520 C.2   368  HIS368      0.2291
     11  O         22.3110   44.2080  162.1690 O.2   368  HIS368     -0.2864
     12  CB        25.1520   45.1930  160.7530 C.3   368  HIS368      0.0771
     13  CG        25.7350   46.5130  160.3320 C.ar  368  HIS368      0.0820
     14  ND1       27.0920   46.7530  160.3690 N.ar  368  HIS368     -0.2267
     15  CD2       25.1520   47.6650  159.8890 C.ar  368  HIS368      0.1154
     16  CE1       27.3250   47.9900  159.9410 C.ar  368  HIS368      0.1986
     17  NE2       26.1660   48.5710  159.6470 N.ar  368  HIS368     -0.2212
     18  N         20.8400   44.7880  164.7360 N.3   371  ASN371     -0.1240
     19  CA        19.8600   45.6970  164.1820 C.3   371  ASN371      0.1653
     20  C         19.0550   45.1510  163.0240 C.2   371  ASN371      0.2266
     21  O         18.3580   45.8950  162.3670 O.2   371  ASN371     -0.2867
     22  CB        20.5480   46.9990  163.8220 C.3   371  ASN371      0.1155
     23  CG        20.8160   47.8220  165.0460 C.2   371  ASN371      0.2627
     24  OD1       19.8670   48.2450  165.7040 O.2   371  ASN371     -0.2716
     25  ND2       22.0860   48.0040  165.4080 N.am  371  ASN371     -0.0877
     26  N         20.0630   43.6730  160.1890 N.3   373  VAL373     -0.1245
     27  CA        20.6630   43.7300  158.8600 C.3   373  VAL373      0.1561
     28  C         21.1070   42.3090  158.5270 C.2   373  VAL373      0.2260
     29  O         21.4420   41.5280  159.4470 O.2   373  VAL373     -0.2867
     30  CB        21.8700   44.6750  158.8480 C.3   373  VAL373      0.0252
     31  CG1       22.4370   44.8490  157.4280 C.3   373  VAL373      0.0019
     32  CG2       21.4510   46.0310  159.4110 C.3   373  VAL373      0.0019
     33  N         21.6300   42.5520  152.4650 N.3   377  ASP377     -0.1225
     34  CA        21.5110   44.0280  152.5330 C.3   377  ASP377      0.1805
     35  C         22.8120   44.6820  152.0630 C.2   377  ASP377      0.2598
     36  O         22.7750   45.7370  151.4350 O.2   377  ASP377     -0.2718
     37  CB        21.1660   44.4960  153.9310 C.3   377  ASP377      0.1424
     38  CG        19.7840   44.0200  154.3680 C.2   377  ASP377      0.3668
     39  OD1       18.8730   43.9770  153.5090 O.co2 377  ASP377     -0.2456
     40  OD2       19.6160   43.6750  155.5490 O.co2 377  ASP377     -0.2456
     41  N         23.9540   44.0350  152.2980 N.am  378  CYS378     -0.1970
     42  CA        25.2290   44.6330  151.8990 C.3   378  CYS378      0.1712
     43  C         25.8240   43.9600  150.6640 C.2   378  CYS378      0.2296
     44  O         26.6820   44.5330  150.0210 O.2   378  CYS378     -0.2864
     45  CB        26.2420   44.5960  153.0470 C.3   378  CYS378      0.0983
     46  SG        25.6560   45.4660  154.5210 S.3   378  CYS378     -0.0798
     47  N         30.1490   45.3610  148.9000 N.3   399  PRO399     -0.2116
     48  CA        29.3160   46.5780  148.7850 C.3   399  PRO399      0.1372
     49  C         30.0170   47.7570  148.1280 C.2   399  PRO399      0.2244
     50  O         29.3490   48.7060  147.7190 O.2   399  PRO399     -0.2868
     51  CB        28.9860   46.9160  150.2440 C.3   399  PRO399      0.0268
     52  CG        30.1310   46.3040  151.0130 C.3   399  PRO399      0.0207
     53  CD        30.3610   44.9800  150.3080 C.3   399  PRO399      0.0892
     54  N         23.1560   51.5320  147.2970 N.3   405  GLN405     -0.1231
     55  CA        22.1790   50.5560  147.7390 C.3   405  GLN405      0.1698
     56  C         22.6300   49.7160  148.9390 C.2   405  GLN405      0.2592
     57  O         21.8060   49.2970  149.7400 O.2   405  GLN405     -0.2718
     58  CB        21.8170   49.6560  146.5600 C.3   405  GLN405      0.0381
     59  CG        20.9770   50.3940  145.5300 C.3   405  GLN405      0.0905
     60  CD        19.5870   50.7620  146.0970 C.2   405  GLN405      0.2608
     61  OE1       19.2620   51.9590  146.2460 O.2   405  GLN405     -0.2717
     62  NE2       18.7590   49.7270  146.4290 N.am  405  GLN405     -0.0878
     63  N         23.9300   49.4840  149.0780 N.am  406  ALA406     -0.1966
     64  CA        24.4190   48.5960  150.1330 C.3   406  ALA406      0.1728
     65  C         24.7800   49.3000  151.4330 C.2   406  ALA406      0.2616
     66  O         24.8660   48.6420  152.4770 O.2   406  ALA406     -0.2715
     67  CB        25.5830   47.7530  149.6220 C.3   406  ALA406      0.0334
     68  N         24.9690   50.6260  151.4200 N.am  407  CYS407     -0.1968
     69  CA        25.3210   51.3380  152.6650 C.3   407  CYS407      0.1712
     70  C         24.6750   52.6610  152.8430 C.2   407  CYS407      0.2296
     71  O         24.2400   53.0050  153.9420 O.2   407  CYS407     -0.2864
     72  CB        26.7930   51.7420  152.7350 C.3   407  CYS407      0.0983
     73  SG        27.9310   50.4280  152.6610 S.3   407  CYS407     -0.0798
     74  N         22.1400   54.1820  151.7240 N.3   409  ASN409     -0.1225
     75  CA        20.7200   54.2250  151.9920 C.3   409  ASN409      0.1785
     76  C         20.4100   54.2060  153.4740 C.2   409  ASN409      0.2597
     77  O         19.5190   54.9270  153.9090 O.2   409  ASN409     -0.2718
     78  CB        19.9780   53.1120  151.2510 C.3   409  ASN409      0.1169
     79  CG        19.5360   53.5480  149.8560 C.2   409  ASN409      0.2627
     80  OD1       19.5900   54.7420  149.5010 O.2   409  ASN409     -0.2716
     81  ND2       19.0950   52.5820  149.0500 N.am  409  ASN409     -0.0877
     82  N         21.1720   53.4670  154.2670 N.am  410  CYS410     -0.1956
     83  CA        20.9740   53.5360  155.7210 C.3   410  CYS410      0.1843
     84  C         21.8620   54.5790  156.4030 C.2   410  CYS410      0.2625
     85  O         21.5500   55.0400  157.4750 O.2   410  CYS410     -0.2714
     86  CB        21.2350   52.1830  156.3920 C.3   410  CYS410      0.0997
     87  SG        20.3770   50.7160  155.7350 S.3   410  CYS410     -0.0797
     88  N         22.9880   54.9260  155.8010 N.am  411  HIS411     -0.1973
     89  CA        23.9060   55.8600  156.4320 C.3   411  HIS411      0.1656
     90  C         23.8580   57.1950  155.6850 C.2   411  HIS411      0.2291
     91  O         24.8200   57.5820  155.0050 O.2   411  HIS411     -0.2864
     92  CB        25.3170   55.2680  156.4400 C.3   411  HIS411      0.0771
     93  CG        25.4920   54.1480  157.4200 C.ar  411  HIS411      0.0820
     94  ND1       25.6810   54.3730  158.7670 N.ar  411  HIS411     -0.2267
     95  CD2       25.5370   52.8000  157.2540 C.ar  411  HIS411      0.1154
     96  CE1       25.8240   53.2120  159.3930 C.ar  411  HIS411      0.1986
     97  NE2       25.7390   52.2380  158.5010 N.ar  411  HIS411     -0.2212
     98  N         26.6140   60.0060  155.5490 N.3   414  TRP414     -0.1241
     99  CA        27.9100   59.7720  154.9430 C.3   414  TRP414      0.1605
    100  C         27.9210   59.9610  153.4540 C.2   414  TRP414      0.2264
    101  O         26.9510   59.6300  152.7780 O.2   414  TRP414     -0.2867
    102  CB        28.3310   58.3230  155.2070 C.3   414  TRP414      0.0550
    103  CG        29.1390   58.0880  156.4700 C.ar  414  TRP414      0.0003
    104  CD1       29.8390   59.0170  157.2280 C.ar  414  TRP414      0.0946
    105  CD2       29.3780   56.8130  157.0790 C.ar  414  TRP414      0.0152
    106  NE1       30.4950   58.3730  158.2760 N.ar  414  TRP414     -0.2442
    107  CE2       30.2360   57.0270  158.2030 C.ar  414  TRP414      0.0810
    108  CE3       28.9600   55.5090  156.7810 C.ar  414  TRP414      0.0012
    109  CZ2       30.6450   55.9860  159.0370 C.ar  414  TRP414      0.0191
    110  CZ3       29.3720   54.4780  157.5990 C.ar  414  TRP414      0.0001
    111  CH2       30.2130   54.7200  158.7230 C.ar  414  TRP414      0.0015
    112  N         32.0570   56.4610  153.9280 N.3   419  ALA419     -0.1245
    113  CA        31.6890   55.0840  154.2610 C.3   419  ALA419      0.1562
    114  C         32.8560   54.1130  153.9450 C.2   419  ALA419      0.2260
    115  O         33.1380   53.2140  154.7500 O.2   419  ALA419     -0.2867
    116  CB        30.4200   54.6740  153.5150 C.3   419  ALA419      0.0290
    117  N         35.4640   54.4140  156.6280 N.3   422  ALA422     -0.1231
    118  CA        35.0810   53.6530  157.8410 C.3   422  ALA422      0.1694
    119  C         35.3440   52.1440  157.6960 C.2   422  ALA422      0.2591
    120  O         35.8300   51.5160  158.6610 O.2   422  ALA422     -0.2718
    121  CB        33.6170   53.9170  158.2440 C.3   422  ALA422      0.0304
    122  N         35.1090   51.5840  156.5030 N.am  423  ILE423     -0.1980
    123  CA        35.3920   50.1670  156.2610 C.3   423  ILE423      0.1595
    124  C         36.8850   49.9740  156.4130 C.2   423  ILE423      0.2287
    125  O         37.3250   49.0690  157.1240 O.2   423  ILE423     -0.2864
    126  CB        34.9960   49.6670  154.8460 C.3   423  ILE423      0.0276
    127  CG1       33.4840   49.8040  154.6320 C.3   423  ILE423      0.0022
    128  CG2       35.4610   48.1880  154.6340 C.3   423  ILE423      0.0022
    129  CD1       33.0190   49.7030  153.1500 C.3   423  ILE423      0.0001
    130  N         38.5170   49.8490  159.9070 N.3   426  ILE426     -0.1245
    131  CA        38.3970   48.5100  160.5250 C.3   426  ILE426      0.1561
    132  C         39.3430   47.4680  159.9050 C.2   426  ILE426      0.2260
    133  O         40.0290   46.7280  160.6200 O.2   426  ILE426     -0.2867
    134  CB        36.9560   47.9850  160.4230 C.3   426  ILE426      0.0252
    135  CG1       36.0400   48.8490  161.3000 C.3   426  ILE426      0.0019
    136  CG2       36.8860   46.5050  160.8600 C.3   426  ILE426      0.0019
    137  CD1       34.5450   48.6930  160.9360 C.3   426  ILE426      0.0001
    138  N         35.5790   43.4640  159.4010 N.3   486  PHE486     -0.1241
    139  CA        34.3950   44.3390  159.2460 C.3   486  PHE486      0.1605
    140  C         33.0900   43.7500  159.8110 C.2   486  PHE486      0.2264
    141  O         32.2870   44.4750  160.4370 O.2   486  PHE486     -0.2867
    142  CB        34.1700   44.7980  157.7750 C.3   486  PHE486      0.0534
    143  CG        33.0250   45.7750  157.6740 C.ar  486  PHE486     -0.0203
    144  CD1       33.2470   47.1400  157.9020 C.ar  486  PHE486     -0.0042
    145  CD2       31.7110   45.3090  157.5050 C.ar  486  PHE486     -0.0042
    146  CE1       32.1790   48.0370  157.8880 C.ar  486  PHE486     -0.0003
    147  CE2       30.6290   46.1960  157.4910 C.ar  486  PHE486     -0.0003
    148  CZ        30.8720   47.5620  157.6780 C.ar  486  PHE486     -0.0000
    149  N         34.0700   43.8760  164.3430 N.3   489  PRO489     -0.2102
    150  CA        35.4160   44.3690  164.5880 C.3   489  PRO489      0.1504
    151  C         35.8600   44.2000  166.0570 C.2   489  PRO489      0.2575
    152  O         37.0540   43.9430  166.3020 O.2   489  PRO489     -0.2718
    153  CB        35.3350   45.8780  164.2430 C.3   489  PRO489      0.0282
    154  CG        33.8810   46.1720  164.0690 C.3   489  PRO489      0.0208
    155  CD        33.1460   44.9080  163.8070 C.3   489  PRO489      0.0893
    156  N         34.9310   44.3520  167.0020 N.am  490  ASP490     -0.1974
    157  CA        35.3050   44.1590  168.4110 C.3   490  ASP490      0.1708
    158  C         35.6860   42.7330  168.7140 C.2   490  ASP490      0.2293
    159  O         36.6020   42.4800  169.5120 O.2   490  ASP490     -0.2864
    160  CB        34.1670   44.5530  169.3370 C.3   490  ASP490      0.1436
    161  CG        33.9340   46.0370  169.3440 C.2   490  ASP490      0.3671
    162  OD1       34.8770   46.8320  169.1890 O.co2 490  ASP490     -0.2456
    163  OD2       32.7780   46.4120  169.5600 O.co2 490  ASP490     -0.2456
@<TRIPOS>BOND
     1    59    60    1
     2    59    58    1
     3    60    61    2
     4    60    62   am
     5    58    55    1
     6    54    55    1
     7    50    49    2
     8    55    56    1
     9    49    48    1
    10    48    47    1
    11    48    51    1
    12    47    53    1
    13    56    63   am
    14    56    57    2
    15    81    79   am
    16    63    64    1
    17    80    79    2
    18    67    64    1
    19    79    78    1
    20    44    43    2
    21    64    65    1
    22    51    52    1
    23    53    52    1
    24    43    42    1
    25    78    75    1
    26    68    65   am
    27    68    69    1
    28    65    66    2
    29    36    35    2
    30    74    75    1
    31    42    41    1
    32    42    45    1
    33    75    76    1
    34    35    41   am
    35    35    34    1
    36    33    34    1
    37    34    37    1
    38    73    72    1
    39    69    72    1
    40    69    70    1
    41   101   100    2
    42    70    71    2
    43    45    46    1
    44   129   127    1
    45   100    99    1
    46    76    77    2
    47    76    82   am
    48    39    38   ar
    49   116   113    1
    50   112   113    1
    51    37    38    1
    52   114   113    1
    53   114   115    2
    54    82    83    1
    55    38    40   ar
    56   127   126    1
    57   128   126    1
    58   126   123    1
    59    99   102    1
    60    99    98    1
    61    91    90    2
    62   102   103    1
    63    90    89    1
    64    83    86    1
    65    83    84    1
    66    87    86    1
    67    88    84   am
    68    88    89    1
    69   123   124    1
    70   123   122    1
    71    84    85    2
    72   124   125    2
    73    89    92    1
    74    92    93    1
    75   103   105   ar
    76   103   104   ar
    77   122   119   am
    78   117   118    1
    79   108   105   ar
    80   108   110   ar
    81   105   107   ar
    82   104   106   ar
    83    95    93   ar
    84    95    97   ar
    85    93    94   ar
    86    31    30    1
    87   147   145   ar
    88   147   148   ar
    89   145   143   ar
    90   110   111   ar
    91   143   142    1
    92   143   144   ar
    93   148   146   ar
    94   119   118    1
    95   119   120    2
    96   142   139    1
    97   118   121    1
    98   146   144   ar
    99   107   106   ar
   100   107   109   ar
   101    97    96   ar
   102    28    27    1
   103    28    29    2
   104   111   109   ar
   105    94    96   ar
   106    30    27    1
   107    30    32    1
   108    27    26    1
   109   139   138    1
   110   139   140    1
   111    17    15   ar
   112    17    16   ar
   113   140   141    2
   114    15    13   ar
   115   132   131    1
   116   132   133    2
   117   130   131    1
   118    16    14   ar
   119    13    14   ar
   120    13    12    1
   121   134   131    1
   122   134   136    1
   123   134   135    1
   124    12     9    1
   125   137   135    1
   126     9    10    1
   127     9     8    1
   128    11    10    2
   129    21    20    2
   130    20    19    1
   131     8     3   am
   132   155   154    1
   133   155   149    1
   134    22    19    1
   135    22    23    1
   136   154   153    1
   137    19    18    1
   138   153   150    1
   139   149   150    1
   140     3     4    2
   141     3     2    1
   142   150   151    1
   143    23    25   am
   144    23    24    2
   145     6     5    1
   146     1     2    1
   147     5     2    1
   148     5     7    1
   149   151   152    2
   150   151   156   am
   151   156   157    1
   152   157   158    1
   153   157   160    1
   154   158   159    2
   155   162   161   ar
   156   160   161    1
   157   161   163   ar
