@<TRIPOS>MOLECULE
tmp/4l39A01.pdb
 196 182 0 0 0
SMALL
GASTEIGER

@<TRIPOS>ATOM
      1  N         38.3360   -7.9350  -18.5640 N.3    86  LEU86      -0.1231
      2  CA        37.5110   -8.5000  -17.5210 C.3    86  LEU86       0.1693
      3  C         36.0550   -8.2430  -17.8120 C.2    86  LEU86       0.2592
      4  O         35.6890   -7.1310  -18.1720 O.2    86  LEU86      -0.2718
      5  CB        37.8530   -7.8640  -16.1820 C.3    86  LEU86       0.0284
      6  CG        39.1900   -8.1770  -15.5160 C.3    86  LEU86       0.0019
      7  CD1       39.4280   -7.1590  -14.4570 C.3    86  LEU86       0.0001
      8  CD2       39.1390   -9.4890  -14.9330 C.3    86  LEU86       0.0001
      9  N         35.2330   -9.2660  -17.6100 N.am   87  SER87      -0.1952
     10  CA        33.7820   -9.1190  -17.6230 C.3    87  SER87       0.1924
     11  C         33.2990   -8.3840  -16.3730 C.2    87  SER87       0.2314
     12  O         32.1410   -8.5270  -15.9660 O.2    87  SER87      -0.2863
     13  CB        33.1020  -10.4910  -17.6930 C.3    87  SER87       0.2116
     14  OG        33.5240  -11.2290  -18.8250 O.3    87  SER87      -0.2180
     15  N         35.7370  -13.6820  -15.5530 N.3    90  LYS90      -0.1245
     16  CA        36.2950  -14.3130  -16.7300 C.3    90  LYS90       0.1561
     17  C         37.1180  -13.3560  -17.5110 C.2    90  LYS90       0.2260
     18  O         36.8490  -12.1900  -17.5480 O.2    90  LYS90      -0.2867
     19  CB        35.1660  -14.8060  -17.6060 C.3    90  LYS90       0.0271
     20  CG        34.2320  -15.7290  -16.8520 C.3    90  LYS90       0.0035
     21  CD        35.0320  -16.9130  -16.2000 C.3    90  LYS90       0.0206
     22  CE        34.2260  -17.9200  -15.3350 C.3    90  LYS90       0.1093
     23  NZ        35.1620  -18.8830  -14.6630 N.3    90  LYS90      -0.1314
     24  N         38.7940  -12.5160  -21.1900 N.3    92  MET92      -0.1245
     25  CA        38.8270  -12.6310  -22.6270 C.3    92  MET92       0.1570
     26  C         40.1680  -12.0790  -23.0980 C.2    92  MET92       0.2261
     27  O         40.6660  -11.1020  -22.5450 O.2    92  MET92      -0.2867
     28  CB        37.7110  -11.7760  -23.2150 C.3    92  MET92       0.0387
     29  CG        36.3370  -12.1680  -22.7610 C.3    92  MET92       0.0595
     30  SD        35.8740  -13.7100  -23.5150 S.3    92  MET92      -0.1393
     31  CE        34.5230  -14.1870  -22.4530 C.3    92  MET92       0.0692
     32  N         36.7050   -3.2370  -20.2140 N.3   146  ALA146     -0.1245
     33  CA        36.7010   -2.6990  -21.5980 C.3   146  ALA146      0.1562
     34  C         37.1270   -1.2200  -21.7450 C.2   146  ALA146      0.2260
     35  O         38.0210   -0.9060  -22.5250 O.2   146  ALA146     -0.2867
     36  CB        35.3210   -2.9270  -22.2570 C.3   146  ALA146      0.0290
     37  N         26.8870    3.2400  -18.8460 N.3   204  PHE204     -0.1241
     38  CA        25.5700    2.7020  -18.4820 C.3   204  PHE204      0.1605
     39  C         24.7830    3.6640  -17.5690 C.2   204  PHE204      0.2264
     40  O         25.3690    4.5200  -16.8950 O.2   204  PHE204     -0.2867
     41  CB        25.6950    1.3080  -17.8440 C.3   204  PHE204      0.0534
     42  CG        26.2160    0.2470  -18.7860 C.ar  204  PHE204     -0.0203
     43  CD1       25.3940   -0.2870  -19.7630 C.ar  204  PHE204     -0.0042
     44  CD2       27.5370   -0.2080  -18.6900 C.ar  204  PHE204     -0.0042
     45  CE1       25.8700   -1.2440  -20.6230 C.ar  204  PHE204     -0.0003
     46  CE2       28.0340   -1.1570  -19.5640 C.ar  204  PHE204     -0.0003
     47  CZ        27.2030   -1.6760  -20.5270 C.ar  204  PHE204     -0.0000
     48  N         23.4610    4.3430  -21.9420 N.3   285  VAL285     -0.1245
     49  CA        22.6920    3.2080  -22.4110 C.3   285  VAL285      0.1561
     50  C         21.5080    2.9720  -21.4700 C.2   285  VAL285      0.2260
     51  O         21.6990    2.9050  -20.2660 O.2   285  VAL285     -0.2867
     52  CB        23.6170    1.9460  -22.5140 C.3   285  VAL285      0.0252
     53  CG1       22.8270    0.6160  -22.5530 C.3   285  VAL285      0.0019
     54  CG2       24.4830    2.0260  -23.7350 C.3   285  VAL285      0.0019
     55  N         18.9880    0.5520  -22.7080 N.3   287  THR287     -0.1203
     56  CA        18.4000   -0.6630  -23.2650 C.3   287  THR287      0.1994
     57  C         18.7120   -1.8490  -22.3490 C.2   287  THR287      0.2618
     58  O         19.4320   -1.6890  -21.3860 O.2   287  THR287     -0.2717
     59  CB        18.8220   -0.8790  -24.7410 C.3   287  THR287      0.1784
     60  OG1       20.2360   -1.0040  -24.8670 O.3   287  THR287     -0.2211
     61  CG2       18.3790    0.2940  -25.5250 C.3   287  THR287      0.0376
     62  N         18.1380   -3.0180  -22.6270 N.am  288  GLY288     -0.1956
     63  CA        18.2000   -4.1450  -21.7060 C.3   288  GLY288      0.1869
     64  C         17.7680   -3.7770  -20.2860 C.2   288  GLY288      0.2309
     65  O         16.8960   -2.9280  -20.0690 O.2   288  GLY288     -0.2863
     66  N         18.9740   -1.9700  -18.1780 N.3   290  MET290     -0.1245
     67  CA        19.2640   -0.5840  -17.8780 C.3   290  MET290      0.1570
     68  C         18.0720    0.3140  -18.1090 C.2   290  MET290      0.2261
     69  O         18.0460    1.4430  -17.6450 O.2   290  MET290     -0.2867
     70  CB        20.4650   -0.1230  -18.7140 C.3   290  MET290      0.0387
     71  CG        21.8040   -0.7240  -18.2210 C.3   290  MET290      0.0595
     72  SD        22.1360   -0.1390  -16.5450 S.3   290  MET290     -0.1393
     73  CE        23.4130   -1.2320  -15.9130 C.3   290  MET290      0.0692
     74  N         25.5670    2.5370  -28.3400 N.3   310  THR310     -0.1203
     75  CA        26.4510    1.4370  -28.7150 C.3   310  THR310      0.1994
     76  C         26.0570    0.1470  -28.0750 C.2   310  THR310      0.2618
     77  O         25.5750    0.1190  -26.9530 O.2   310  THR310     -0.2717
     78  CB        27.9000    1.7140  -28.2430 C.3   310  THR310      0.1784
     79  OG1       28.3620    2.9790  -28.7350 O.3   310  THR310     -0.2211
     80  CG2       28.8230    0.6250  -28.7030 C.3   310  THR310      0.0376
     81  N         26.2870   -0.9330  -28.7980 N.am  311  TYR311     -0.1961
     82  CA        26.1260   -2.2460  -28.2200 C.3   311  TYR311      0.1774
     83  C         27.4780   -3.0190  -28.3180 C.2   311  TYR311      0.2659
     84  O         28.0920   -3.1410  -29.4010 O.2   311  TYR311     -0.2711
     85  CB        24.9260   -2.9510  -28.8780 C.3   311  TYR311      0.0574
     86  CG        24.7720   -4.4330  -28.5250 C.ar  311  TYR311     -0.0198
     87  CD1       25.1710   -4.9390  -27.2800 C.ar  311  TYR311     -0.0009
     88  CD2       24.2500   -5.3230  -29.4520 C.ar  311  TYR311     -0.0009
     89  CE1       25.0480   -6.2880  -26.9840 C.ar  311  TYR311      0.0417
     90  CE2       24.1240   -6.6560  -29.1600 C.ar  311  TYR311      0.0417
     91  CZ        24.5180   -7.1380  -27.9280 C.ar  311  TYR311      0.1957
     92  OH        24.3770   -8.4800  -27.6810 O.3   311  TYR311     -0.2866
     93  N         27.9480   -3.4930  -27.1660 N.am  312  GLY312     -0.1716
     94  CA        29.2850   -4.0600  -27.0680 C.2   312  GLY312      0.1480
     95  C         29.5900   -4.9740  -25.8890 C.2   312  GLY312      0.2821
     96  O         28.8680   -5.0320  -24.9050 O.2   312  GLY312     -0.2669
     97  N         30.6770   -5.7140  -26.0150 N.am  313  SER313     -0.1901
     98  CA        31.0610   -6.6600  -25.0110 C.3   313  SER313      0.2058
     99  C         32.5470   -6.8160  -25.0790 C.2   313  SER313      0.2644
    100  O         33.2480   -6.1180  -25.8490 O.2   313  SER313     -0.2714
    101  CB        30.4660   -7.9930  -25.3170 C.3   313  SER313      0.2130
    102  OG        31.0640   -8.4840  -26.4970 O.3   313  SER313     -0.2179
    103  N         33.0070   -7.7620  -24.2670 N.am  314  SER314     -0.1935
    104  CA        34.4210   -8.0900  -24.1860 C.3   314  SER314      0.2055
    105  C         34.8310   -8.9300  -25.3830 C.2   314  SER314      0.2642
    106  O         35.9590   -8.8990  -25.7780 O.2   314  SER314     -0.2714
    107  CB        34.7270   -8.8560  -22.8960 C.3   314  SER314      0.2130
    108  OG        34.3840   -8.1110  -21.7410 O.3   314  SER314     -0.2179
    109  N         33.8960   -9.6930  -25.9560 N.am  315  GLU315     -0.1976
    110  CA        34.1510  -10.3900  -27.2220 C.3   315  GLU315      0.1602
    111  C         34.3210   -9.3660  -28.3310 C.2   315  GLU315      0.2287
    112  O         35.2230   -9.4800  -29.1460 O.2   315  GLU315     -0.2864
    113  CB        33.0050  -11.3240  -27.6170 C.3   315  GLU315      0.0415
    114  CG        32.6300  -12.3670  -26.5940 C.3   315  GLU315      0.1163
    115  CD        31.6190  -11.8390  -25.5810 C.2   315  GLU315      0.3649
    116  OE1       30.4880  -11.4780  -25.9940 O.co2 315  GLU315     -0.2457
    117  OE2       31.9570  -11.7630  -24.3730 O.co2 315  GLU315     -0.2457
    118  N         20.2680   -1.6340  -32.7560 N.3   333  TYR333     -0.1241
    119  CA        21.6860   -1.4940  -33.0440 C.3   333  TYR333      0.1605
    120  C         21.9750   -2.1090  -34.3870 C.2   333  TYR333      0.2264
    121  O         21.6370   -3.2560  -34.6140 O.2   333  TYR333     -0.2867
    122  CB        22.5260   -2.1490  -31.9590 C.3   333  TYR333      0.0534
    123  CG        22.2500   -1.5670  -30.5990 C.ar  333  TYR333     -0.0201
    124  CD1       22.8130   -0.3620  -30.2440 C.ar  333  TYR333     -0.0009
    125  CD2       21.4200   -2.2120  -29.6690 C.ar  333  TYR333     -0.0009
    126  CE1       22.5700    0.2090  -29.0010 C.ar  333  TYR333      0.0417
    127  CE2       21.1770   -1.6580  -28.4220 C.ar  333  TYR333      0.0417
    128  CZ        21.7570   -0.4350  -28.0930 C.ar  333  TYR333      0.1957
    129  OH        21.5700    0.1790  -26.8810 O.3   333  TYR333     -0.2866
    130  N         27.6190  -15.4430  -27.3790 N.3   382  VAL382     -0.1245
    131  CA        27.7340  -14.2080  -26.6480 C.3   382  VAL382      0.1561
    132  C         26.8140  -14.2410  -25.4700 C.2   382  VAL382      0.2260
    133  O         27.1090  -13.6170  -24.4600 O.2   382  VAL382     -0.2867
    134  CB        27.4230  -13.0140  -27.5370 C.3   382  VAL382      0.0252
    135  CG1       27.3930  -11.7150  -26.7050 C.3   382  VAL382      0.0019
    136  CG2       28.4560  -12.9430  -28.7000 C.3   382  VAL382      0.0019
    137  N         23.4970  -13.2460  -25.5690 N.3   384  ASP384     -0.1239
    138  CA        22.4410  -12.2590  -25.6260 C.3   384  ASP384      0.1674
    139  C         21.4720  -12.7980  -26.6360 C.2   384  ASP384      0.2266
    140  O         21.8640  -13.5660  -27.4990 O.2   384  ASP384     -0.2867
    141  CB        22.9930  -10.9040  -26.0650 C.3   384  ASP384      0.1410
    142  CG        23.8700  -10.2720  -25.0150 C.2   384  ASP384      0.3668
    143  OD1       23.5100  -10.3900  -23.8390 O.co2 384  ASP384     -0.2456
    144  OD2       24.9210   -9.6800  -25.3540 O.co2 384  ASP384     -0.2456
    145  N         17.9730   -5.2940  -28.8080 N.3   400  PHE400     -0.1241
    146  CA        18.4790   -6.0650  -27.7020 C.3   400  PHE400      0.1605
    147  C         17.2960   -6.4870  -26.8160 C.2   400  PHE400      0.2264
    148  O         16.5490   -5.6490  -26.3390 O.2   400  PHE400     -0.2867
    149  CB        19.4560   -5.2810  -26.8930 C.3   400  PHE400      0.0534
    150  CG        20.0790   -6.0940  -25.8140 C.ar  400  PHE400     -0.0203
    151  CD1       21.3270   -6.7180  -26.0200 C.ar  400  PHE400     -0.0042
    152  CD2       19.4040   -6.2730  -24.5910 C.ar  400  PHE400     -0.0042
    153  CE1       21.9060   -7.4650  -25.0220 C.ar  400  PHE400     -0.0003
    154  CE2       19.9430   -7.0160  -23.6000 C.ar  400  PHE400     -0.0003
    155  CZ        21.2120   -7.6200  -23.7900 C.ar  400  PHE400     -0.0000
    156  N         19.4890  -10.9880  -21.8260 N.3   403  ARG403     -0.1245
    157  CA        20.7170  -11.7380  -21.6340 C.3   403  ARG403      0.1563
    158  C         20.3350  -13.1880  -21.3220 C.2   403  ARG403      0.2260
    159  O         19.6820  -13.4310  -20.3230 O.2   403  ARG403     -0.2867
    160  CB        21.4920  -11.1250  -20.4960 C.3   403  ARG403      0.0307
    161  CG        22.0910   -9.7720  -20.8150 C.3   403  ARG403      0.0489
    162  CD        23.0510   -9.2970  -19.7510 C.3   403  ARG403      0.2205
    163  NE        22.4130   -9.0270  -18.4730 N.pl3 403  ARG403     -0.0865
    164  CZ        21.9060   -7.8400  -18.1480 C.cat 403  ARG403      0.5346
    165  NH1       21.9090   -6.8050  -18.9780 N.pl3 403  ARG403      0.1354
    166  NH2       21.4190   -7.6760  -16.9420 N.pl3 403  ARG403      0.1354
    167  N         27.0750   -3.0440  -12.5630 N.3   412  SER412     -0.1217
    168  CA        28.0480   -3.8420  -13.3100 C.3   412  SER412      0.1889
    169  C         27.8330   -5.3500  -13.0670 C.2   412  SER412      0.2288
    170  O         28.0120   -6.1770  -13.9700 O.2   412  SER412     -0.2866
    171  CB        29.4720   -3.4480  -12.9130 C.3   412  SER412      0.2089
    172  OG        29.7550   -2.1620  -13.3370 O.3   412  SER412     -0.2183
    173  N         26.7860   -9.0680  -12.6750 N.3   414  LYS414     -0.1245
    174  CA        25.9480  -10.0340  -13.3810 C.3   414  LYS414      0.1561
    175  C         25.8030  -11.2680  -12.4970 C.2   414  LYS414      0.2260
    176  O         26.7650  -12.0140  -12.3040 O.2   414  LYS414     -0.2867
    177  CB        26.5540  -10.4080  -14.7410 C.3   414  LYS414      0.0271
    178  CG        26.7420   -9.2250  -15.6810 C.3   414  LYS414      0.0035
    179  CD        25.4800   -8.7220  -16.2910 C.3   414  LYS414      0.0206
    180  CE        25.5820   -7.7440  -17.4730 C.3   414  LYS414      0.1093
    181  NZ        25.8980   -6.3840  -16.9450 N.3   414  LYS414     -0.1314
    182  N         24.1580  -14.5580  -12.4480 N.3   416  ASN416     -0.1240
    183  CA        23.5030  -15.6590  -13.1620 C.3   416  ASN416      0.1653
    184  C         22.5120  -16.4060  -12.2560 C.2   416  ASN416      0.2266
    185  O         22.6850  -16.4370  -11.0300 O.2   416  ASN416     -0.2867
    186  CB        24.5520  -16.6310  -13.7130 C.3   416  ASN416      0.1155
    187  CG        25.3090  -16.1060  -14.8700 C.2   416  ASN416      0.2627
    188  OD1       24.6780  -15.8700  -15.9090 O.2   416  ASN416     -0.2716
    189  ND2       26.5660  -15.8980  -14.7570 N.am  416  ASN416     -0.0877
    190  N         32.5340   -9.1530   -9.4520 N.3   484  VAL484     -0.1245
    191  CA        31.9640   -7.9970  -10.1490 C.3   484  VAL484      0.1561
    192  C         30.7850   -7.3960   -9.3610 C.2   484  VAL484      0.2260
    193  O         30.5000   -6.2000   -9.4590 O.2   484  VAL484     -0.2867
    194  CB        31.5100   -8.4060  -11.6000 C.3   484  VAL484      0.0252
    195  CG1       32.6920   -8.9270  -12.4020 C.3   484  VAL484      0.0019
    196  CG2       30.4170   -9.4700  -11.5550 C.3   484  VAL484      0.0019
@<TRIPOS>BOND
     1   121   120    2
     2   120   119    1
     3   119   118    1
     4   119   122    1
     5   122   123    1
     6   123   124   ar
     7   123   125   ar
     8   124   126   ar
     9   125   127   ar
    10    88    90   ar
    11    88    86   ar
    12    84    83    2
    13    90    91   ar
    14   112   111    2
    15   126   128   ar
    16    85    86    1
    17    85    82    1
    18   145   146    1
    19    81    82    1
    20    81    76   am
    21    79    78    1
    22    75    74    1
    23    75    78    1
    24    75    76    1
    25    80    78    1
    26   136   134    1
    27    86    87   ar
    28   127   128   ar
    29   111   110    1
    30    83    82    1
    31    83    93    1
    32   128   129    1
    33    76    77    2
    34    91    92    1
    35    91    89   ar
    36   146   149    1
    37   146   147    1
    38   113   110    1
    39   113   114    1
    40   134   135    1
    41   134   131    1
    42   140   139    2
    43   130   131    1
    44    87    89   ar
    45   110   109    1
    46    93    94    2
    47    94    95    1
    48   149   150    1
    49   147   148    2
    50   131   132    1
    51   139   138    1
    52   114   115    1
    53   102   101    1
    54   141   138    1
    55   141   142    1
    56   151   150   ar
    57   151   153   ar
    58    97    95   am
    59    97    98    1
    60   116   115   ar
    61   109   105   am
    62    95    96    2
    63   100    99    2
    64   150   152   ar
    65   106   105    2
    66   138   137    1
    67   115   117   ar
    68    61    59    1
    69   132   133    2
    70   105   104    1
    71   144   142   ar
    72   101    98    1
    73    99    98    1
    74    99   103   am
    75   153   155   ar
    76   142   143   ar
    77    60    59    1
    78    59    56    1
    79   152   154   ar
    80   103   104    1
    81   104   107    1
    82   155   154   ar
    83    54    52    1
    84    30    29    1
    85    30    31    1
    86    56    55    1
    87    56    57    1
    88    28    29    1
    89    28    25    1
    90    26    25    1
    91    26    27    2
    92   107   108    1
    93    25    24    1
    94    62    57   am
    95    62    63    1
    96    53    52    1
    97    35    34    2
    98    52    49    1
    99    49    48    1
   100    49    50    1
   101    57    58    2
   102    36    33    1
   103   156   157    1
   104    34    33    1
   105    63    64    1
   106   157   158    1
   107   157   160    1
   108    33    32    1
   109    50    51    2
   110   158   159    2
   111   161   160    1
   112   161   162    1
   113    45    47   ar
   114    45    43   ar
   115    47    46   ar
   116    64    65    2
   117    43    42   ar
   118   162   163    1
   119    46    44   ar
   120   165   164    1
   121    37    38    1
   122    14    13    1
   123    42    44   ar
   124    42    41    1
   125    70    71    1
   126    70    67    1
   127     1     2    1
   128    38    41    1
   129    38    39    1
   130   163   164    2
   131    71    72    1
   132    66    67    1
   133     4     3    2
   134   164   166    1
   135    68    67    1
   136    68    69    2
   137     3     9   am
   138     3     2    1
   139    13    10    1
   140    10     9    1
   141    10    11    1
   142    19    20    1
   143    19    16    1
   144    39    40    2
   145    18    17    2
   146     2     5    1
   147    17    16    1
   148   180   181    1
   149   180   179    1
   150    20    21    1
   151    16    15    1
   152    72    73    1
   153    11    12    2
   154   179   178    1
   155    21    22    1
   156     5     6    1
   157   188   187    2
   158   178   177    1
   159     6     8    1
   160     6     7    1
   161    22    23    1
   162   187   189   am
   163   187   186    1
   164   177   174    1
   165   170   169    2
   166   186   183    1
   167   174   173    1
   168   174   175    1
   169   172   171    1
   170   168   169    1
   171   168   171    1
   172   168   167    1
   173   183   182    1
   174   183   184    1
   175   175   176    2
   176   195   194    1
   177   184   185    2
   178   194   196    1
   179   194   191    1
   180   191   190    1
   181   191   192    1
   182   193   192    2
