@<TRIPOS>MOLECULE
tmp/4l3pA00.pdb
 165 156 0 0 0
SMALL
GASTEIGER

@<TRIPOS>ATOM
      1  N        -18.3530  -54.0340  -14.8410 N.3    17  VAL17      -0.1231
      2  CA       -18.3990  -53.0790  -15.9440 C.3    17  VAL17       0.1692
      3  C        -17.1070  -53.0630  -16.7870 C.2    17  VAL17       0.2593
      4  O        -16.5040  -52.0140  -17.0150 O.2    17  VAL17      -0.2718
      5  CB       -18.7970  -51.6650  -15.4070 C.3    17  VAL17       0.0266
      6  CG1      -17.6490  -50.9900  -14.6330 C.3    17  VAL17       0.0020
      7  CG2      -19.3170  -50.7910  -16.5270 C.3    17  VAL17       0.0020
      8  N        -16.7010  -54.2390  -17.2610 N.am   18  GLY18      -0.1942
      9  CA       -15.5890  -54.3540  -18.2130 C.3    18  GLY18       0.2014
     10  C        -14.3140  -54.9360  -17.6290 C.2    18  GLY18       0.2639
     11  O        -13.5000  -54.2130  -17.0560 O.2    18  GLY18      -0.2714
     12  N        -14.1350  -56.2460  -17.7950 N.am   19  ARG19      -0.1963
     13  CA       -12.9360  -56.9400  -17.3090 C.3    19  ARG19       0.1729
     14  C        -11.6660  -56.4320  -17.9910 C.2    19  ARG19       0.2616
     15  O        -11.6040  -56.3390  -19.2170 O.2    19  ARG19      -0.2715
     16  CB       -13.0640  -58.4560  -17.5090 C.3    19  ARG19       0.0348
     17  CG       -13.8730  -59.1430  -16.4270 C.3    19  ARG19       0.0492
     18  CD       -14.0000  -60.6330  -16.6700 C.3    19  ARG19       0.2205
     19  NE       -15.0370  -60.9490  -17.6520 N.pl3  19  ARG19      -0.0865
     20  CZ       -16.3480  -60.9690  -17.4040 C.cat  19  ARG19       0.5346
     21  NH1      -16.8220  -60.6780  -16.1940 N.pl3  19  ARG19       0.1354
     22  NH2      -17.1980  -61.2780  -18.3790 N.pl3  19  ARG19       0.1354
     23  N        -10.6560  -56.1110  -17.1840 N.am   20  GLY20      -0.1955
     24  CA        -9.3880  -55.5910  -17.6910 C.3    20  GLY20       0.1869
     25  C         -8.4850  -56.6660  -18.2640 C.2    20  GLY20       0.2309
     26  O         -8.9400  -57.7660  -18.5850 O.2    20  GLY20      -0.2863
     27  N        -13.0180  -55.2750  -13.4130 N.3    25  VAL25      -0.1245
     28  CA       -13.4000  -53.9100  -13.0280 C.3    25  VAL25       0.1561
     29  C        -14.9070  -53.8070  -12.7920 C.2    25  VAL25       0.2260
     30  O        -15.6940  -54.3840  -13.5410 O.2    25  VAL25      -0.2867
     31  CB       -12.9940  -52.8840  -14.1130 C.3    25  VAL25       0.0252
     32  CG1      -13.1080  -51.4590  -13.5820 C.3    25  VAL25       0.0019
     33  CG2      -11.5750  -53.1490  -14.6040 C.3    25  VAL25       0.0019
     34  N        -14.9100  -46.4210   -9.7930 N.3    36  ALA36      -0.1245
     35  CA       -14.7190  -47.7320  -10.4110 C.3    36  ALA36       0.1562
     36  C        -13.5120  -48.4240   -9.7970 C.2    36  ALA36       0.2260
     37  O        -12.4470  -47.8210   -9.6770 O.2    36  ALA36      -0.2867
     38  CB       -14.5370  -47.5920  -11.9010 C.3    36  ALA36       0.0290
     39  N        -11.0480  -52.1840   -9.3960 N.3    38  LYS38      -0.1245
     40  CA       -10.6470  -53.4690   -9.9720 C.3    38  LYS38       0.1561
     41  C        -10.0360  -54.3830   -8.9120 C.2    38  LYS38       0.2260
     42  O         -9.2780  -53.9300   -8.0540 O.2    38  LYS38      -0.2867
     43  CB        -9.6880  -53.2860  -11.1560 C.3    38  LYS38       0.0271
     44  CG        -8.3180  -52.7230  -10.8080 C.3    38  LYS38       0.0035
     45  CD        -7.4060  -52.6400  -12.0300 C.3    38  LYS38       0.0206
     46  CE        -6.9540  -54.0180  -12.5110 C.3    38  LYS38       0.1093
     47  NZ        -5.8790  -53.9300  -13.5410 N.3    38  LYS38      -0.1314
     48  N          1.8050  -52.6620  -10.4630 N.3    52  GLU52      -0.1245
     49  CA         0.8730  -51.6240  -10.9250 C.3    52  GLU52       0.1567
     50  C          0.8180  -50.4090   -9.9970 C.2    52  GLU52       0.2260
     51  O          0.8290  -49.2690  -10.4670 O.2    52  GLU52      -0.2867
     52  CB        -0.5510  -52.1840  -11.0840 C.3    52  GLU52       0.0388
     53  CG        -0.9580  -52.5120  -12.5140 C.3    52  GLU52       0.1160
     54  CD        -2.4690  -52.5760  -12.6840 C.2    52  GLU52       0.3649
     55  OE1       -3.1190  -53.3710  -11.9710 O.co2  52  GLU52      -0.2457
     56  OE2       -3.0080  -51.8270  -13.5280 O.co2  52  GLU52      -0.2457
     57  N         -6.2630  -42.1980  -16.3500 N.3    65  VAL65      -0.1245
     58  CA        -7.2250  -42.3860  -15.2620 C.3    65  VAL65       0.1561
     59  C         -6.6280  -42.0010  -13.9110 C.2    65  VAL65       0.2260
     60  O         -5.5550  -42.4730  -13.5350 O.2    65  VAL65      -0.2867
     61  CB        -7.7780  -43.8340  -15.1820 C.3    65  VAL65       0.0252
     62  CG1       -8.7320  -44.0950  -16.3250 C.3    65  VAL65       0.0019
     63  CG2       -6.6540  -44.8800  -15.1490 C.3    65  VAL65       0.0019
     64  N        -10.5120  -46.1520   -8.7250 N.3    79  MET79      -0.1230
     65  CA       -10.3160  -45.1490   -9.7710 C.3    79  MET79       0.1702
     66  C        -11.5350  -44.2570   -9.9330 C.2    79  MET79       0.2592
     67  O        -12.5740  -44.4800   -9.3120 O.2    79  MET79      -0.2718
     68  CB       -10.0510  -45.8400  -11.1050 C.3    79  MET79       0.0401
     69  CG        -8.8740  -46.7870  -11.0960 C.3    79  MET79       0.0596
     70  SD        -8.9190  -47.9010  -12.5030 S.3    79  MET79      -0.1393
     71  CE       -10.1970  -49.0500  -12.0000 C.3    79  MET79       0.0692
     72  N        -11.3930  -43.2440  -10.7800 N.am   80  GLU80      -0.1966
     73  CA       -12.5150  -42.3940  -11.1700 C.3    80  GLU80       0.1733
     74  C        -13.4290  -43.1330  -12.1440 C.2    80  GLU80       0.2616
     75  O        -12.9530  -43.7720  -13.0750 O.2    80  GLU80      -0.2715
     76  CB       -12.0160  -41.0920  -11.8080 C.3    80  GLU80       0.0429
     77  CG       -11.0510  -41.2680  -12.9910 C.3    80  GLU80       0.1163
     78  CD       -10.8770  -39.9970  -13.7930 C.2    80  GLU80       0.3649
     79  OE1       -9.7180  -39.5960  -14.0290 O.co2  80  GLU80      -0.2457
     80  OE2      -11.9000  -39.3940  -14.1830 O.co2  80  GLU80      -0.2457
     81  N        -14.7380  -43.0450  -11.9280 N.am   81  TYR81      -0.1960
     82  CA       -15.6940  -43.6970  -12.8150 C.3    81  TYR81       0.1771
     83  C        -15.8450  -42.8910  -14.0990 C.2    81  TYR81       0.2619
     84  O        -16.3820  -41.7850  -14.0880 O.2    81  TYR81      -0.2715
     85  CB       -17.0550  -43.8640  -12.1370 C.3    81  TYR81       0.0574
     86  CG       -18.0840  -44.5420  -13.0170 C.ar   81  TYR81      -0.0198
     87  CD1      -18.0660  -45.9200  -13.2090 C.ar   81  TYR81      -0.0009
     88  CD2      -19.0670  -43.8040  -13.6680 C.ar   81  TYR81      -0.0009
     89  CE1      -19.0040  -46.5430  -14.0210 C.ar   81  TYR81       0.0417
     90  CE2      -20.0100  -44.4180  -14.4780 C.ar   81  TYR81       0.0417
     91  CZ       -19.9740  -45.7850  -14.6510 C.ar   81  TYR81       0.1957
     92  OH       -20.9090  -46.3890  -15.4590 O.3    81  TYR81      -0.2866
     93  N        -15.3560  -43.4490  -15.2020 N.am   82  ALA82      -0.1963
     94  CA       -15.5240  -42.8320  -16.5170 C.3    82  ALA82       0.1728
     95  C        -16.9480  -43.0790  -16.9860 C.2    82  ALA82       0.2616
     96  O        -17.3070  -44.2120  -17.3140 O.2    82  ALA82      -0.2715
     97  CB       -14.5250  -43.3950  -17.5090 C.3    82  ALA82       0.0334
     98  N        -17.7530  -42.0170  -17.0110 N.am   83  GLU83      -0.1963
     99  CA       -19.1970  -42.1520  -17.2260 C.3    83  GLU83       0.1733
    100  C        -19.5560  -42.6560  -18.6230 C.2    83  GLU83       0.2617
    101  O        -20.5880  -43.3110  -18.8010 O.2    83  GLU83      -0.2715
    102  CB       -19.9390  -40.8360  -16.9130 C.3    83  GLU83       0.0429
    103  CG       -19.9390  -39.7570  -18.0180 C.3    83  GLU83       0.1163
    104  CD       -18.8220  -38.7350  -17.8770 C.2    83  GLU83       0.3649
    105  OE1      -17.7210  -39.0940  -17.3980 O.co2  83  GLU83      -0.2457
    106  OE2      -19.0470  -37.5650  -18.2590 O.co2  83  GLU83      -0.2457
    107  N        -18.6950  -42.3620  -19.5990 N.am   84  GLY84      -0.1940
    108  CA       -18.9720  -42.6580  -21.0030 C.3    84  GLY84       0.2014
    109  C        -18.4960  -44.0150  -21.4860 C.2    84  GLY84       0.2639
    110  O        -18.5980  -44.3140  -22.6810 O.2    84  GLY84      -0.2714
    111  N        -17.9700  -44.8340  -20.5760 N.am   85  GLY85      -0.1939
    112  CA       -17.4670  -46.1590  -20.9330 C.3    85  GLY85       0.2014
    113  C        -16.2070  -46.1100  -21.7820 C.2    85  GLY85       0.2639
    114  O        -15.5240  -45.0890  -21.8380 O.2    85  GLY85      -0.2714
    115  N        -15.9010  -47.2220  -22.4450 N.am   86  SER86      -0.1949
    116  CA       -14.7070  -47.3220  -23.2810 C.3    86  SER86       0.1924
    117  C        -14.9450  -46.7090  -24.6540 C.2    86  SER86       0.2314
    118  O        -16.0820  -46.5560  -25.0860 O.2    86  SER86      -0.2863
    119  CB       -14.2950  -48.7820  -23.4470 C.3    86  SER86       0.2116
    120  OG       -15.2800  -49.5080  -24.1610 O.3    86  SER86      -0.2180
    121  N        -16.6890  -49.2940  -27.1200 N.3    89  ASN89      -0.1240
    122  CA       -18.1540  -49.2610  -27.0650 C.3    89  ASN89       0.1653
    123  C        -18.7210  -48.1360  -27.9160 C.2    89  ASN89       0.2266
    124  O        -19.5700  -48.3700  -28.7750 O.2    89  ASN89      -0.2867
    125  CB       -18.6480  -49.0890  -25.6270 C.3    89  ASN89       0.1155
    126  CG       -18.5550  -50.3670  -24.8160 C.2    89  ASN89       0.2627
    127  OD1      -17.9180  -51.3390  -25.2250 O.2    89  ASN89      -0.2716
    128  ND2      -19.1950  -50.3700  -23.6520 N.am   89  ASN89      -0.0877
    129  N        -10.6350  -50.5070  -26.1930 N.3   135  PRO135     -0.2102
    130  CA       -11.1400  -51.0490  -24.9300 C.3   135  PRO135      0.1504
    131  C        -10.4170  -50.5260  -23.6810 C.2   135  PRO135      0.2575
    132  O        -11.0150  -50.4860  -22.6040 O.2   135  PRO135     -0.2718
    133  CB       -10.9220  -52.5510  -25.0950 C.3   135  PRO135      0.0282
    134  CG       -11.0170  -52.7640  -26.5570 C.3   135  PRO135      0.0208
    135  CD       -10.3260  -51.5830  -27.1500 C.3   135  PRO135      0.0893
    136  N         -9.1540  -50.1250  -23.8320 N.am  136  ASN136     -0.1975
    137  CA        -8.3850  -49.5090  -22.7450 C.3   136  ASN136      0.1688
    138  C         -8.5140  -47.9780  -22.6780 C.2   136  ASN136      0.2292
    139  O         -8.1960  -47.3840  -21.6500 O.2   136  ASN136     -0.2864
    140  CB        -6.9050  -49.8910  -22.8560 C.3   136  ASN136      0.1181
    141  CG        -6.6790  -51.3940  -22.8060 C.2   136  ASN136      0.2629
    142  OD1       -7.6120  -52.1780  -22.6070 O.2   136  ASN136     -0.2716
    143  ND2       -5.4310  -51.8020  -22.9880 N.am  136  ASN136     -0.0877
    144  N        -10.7430  -44.7930  -22.2240 N.3   138  LEU138     -0.1245
    145  CA       -12.0370  -44.4390  -21.6310 C.3   138  LEU138      0.1561
    146  C        -12.4090  -42.9970  -21.9500 C.2   138  LEU138      0.2260
    147  O        -11.5400  -42.1950  -22.2880 O.2   138  LEU138     -0.2867
    148  CB       -11.9870  -44.6340  -20.1160 C.3   138  LEU138      0.0270
    149  CG       -11.5500  -46.0210  -19.6350 C.3   138  LEU138      0.0019
    150  CD1      -11.4190  -46.0500  -18.1110 C.3   138  LEU138      0.0001
    151  CD2      -12.5160  -47.1000  -20.1100 C.3   138  LEU138      0.0001
    152  N         -5.9550  -46.1160  -19.5890 N.3   149  CYS149     -0.1221
    153  CA        -5.7380  -46.9700  -18.4240 C.3   149  CYS149      0.1808
    154  C         -5.0900  -48.2930  -18.8370 C.2   149  CYS149      0.2601
    155  O         -4.9370  -48.5700  -20.0290 O.2   149  CYS149     -0.2717
    156  CB        -7.0560  -47.2360  -17.7000 C.3   149  CYS149      0.0970
    157  SG        -8.2700  -48.1210  -18.6890 S.3   149  CYS149     -0.0800
    158  N         -4.6970  -49.0860  -17.8400 N.am  150  ASP150     -0.1973
    159  CA        -4.1600  -50.4370  -18.0470 C.3   150  ASP150      0.1709
    160  C         -2.8170  -50.4510  -18.7950 C.2   150  ASP150      0.2293
    161  O         -2.7800  -50.5830  -20.0190 O.2   150  ASP150     -0.2864
    162  CB        -5.1890  -51.3030  -18.7870 C.3   150  ASP150      0.1436
    163  CG        -4.8750  -52.7790  -18.7060 C.2   150  ASP150      0.3671
    164  OD1       -4.9220  -53.3390  -17.5890 O.co2 150  ASP150     -0.2456
    165  OD2       -4.5860  -53.3760  -19.7650 O.co2 150  ASP150     -0.2456
@<TRIPOS>BOND
     1   124   123    2
     2   123   122    1
     3   135   134    1
     4   135   129    1
     5   121   122    1
     6   122   125    1
     7   134   133    1
     8   129   130    1
     9   125   126    1
    10   127   126    2
    11   133   130    1
    12   118   117    2
    13   130   131    1
    14   126   128   am
    15   117   116    1
    16   120   119    1
    17   136   131   am
    18   136   137    1
    19   131   132    2
    20   119   116    1
    21   116   115    1
    22   143   141   am
    23   140   141    1
    24   140   137    1
    25   141   142    2
    26   137   138    1
    27   110   109    2
    28   138   139    2
    29   115   113   am
    30   147   146    2
    31   144   145    1
    32   146   145    1
    33   114   113    2
    34   113   112    1
    35   145   148    1
    36   109   108    1
    37   109   111   am
    38   108   107    1
    39   112   111    1
    40   148   149    1
    41   151   149    1
    42   155   154    2
    43   161   160    2
    44   165   163   ar
    45   149   150    1
    46   107   100   am
    47   152   153    1
    48    15    14    2
    49   154   153    1
    50   154   158   am
    51   101   100    2
    52   160   159    1
    53   162   163    1
    54   162   159    1
    55   163   164   ar
    56   157   156    1
    57   100    99    1
    58    26    25    2
    59   153   156    1
    60    22    20    1
    61    25    24    1
    62   106   104   ar
    63     9    10    1
    64     9     8    1
    65   159   158    1
    66   103   104    1
    67   103   102    1
    68    14    13    1
    69    14    23   am
    70   104   105   ar
    71    12    10   am
    72    12    13    1
    73    24    23    1
    74    19    20    2
    75    19    18    1
    76    10    11    2
    77    97    94    1
    78    16    13    1
    79    16    17    1
    80    20    21    1
    81    96    95    2
    82     8     3   am
    83    99    98    1
    84    99   102    1
    85     4     3    2
    86    98    95   am
    87    95    94    1
    88     3     2    1
    89    18    17    1
    90     7     5    1
    91    94    93    1
    92    57    58    1
    93    62    61    1
    94     2     5    1
    95     2     1    1
    96    92    91    1
    97     5     6    1
    98    58    61    1
    99    58    59    1
   100    93    83   am
   101    61    63    1
   102    91    90   ar
   103    91    89   ar
   104    33    31    1
   105    90    88   ar
   106    80    78   ar
   107    31    32    1
   108    31    28    1
   109    83    84    2
   110    83    82    1
   111    79    78   ar
   112    89    87   ar
   113    59    60    2
   114    78    77    1
   115    88    86   ar
   116    30    29    2
   117    47    46    1
   118    56    54   ar
   119    27    28    1
   120    87    86   ar
   121    75    74    2
   122    28    29    1
   123    86    85    1
   124    77    76    1
   125    82    85    1
   126    82    81    1
   127    54    53    1
   128    54    55   ar
   129    53    52    1
   130    46    45    1
   131    70    71    1
   132    70    69    1
   133    74    81   am
   134    74    73    1
   135    45    44    1
   136    38    35    1
   137    76    73    1
   138    73    72    1
   139    43    44    1
   140    43    40    1
   141    68    69    1
   142    68    65    1
   143    52    49    1
   144    49    48    1
   145    49    50    1
   146    72    66   am
   147    51    50    2
   148    35    36    1
   149    35    34    1
   150    40    39    1
   151    40    41    1
   152    66    65    1
   153    66    67    2
   154    36    37    2
   155    65    64    1
   156    41    42    2
