@<TRIPOS>MOLECULE
tmp/4l3qA01.pdb
 169 164 0 0 0
SMALL
GASTEIGER

@<TRIPOS>ATOM
      1  N         32.7310   13.1600   55.7220 N.3    48  TYR48      -0.1227
      2  CA        33.2500   14.5090   55.5410 C.3    48  TYR48       0.1736
      3  C         34.1060   15.0020   56.6820 C.2    48  TYR48       0.2595
      4  O         34.4790   16.1640   56.6930 O.2    48  TYR48      -0.2718
      5  CB        32.1260   15.4950   55.2170 C.3    48  TYR48       0.0548
      6  CG        31.6790   15.3090   53.7990 C.ar   48  TYR48      -0.0200
      7  CD1       32.4570   15.8030   52.7450 C.ar   48  TYR48      -0.0009
      8  CD2       30.5220   14.5690   53.4950 C.ar   48  TYR48      -0.0009
      9  CE1       32.0860   15.5870   51.4400 C.ar   48  TYR48       0.0417
     10  CE2       30.1440   14.3520   52.1750 C.ar   48  TYR48       0.0417
     11  CZ        30.9330   14.8760   51.1590 C.ar   48  TYR48       0.1957
     12  OH        30.5960   14.6890   49.8370 O.3    48  TYR48      -0.2866
     13  N         34.4440   14.1310   57.6230 N.am   49  VAL49      -0.1966
     14  CA        35.5280   14.4370   58.5410 C.3    49  VAL49       0.1727
     15  C         36.8230   14.0790   57.8030 C.2    49  VAL49       0.2616
     16  O         37.0430   12.9260   57.4600 O.2    49  VAL49      -0.2715
     17  CB        35.4020   13.6470   59.8720 C.3    49  VAL49       0.0290
     18  CG1       36.5740   13.9680   60.8130 C.3    49  VAL49       0.0023
     19  CG2       34.0700   13.9150   60.5520 C.3    49  VAL49       0.0023
     20  N         37.6850   15.0510   57.5470 N.am   50  ARG50      -0.1963
     21  CA        38.8030   14.8110   56.6320 C.3    50  ARG50       0.1729
     22  C         40.1300   14.7580   57.3250 C.2    50  ARG50       0.2617
     23  O         40.3100   15.3200   58.4020 O.2    50  ARG50      -0.2715
     24  CB        38.9000   15.9040   55.5460 C.3    50  ARG50       0.0348
     25  CG        37.8550   15.8430   54.4370 C.3    50  ARG50       0.0492
     26  CD        37.6710   17.1680   53.6780 C.3    50  ARG50       0.2205
     27  NE        36.7800   17.0110   52.5180 N.pl3  50  ARG50      -0.0865
     28  CZ        37.1510   16.4920   51.3550 C.cat  50  ARG50       0.5346
     29  NH1       38.4020   16.0730   51.1890 N.pl3  50  ARG50       0.1354
     30  NH2       36.2720   16.3810   50.3690 N.pl3  50  ARG50       0.1354
     31  N         41.0790   14.1220   56.6480 N.am   51  SER51      -0.1936
     32  CA        42.4620   14.0750   57.0850 C.3    51  SER51       0.2055
     33  C         42.9240   15.4610   57.4870 C.2    51  SER51       0.2644
     34  O         42.7830   16.4340   56.7240 O.2    51  SER51      -0.2714
     35  CB        43.3690   13.5190   55.9800 C.3    51  SER51       0.2130
     36  OG        44.3910   12.7000   56.5280 O.3    51  SER51      -0.2179
     37  N         43.4640   15.5160   58.7020 N.am   52  THR52      -0.1937
     38  CA        43.9340   16.7410   59.3360 C.3    52  THR52       0.2013
     39  C         44.1030   17.8790   58.3190 C.2    52  THR52       0.2484
     40  O         45.0760   17.9130   57.5450 O.2    52  THR52      -0.2729
     41  CB        45.2160   16.4910   60.2070 C.3    52  THR52       0.1807
     42  OG1       46.1120   17.6100   60.0840 O.3    52  THR52      -0.2208
     43  CG2       46.0270   15.2730   59.7080 C.3    52  THR52       0.0379
     44  N         43.1000   18.7660   58.3040 N.am   53  PRO53      -0.2726
     45  CA        43.1520   20.0070   57.5270 C.3    53  PRO53       0.1402
     46  C         43.7660   21.1320   58.3710 C.2    53  PRO53       0.2269
     47  O         44.1250   22.1750   57.8170 O.2    53  PRO53      -0.2865
     48  CB        41.6710   20.2960   57.2250 C.3    53  PRO53       0.0296
     49  CG        40.8870   19.5330   58.2820 C.3    53  PRO53       0.0237
     50  CD        41.8300   18.6420   59.0500 C.3    53  PRO53       0.0939
     51  N         29.8730   17.8850   56.1880 N.3   146  ILE146     -0.1245
     52  CA        30.1010   17.7580   57.6220 C.3   146  ILE146      0.1561
     53  C         28.9480   18.2770   58.5090 C.2   146  ILE146      0.2260
     54  O         28.9060   17.9670   59.7010 O.2   146  ILE146     -0.2867
     55  CB        31.4510   18.4290   57.9980 C.3   146  ILE146      0.0252
     56  CG1       31.9130   18.0020   59.4010 C.3   146  ILE146      0.0019
     57  CG2       31.3420   19.9150   57.9220 C.3   146  ILE146      0.0019
     58  CD1       33.4350   17.7170   59.5140 C.3   146  ILE146      0.0001
     59  N         36.3490    8.0130   67.7410 N.3   197  MET197     -0.1230
     60  CA        37.6200    7.8860   67.0640 C.3   197  MET197      0.1702
     61  C         38.3990    9.1990   67.1330 C.2   197  MET197      0.2592
     62  O         39.6250    9.2050   67.4150 O.2   197  MET197     -0.2718
     63  CB        37.4440    7.4170   65.6270 C.3   197  MET197      0.0401
     64  CG        38.7570    7.4060   64.8710 C.3   197  MET197      0.0596
     65  SD        38.5950    7.4310   63.0960 S.3   197  MET197     -0.1393
     66  CE        37.9600    9.2290   62.8280 C.3   197  MET197      0.0692
     67  N         37.6940   10.3120   66.9130 N.am  198  ILE198     -0.1980
     68  CA        38.3460   11.6180   66.9880 C.3   198  ILE198      0.1595
     69  C         38.9690   11.8560   68.3690 C.2   198  ILE198      0.2287
     70  O         40.1800   12.1360   68.4650 O.2   198  ILE198     -0.2864
     71  CB        37.3950   12.7730   66.5510 C.3   198  ILE198      0.0276
     72  CG1       37.0850   12.6760   65.0480 C.3   198  ILE198      0.0022
     73  CG2       38.0050   14.1590   66.9350 C.3   198  ILE198      0.0022
     74  CD1       38.2920   12.9470   64.1740 C.3   198  ILE198      0.0001
     75  N         41.9840    9.5750   68.7650 N.3   201  TYR201     -0.1227
     76  CA        43.0380   10.2220   67.9560 C.3   201  TYR201      0.1736
     77  C         43.8340   11.3240   68.6790 C.2   201  TYR201      0.2595
     78  O         45.0570   11.3640   68.6070 O.2   201  TYR201     -0.2718
     79  CB        42.4820   10.8110   66.6470 C.3   201  TYR201      0.0548
     80  CG        43.5420   11.5980   65.8900 C.ar  201  TYR201     -0.0200
     81  CD1       44.5530   10.9370   65.2120 C.ar  201  TYR201     -0.0009
     82  CD2       43.5790   12.9970   65.9150 C.ar  201  TYR201     -0.0009
     83  CE1       45.5450   11.6270   64.5500 C.ar  201  TYR201      0.0417
     84  CE2       44.5880   13.7070   65.2520 C.ar  201  TYR201      0.0417
     85  CZ        45.5600   13.0060   64.5670 C.ar  201  TYR201      0.1957
     86  OH        46.5820   13.6400   63.8910 O.3   201  TYR201     -0.2866
     87  N         43.1490   12.2450   69.3470 N.am  202  TYR202     -0.1976
     88  CA        43.8800   13.2890   70.0690 C.3   202  TYR202      0.1639
     89  C         44.7090   12.7690   71.2450 C.2   202  TYR202      0.2290
     90  O         45.7180   13.3680   71.6070 O.2   202  TYR202     -0.2864
     91  CB        42.9690   14.4670   70.4300 C.3   202  TYR202      0.0560
     92  CG        42.6230   15.2950   69.2010 C.ar  202  TYR202     -0.0198
     93  CD1       41.2870   15.4670   68.7850 C.ar  202  TYR202     -0.0009
     94  CD2       43.6380   15.8650   68.4190 C.ar  202  TYR202     -0.0009
     95  CE1       40.9740   16.2110   67.6200 C.ar  202  TYR202      0.0417
     96  CE2       43.3430   16.6060   67.2620 C.ar  202  TYR202      0.0417
     97  CZ        42.0180   16.7780   66.8690 C.ar  202  TYR202      0.1957
     98  OH        41.7650   17.5230   65.7380 O.3   202  TYR202     -0.2866
     99  N         47.5790    9.4400   68.0220 N.3   205  HIS205     -0.1241
    100  CA        47.6220    9.6760   66.5680 C.3   205  HIS205      0.1621
    101  C         47.4790    8.4230   65.6810 C.2   205  HIS205      0.2264
    102  O         47.0470    8.5060   64.5250 O.2   205  HIS205     -0.2867
    103  CB        48.8820   10.4720   66.2010 C.3   205  HIS205      0.0745
    104  CG        48.7720   11.9410   66.5050 C.ar  205  HIS205      0.0817
    105  ND1       48.0480   12.4310   67.5760 N.ar  205  HIS205     -0.2268
    106  CD2       49.2670   13.0260   65.8600 C.ar  205  HIS205      0.1154
    107  CE1       48.1020   13.7510   67.5750 C.ar  205  HIS205      0.1986
    108  NE2       48.8330   14.1360   66.5430 N.ar  205  HIS205     -0.2212
    109  N         45.2360    6.3060   66.2170 N.3   207  CYS207     -0.1221
    110  CA        43.8520    5.8950   66.1780 C.3   207  CYS207      0.1808
    111  C         43.2780    6.2690   64.8330 C.2   207  CYS207      0.2601
    112  O         43.1720    7.4430   64.4970 O.2   207  CYS207     -0.2717
    113  CB        43.0250    6.4440   67.3290 C.3   207  CYS207      0.0970
    114  SG        41.2970    5.8750   67.2350 S.3   207  CYS207     -0.0800
    115  N         42.9430    5.2510   64.0540 N.am  208  GLU208     -0.1979
    116  CA        42.2960    5.4340   62.7730 C.3   208  GLU208      0.1602
    117  C         41.0130    4.6300   62.6780 C.2   208  GLU208      0.2287
    118  O         40.4120    4.5360   61.6130 O.2   208  GLU208     -0.2864
    119  CB        43.2460    5.0630   61.6400 C.3   208  GLU208      0.0415
    120  CG        44.4330    5.9960   61.5060 C.3   208  GLU208      0.1163
    121  CD        45.3380    5.6250   60.3500 C.2   208  GLU208      0.3649
    122  OE1       44.8460    5.0400   59.3700 O.co2 208  GLU208     -0.2457
    123  OE2       46.5550    5.9130   60.4170 O.co2 208  GLU208     -0.2457
    124  N         39.5340    5.4230   58.9180 N.3   222  MET222     -0.1245
    125  CA        40.1780    6.3310   58.0040 C.3   222  MET222      0.1570
    126  C         40.4380    5.6640   56.6450 C.2   222  MET222      0.2261
    127  O         41.2780    4.7590   56.5330 O.2   222  MET222     -0.2867
    128  CB        41.4900    6.8130   58.6530 C.3   222  MET222      0.0387
    129  CG        41.3020    7.7940   59.8110 C.3   222  MET222      0.0595
    130  SD        40.0200    8.9900   59.2970 S.3   222  MET222     -0.1393
    131  CE        41.0860   10.0900   58.2210 C.3   222  MET222      0.0692
    132  N         42.5500   11.8610   52.9280 N.3   237  ARG237     -0.1245
    133  CA        41.8200   10.7430   53.5270 C.3   237  ARG237      0.1563
    134  C         40.5680   11.2290   54.2330 C.2   237  ARG237      0.2260
    135  O         40.5890   12.2630   54.8840 O.2   237  ARG237     -0.2867
    136  CB        42.7180   10.0230   54.5270 C.3   237  ARG237      0.0307
    137  CG        44.2220   10.1570   54.2310 C.3   237  ARG237      0.0489
    138  CD        45.1360    9.4940   55.2470 C.3   237  ARG237      0.2205
    139  NE        44.7500    8.1150   55.5190 N.pl3 237  ARG237     -0.0865
    140  CZ        45.0070    7.4800   56.6490 C.cat 237  ARG237      0.5346
    141  NH1       45.6550    8.0930   57.6290 N.pl3 237  ARG237      0.1354
    142  NH2       44.6260    6.2260   56.8040 N.pl3 237  ARG237      0.1354
    143  N         35.2360   18.4110   69.4390 N.3   438  LEU438     -0.1231
    144  CA        36.5510   18.5670   68.8160 C.3   438  LEU438      0.1693
    145  C         36.4460   18.6370   67.3060 C.2   438  LEU438      0.2591
    146  O         37.2870   19.2430   66.6370 O.2   438  LEU438     -0.2718
    147  CB        37.4850   17.4330   69.1960 C.3   438  LEU438      0.0284
    148  CG        38.0850   17.4690   70.5900 C.3   438  LEU438      0.0019
    149  CD1       38.0580   16.0600   71.1760 C.3   438  LEU438      0.0001
    150  CD2       39.4960   18.0300   70.5690 C.3   438  LEU438      0.0001
    151  N         35.4100   18.0120   66.7680 N.am  439  VAL439     -0.1980
    152  CA        35.1990   18.0400   65.3360 C.3   439  VAL439      0.1595
    153  C         34.6460   19.4160   64.9840 C.2   439  VAL439      0.2287
    154  O         35.0270   20.0030   63.9660 O.2   439  VAL439     -0.2864
    155  CB        34.2790   16.8710   64.8480 C.3   439  VAL439      0.0276
    156  CG1       33.8700   17.0430   63.3650 C.3   439  VAL439      0.0022
    157  CG2       34.9850   15.5500   65.0270 C.3   439  VAL439      0.0022
    158  N         37.1160   22.4000   64.7300 N.3   442  VAL442     -0.1231
    159  CA        37.8440   22.4600   63.4650 C.3   442  VAL442      0.1692
    160  C         36.9370   22.9960   62.3550 C.2   442  VAL442      0.2591
    161  O         37.3130   23.9030   61.6150 O.2   442  VAL442     -0.2718
    162  CB        38.5260   21.1100   63.1070 C.3   442  VAL442      0.0266
    163  CG1       38.5300   20.8940   61.6080 C.3   442  VAL442      0.0020
    164  CG2       39.9530   21.0780   63.6590 C.3   442  VAL442      0.0020
    165  N         35.7290   22.4590   62.2550 N.am  443  ALA443     -0.1980
    166  CA        34.8120   22.9170   61.2220 C.3   443  ALA443      0.1597
    167  C         34.2840   24.3210   61.5000 C.2   443  ALA443      0.2287
    168  O         33.5420   24.8770   60.6800 O.2   443  ALA443     -0.2864
    169  CB        33.6660   21.9390   61.0510 C.3   443  ALA443      0.0319
@<TRIPOS>BOND
     1    12    11    1
     2    30    28    1
     3    11     9   ar
     4    11    10   ar
     5    29    28    1
     6    28    27    2
     7     9     7   ar
     8    10     8   ar
     9    27    26    1
    10     7     6   ar
    11   132   133    1
    12     8     6   ar
    13   133   134    1
    14   133   136    1
    15    26    25    1
    16     6     5    1
    17   137   136    1
    18   137   138    1
    19   134   135    2
    20    25    24    1
    21     5     2    1
    22   138   139    1
    23   139   140    2
    24     2     1    1
    25     2     3    1
    26    24    21    1
    27    35    36    1
    28    35    32    1
    29    51    52    1
    30   127   126    2
    31    21    22    1
    32    21    20    1
    33   126   125    1
    34    31    32    1
    35    31    22   am
    36   140   142    1
    37   140   141    1
    38     3     4    2
    39     3    13   am
    40    34    33    2
    41    32    33    1
    42    48    45    1
    43    48    49    1
    44    22    23    2
    45    16    15    2
    46    33    37   am
    47    45    44    1
    48    45    46    1
    49    40    39    2
    50    20    15   am
    51    52    55    1
    52    52    53    1
    53    13    14    1
    54    15    14    1
    55    47    46    2
    56    57    55    1
    57    55    56    1
    58   125   128    1
    59   125   124    1
    60   131   130    1
    61    49    50    1
    62    44    39   am
    63    44    50    1
    64    39    38    1
    65    53    54    2
    66    14    17    1
    67   128   129    1
    68    37    38    1
    69   130   129    1
    70    38    41    1
    71   122   121   ar
    72    56    58    1
    73    43    41    1
    74    17    19    1
    75    17    18    1
    76    42    41    1
    77   121   123   ar
    78   121   120    1
    79   168   167    2
    80   169   166    1
    81   166   167    1
    82   166   165    1
    83   120   119    1
    84   163   162    1
    85   118   117    2
    86   161   160    2
    87   119   116    1
    88   165   160   am
    89   160   159    1
    90   117   116    1
    91   116   115    1
    92    66    65    1
    93    65    64    1
    94   162   159    1
    95   162   164    1
    96   156   155    1
    97   159   158    1
    98    86    85    1
    99   154   153    2
   100   115   111   am
   101    74    72    1
   102   112   111    2
   103   102   101    2
   104    83    85   ar
   105    83    81   ar
   106    85    84   ar
   107   111   110    1
   108   155   157    1
   109   155   152    1
   110    64    63    1
   111   153   152    1
   112    72    71    1
   113    81    80   ar
   114    84    82   ar
   115   152   151    1
   116    63    60    1
   117   101   100    1
   118    98    97    1
   119   106   104   ar
   120   106   108   ar
   121    80    82   ar
   122    80    79    1
   123   110   109    1
   124   110   113    1
   125   103   104    1
   126   103   100    1
   127   104   105   ar
   128   108   107   ar
   129    71    73    1
   130    71    68    1
   131   100    99    1
   132   146   145    2
   133    79    76    1
   134   151   145   am
   135    97    96   ar
   136    97    95   ar
   137    67    68    1
   138    67    61   am
   139    68    69    1
   140    60    61    1
   141    60    59    1
   142    61    62    2
   143   114   113    1
   144    96    94   ar
   145   145   144    1
   146   107   105   ar
   147    95    93   ar
   148    76    77    1
   149    76    75    1
   150    69    70    2
   151    94    92   ar
   152    78    77    2
   153    77    87   am
   154    93    92   ar
   155   144   147    1
   156   144   143    1
   157   147   148    1
   158    92    91    1
   159    87    88    1
   160    88    91    1
   161    88    89    1
   162   150   148    1
   163   148   149    1
   164    89    90    2
