@<TRIPOS>MOLECULE
tmp/4l3vA01.pdb
 217 215 0 0 0
SMALL
GASTEIGER

@<TRIPOS>ATOM
      1  N       -213.9440  381.5410 -111.1900 N.3     8  ALA8       -0.1231
      2  CA      -213.6580  382.5230 -112.2270 C.3     8  ALA8        0.1679
      3  C       -212.9670  383.7320 -111.6230 C.2     8  ALA8        0.2434
      4  O       -213.4620  384.3020 -110.6560 O.2     8  ALA8       -0.2733
      5  CB      -214.9500  382.9570 -112.8980 C.3     8  ALA8        0.0304
      6  N       -211.8160  384.1230 -112.1820 N.am    9  PRO9       -0.2718
      7  CA      -211.0980  385.3090 -111.7020 C.3     9  PRO9        0.1535
      8  C       -211.9930  386.5440 -111.7310 C.2     9  PRO9        0.2599
      9  O       -212.9520  386.6090 -112.5060 O.2     9  PRO9       -0.2715
     10  CB      -209.9330  385.4470 -112.6850 C.3     9  PRO9        0.0310
     11  CG      -210.3080  384.6040 -113.8670 C.3     9  PRO9        0.0237
     12  CD      -211.1250  383.4800 -113.3070 C.3     9  PRO9        0.0939
     13  N       -211.7050  387.5060 -110.8670 N.am   10  SER10      -0.1936
     14  CA      -212.5930  388.6440 -110.7350 C.3    10  SER10       0.2055
     15  C       -212.5100  389.5890 -111.9160 C.2    10  SER10       0.2643
     16  O       -211.4320  389.8890 -112.4240 O.2    10  SER10      -0.2714
     17  CB      -212.3090  389.4110 -109.4450 C.3    10  SER10       0.2130
     18  OG      -213.2480  390.4580 -109.2740 O.3    10  SER10      -0.2179
     19  N       -213.6730  390.0510 -112.3450 N.am   11  ARG11      -0.1963
     20  CA      -213.7590  391.0480 -113.3880 C.3    11  ARG11       0.1729
     21  C       -213.7680  392.4360 -112.7750 C.2    11  ARG11       0.2616
     22  O       -213.9410  393.4380 -113.4580 O.2    11  ARG11      -0.2715
     23  CB      -215.0180  390.8320 -114.2040 C.3    11  ARG11       0.0348
     24  CG      -214.9430  389.6260 -115.0770 C.3    11  ARG11       0.0492
     25  CD      -216.0170  389.7140 -116.1070 C.3    11  ARG11       0.2205
     26  NE      -217.3410  389.5070 -115.5420 N.pl3  11  ARG11      -0.0865
     27  CZ      -218.0490  388.3980 -115.7280 C.cat  11  ARG11       0.5346
     28  NH1     -217.5580  387.4120 -116.4720 N.pl3  11  ARG11       0.1354
     29  NH2     -219.2510  388.2750 -115.1840 N.pl3  11  ARG11       0.1354
     30  N       -213.5950  392.4960 -111.4680 N.am   12  CYS12      -0.1954
     31  CA      -213.6390  393.7770 -110.8000 C.3    12  CYS12       0.1843
     32  C       -212.4100  394.5980 -111.1300 C.2    12  CYS12       0.2626
     33  O       -211.2860  394.1080 -111.0860 O.2    12  CYS12      -0.2714
     34  CB      -213.7710  393.6060 -109.2930 C.3    12  CYS12       0.0997
     35  SG      -214.1160  395.1480 -108.4620 S.3    12  CYS12      -0.0797
     36  N       -212.6450  395.8410 -111.5160 N.am   13  THR13      -0.1936
     37  CA      -211.5700  396.7400 -111.8950 C.3    13  THR13       0.2028
     38  C       -211.0980  397.6710 -110.7730 C.2    13  THR13       0.2642
     39  O       -210.3070  398.5900 -111.0200 O.2    13  THR13      -0.2714
     40  CB      -211.9640  397.5330 -113.1160 C.3    13  THR13       0.1808
     41  OG1     -213.1250  398.3140 -112.8180 O.3    13  THR13      -0.2208
     42  CG2     -212.3000  396.5610 -114.2090 C.3    13  THR13       0.0379
     43  N       -211.6120  397.4680 -109.5600 N.am   14  TRP14      -0.1973
     44  CA      -211.1010  398.1960 -108.4070 C.3    14  TRP14       0.1640
     45  C       -209.6120  397.9550 -108.2440 C.2    14  TRP14       0.2290
     46  O       -209.1250  396.8340 -108.3920 O.2    14  TRP14      -0.2864
     47  CB      -211.8140  397.7690 -107.1190 C.3    14  TRP14       0.0576
     48  CG      -211.2410  398.4210 -105.8500 C.ar   14  TRP14       0.0006
     49  CD1     -211.6460  399.5940 -105.2670 C.ar   14  TRP14       0.0946
     50  CD2     -210.1770  397.9160 -105.0180 C.ar   14  TRP14       0.0152
     51  NE1     -210.8910  399.8560 -104.1440 N.ar   14  TRP14      -0.2442
     52  CE2     -209.9860  398.8420 -103.9690 C.ar   14  TRP14       0.0810
     53  CE3     -209.3600  396.7800 -105.0680 C.ar   14  TRP14       0.0012
     54  CZ2     -209.0180  398.6630 -102.9830 C.ar   14  TRP14       0.0191
     55  CZ3     -208.4030  396.6070 -104.0840 C.ar   14  TRP14       0.0001
     56  CH2     -208.2400  397.5420 -103.0600 C.ar   14  TRP14       0.0015
     57  N       -208.5600  404.0430 -106.6000 N.3    18  ARG18      -0.1231
     58  CA      -209.6380  404.4910 -107.4710 C.3    18  ARG18       0.1679
     59  C       -210.6030  405.2590 -106.5920 C.2    18  ARG18       0.2434
     60  O       -211.0030  404.7690 -105.5310 O.2    18  ARG18      -0.2733
     61  CB      -210.3530  403.3210 -108.1520 C.3    18  ARG18       0.0321
     62  CG      -209.5310  402.6220 -109.2120 C.3    18  ARG18       0.0489
     63  CD      -209.4600  403.4190 -110.5060 C.3    18  ARG18       0.2205
     64  NE      -210.7000  403.3610 -111.2780 N.pl3  18  ARG18      -0.0865
     65  CZ      -211.0650  402.3220 -112.0260 C.cat  18  ARG18       0.5346
     66  NH1     -212.2030  402.3530 -112.7060 N.pl3  18  ARG18       0.1354
     67  NH2     -210.2900  401.2490 -112.0870 N.pl3  18  ARG18       0.1354
     68  N       -210.9520  406.4810 -107.0100 N.am   19  PRO19      -0.2718
     69  CA      -211.9490  407.2800 -106.2970 C.3    19  PRO19       0.1535
     70  C       -213.2390  406.4930 -106.2110 C.2    19  PRO19       0.2598
     71  O       -213.6000  405.8280 -107.1750 O.2    19  PRO19      -0.2715
     72  CB      -212.1280  408.4990 -107.2000 C.3    19  PRO19       0.0310
     73  CG      -210.8210  408.6280 -107.9090 C.3    19  PRO19       0.0237
     74  CD      -210.3510  407.2170 -108.1350 C.3    19  PRO19       0.0939
     75  N       -213.9180  406.5630 -105.0750 N.am   20  ALA20      -0.1978
     76  CA      -215.1370  405.7940 -104.8780 C.3    20  ALA20       0.1597
     77  C       -216.1940  406.2790 -105.8480 C.2    20  ALA20       0.2287
     78  O       -217.1350  405.5520 -106.1750 O.2    20  ALA20      -0.2864
     79  CB      -215.6280  405.9310 -103.4510 C.3    20  ALA20       0.0319
     80  N       -215.8740  406.6210 -108.8470 N.3    22  GLU22      -0.1231
     81  CA      -215.7520  405.8260 -110.0620 C.3    22  GLU22       0.1699
     82  C       -216.4430  404.4610 -109.9970 C.2    22  GLU22       0.2593
     83  O       -216.6180  403.8090 -111.0210 O.2    22  GLU22      -0.2718
     84  CB      -214.2780  405.6470 -110.4310 C.3    22  GLU22       0.0402
     85  CG      -213.5920  406.9450 -110.8490 C.3    22  GLU22       0.1161
     86  CD      -212.1970  406.7270 -111.4170 C.2    22  GLU22       0.3649
     87  OE1     -211.8490  405.5650 -111.7240 O.co2  22  GLU22      -0.2457
     88  OE2     -211.4500  407.7210 -111.5570 O.co2  22  GLU22      -0.2457
     89  N       -216.8400  404.0320 -108.8030 N.am   23  SER23      -0.1939
     90  CA      -217.3970  402.6860 -108.6220 C.3    23  SER23       0.2040
     91  C       -218.7930  402.5100 -109.2090 C.2    23  SER23       0.2485
     92  O       -219.6840  403.3200 -108.9500 O.2    23  SER23      -0.2729
     93  CB      -217.4190  402.2910 -107.1480 C.3    23  SER23       0.2129
     94  OG      -217.9940  401.0040 -107.0030 O.3    23  SER23      -0.2179
     95  N       -218.9850  401.4420 -110.0040 N.am   24  PRO24      -0.2715
     96  CA      -220.2650  401.1510 -110.6570 C.3    24  PRO24       0.1536
     97  C       -221.3030  400.6510 -109.6740 C.2    24  PRO24       0.2598
     98  O       -222.5020  400.7870 -109.9140 O.2    24  PRO24      -0.2715
     99  CB      -219.9100  400.0030 -111.6000 C.3    24  PRO24       0.0310
    100  CG      -218.8410  399.2690 -110.8700 C.3    24  PRO24       0.0237
    101  CD      -218.0340  400.3270 -110.1510 C.3    24  PRO24       0.0939
    102  N       -220.8350  400.1120 -108.5550 N.am   25  HIS25      -0.1974
    103  CA      -221.6880  399.3420 -107.6640 C.3    25  HIS25       0.1656
    104  C       -222.6080  400.2510 -106.8830 C.2    25  HIS25       0.2291
    105  O       -222.3410  401.4430 -106.7210 O.2    25  HIS25      -0.2864
    106  CB      -220.8410  398.5230 -106.6970 C.3    25  HIS25       0.0771
    107  CG      -219.8380  397.6380 -107.3710 C.ar   25  HIS25       0.0820
    108  ND1     -220.1070  396.3340 -107.7260 N.ar   25  HIS25      -0.2267
    109  CD2     -218.5680  397.8860 -107.7740 C.ar   25  HIS25       0.1154
    110  CE1     -219.0360  395.8080 -108.3000 C.ar   25  HIS25       0.1986
    111  NE2     -218.0970  396.7330 -108.3540 N.ar   25  HIS25      -0.2212
    112  N       -224.0220  401.4290 -103.4780 N.3    27  HIS27      -0.1241
    113  CA      -223.5420  401.4320 -102.0960 C.3    27  HIS27       0.1621
    114  C       -224.5990  401.8250 -101.0530 C.2    27  HIS27       0.2264
    115  O       -225.3600  402.7730 -101.2460 O.2    27  HIS27      -0.2867
    116  CB      -222.3180  402.3360 -101.9670 C.3    27  HIS27       0.0745
    117  CG      -221.1310  401.8480 -102.7310 C.ar   27  HIS27       0.0817
    118  ND1     -220.3310  400.8180 -102.2860 N.ar   27  HIS27      -0.2268
    119  CD2     -220.6040  402.2530 -103.9090 C.ar   27  HIS27       0.1154
    120  CE1     -219.3610  400.6090 -103.1580 C.ar   27  HIS27       0.1986
    121  NE2     -219.5040  401.4660 -104.1520 N.ar   27  HIS27      -0.2212
    122  N       -219.5300  384.3570 -106.4820 N.3   184  ARG184     -0.1231
    123  CA      -219.3550  385.3840 -107.4990 C.3   184  ARG184      0.1694
    124  C       -220.0700  386.7170 -107.2540 C.2   184  ARG184      0.2592
    125  O       -219.7860  387.7010 -107.9420 O.2   184  ARG184     -0.2718
    126  CB      -219.7660  384.8260 -108.8620 C.3   184  ARG184      0.0321
    127  CG      -219.0630  383.5300 -109.2440 C.3   184  ARG184      0.0489
    128  CD      -219.3530  383.1310 -110.6820 C.3   184  ARG184      0.2205
    129  NE      -218.9310  384.1750 -111.6100 N.pl3 184  ARG184     -0.0865
    130  CZ      -219.7500  385.0730 -112.1480 C.cat 184  ARG184      0.5346
    131  NH1     -221.0480  385.0500 -111.8600 N.pl3 184  ARG184      0.1354
    132  NH2     -219.2710  385.9920 -112.9740 N.pl3 184  ARG184      0.1354
    133  N       -220.9880  386.7640 -106.2910 N.am  185  ASN185     -0.1960
    134  CA      -221.8490  387.9450 -106.1630 C.3   185  ASN185      0.1819
    135  C       -221.1300  389.1320 -105.5370 C.2   185  ASN185      0.2621
    136  O       -220.4850  389.0040 -104.5050 O.2   185  ASN185     -0.2715
    137  CB      -223.1520  387.6410 -105.4070 C.3   185  ASN185      0.1195
    138  CG      -224.2430  388.6850 -105.6670 C.2   185  ASN185      0.2630
    139  OD1     -223.9540  389.8420 -105.9770 O.2   185  ASN185     -0.2716
    140  ND2     -225.5030  388.2770 -105.5280 N.am  185  ASN185     -0.0877
    141  N       -221.2420  390.2910 -106.1710 N.am  186  ALA186     -0.1977
    142  CA      -220.5760  391.4820 -105.6650 C.3   186  ALA186      0.1597
    143  C       -221.2410  391.9820 -104.3980 C.2   186  ALA186      0.2287
    144  O       -220.6210  392.6640 -103.5850 O.2   186  ALA186     -0.2864
    145  CB      -220.5480  392.5730 -106.7330 C.3   186  ALA186      0.0319
    146  N       -219.0120  390.7370 -101.0050 N.3   189  PRO189     -0.2102
    147  CA      -217.9920  391.5670 -100.3610 C.3   189  PRO189      0.1504
    148  C       -218.4020  393.0360 -100.2560 C.2   189  PRO189      0.2575
    149  O       -217.8750  393.7440  -99.3950 O.2   189  PRO189     -0.2718
    150  CB      -216.7460  391.3530 -101.2270 C.3   189  PRO189      0.0282
    151  CG      -217.2590  390.9080 -102.5180 C.3   189  PRO189      0.0208
    152  CD      -218.5130  390.1340 -102.2480 C.3   189  PRO189      0.0893
    153  N       -219.3470  393.4840 -101.0750 N.am  190  LEU190     -0.1980
    154  CA      -219.8600  394.8370 -100.8960 C.3   190  LEU190      0.1596
    155  C       -220.5810  394.9930  -99.5600 C.2   190  LEU190      0.2287
    156  O       -220.6470  396.0880  -99.0110 O.2   190  LEU190     -0.2864
    157  CB      -220.8010  395.2470 -102.0190 C.3   190  LEU190      0.0297
    158  CG      -220.2070  395.7920 -103.3050 C.3   190  LEU190      0.0022
    159  CD1     -221.3660  396.2420 -104.1660 C.3   190  LEU190      0.0001
    160  CD2     -219.2430  396.9340 -103.0200 C.3   190  LEU190      0.0001
    161  N       -217.7760  395.7330  -97.2340 N.3   193  TYR193     -0.1241
    162  CA      -217.1540  397.0010  -97.5840 C.3   193  TYR193      0.1605
    163  C       -218.0360  398.1710  -97.1480 C.2   193  TYR193      0.2264
    164  O       -217.5370  399.1870  -96.6860 O.2   193  TYR193     -0.2867
    165  CB      -216.9000  397.0470  -99.0900 C.3   193  TYR193      0.0534
    166  CG      -216.1850  398.2780  -99.6190 C.ar  193  TYR193     -0.0201
    167  CD1     -214.7930  398.3680  -99.5770 C.ar  193  TYR193     -0.0009
    168  CD2     -216.8950  399.3290 -100.2020 C.ar  193  TYR193     -0.0009
    169  CE1     -214.1270  399.4800 -100.0800 C.ar  193  TYR193      0.0417
    170  CE2     -216.2390  400.4470 -100.7060 C.ar  193  TYR193      0.0417
    171  CZ      -214.8540  400.5160 -100.6400 C.ar  193  TYR193      0.1957
    172  OH      -214.1990  401.6220 -101.1370 O.3   193  TYR193     -0.2866
    173  N       -212.0310  390.4390  -97.9400 N.3   222  THR222     -0.1203
    174  CA      -211.8830  391.3130  -99.1040 C.3   222  THR222      0.1994
    175  C       -212.5430  392.6600  -98.8780 C.2   222  THR222      0.2618
    176  O       -211.8960  393.7100  -98.9610 O.2   222  THR222     -0.2717
    177  CB      -212.5020  390.6980 -100.3690 C.3   222  THR222      0.1784
    178  OG1     -211.7640  389.5280 -100.7460 O.3   222  THR222     -0.2211
    179  CG2     -212.4900  391.7060 -101.5080 C.3   222  THR222      0.0376
    180  N       -213.8340  392.6000  -98.5710 N.am  223  GLY223     -0.1956
    181  CA      -214.6650  393.7700  -98.3820 C.3   223  GLY223      0.1869
    182  C       -214.0950  394.6560  -97.3060 C.2   223  GLY223      0.2309
    183  O       -214.0660  395.8820  -97.4390 O.2   223  GLY223     -0.2863
    184  N       -210.4010  396.1350  -98.4130 N.3   226  ARG226     -0.1245
    185  CA      -210.4120  397.2010  -99.4030 C.3   226  ARG226      0.1563
    186  C       -210.6840  398.5400  -98.7310 C.2   226  ARG226      0.2260
    187  O       -209.9100  399.4930  -98.8840 O.2   226  ARG226     -0.2867
    188  CB      -211.4300  396.9310 -100.5050 C.3   226  ARG226      0.0307
    189  CG      -210.9950  395.8360 -101.4580 C.3   226  ARG226      0.0489
    190  CD      -211.8060  395.8520 -102.7320 C.3   226  ARG226      0.2205
    191  NE      -211.3710  394.8090 -103.6480 N.pl3 226  ARG226     -0.0865
    192  CZ      -211.9740  394.5380 -104.7960 C.cat 226  ARG226      0.5346
    193  NH1     -213.0290  395.2430 -105.1700 N.pl3 226  ARG226      0.1354
    194  NH2     -211.5240  393.5650 -105.5750 N.pl3 226  ARG226      0.1354
    195  N       -208.0610  401.6640  -98.1620 N.3   230  GLU230     -0.1245
    196  CA      -208.4190  403.0310  -98.5150 C.3   230  GLU230      0.1567
    197  C       -208.3380  403.9790  -97.3270 C.2   230  GLU230      0.2260
    198  O       -207.6290  404.9800  -97.3750 O.2   230  GLU230     -0.2867
    199  CB      -209.8220  403.0980  -99.1130 C.3   230  GLU230      0.0388
    200  CG      -209.9850  402.3680 -100.4280 C.3   230  GLU230      0.1160
    201  CD      -211.3820  402.5240 -101.0020 C.2   230  GLU230      0.3649
    202  OE1     -212.1590  403.3550 -100.4690 O.co2 230  GLU230     -0.2457
    203  OE2     -211.6990  401.8230 -101.9920 O.co2 230  GLU230     -0.2457
    204  N       -214.4370  383.9250 -106.7930 N.3   273  THR273     -0.1203
    205  CA      -214.3700  385.1420 -107.5690 C.3   273  THR273      0.1994
    206  C       -214.2160  386.3060 -106.6120 C.2   273  THR273      0.2617
    207  O       -213.3450  387.1600 -106.7810 O.2   273  THR273     -0.2717
    208  CB      -215.6540  385.3250 -108.3970 C.3   273  THR273      0.1784
    209  OG1     -215.9100  384.1350 -109.1520 O.3   273  THR273     -0.2211
    210  CG2     -215.5360  386.5170 -109.3460 C.3   273  THR273      0.0376
    211  N       -215.0480  386.3090 -105.5790 N.am  274  VAL274     -0.1979
    212  CA      -215.1040  387.4300 -104.6600 C.3   274  VAL274      0.1595
    213  C       -213.8460  387.5980 -103.8220 C.2   274  VAL274      0.2287
    214  O       -213.6550  388.6490 -103.2190 O.2   274  VAL274     -0.2864
    215  CB      -216.3110  387.3300 -103.7290 C.3   274  VAL274      0.0276
    216  CG1     -217.5910  387.5810 -104.5080 C.3   274  VAL274      0.0022
    217  CG2     -216.3320  385.9740 -103.0530 C.3   274  VAL274      0.0022
@<TRIPOS>BOND
     1    28    27    1
     2    25    26    1
     3    25    24    1
     4    27    26    2
     5    27    29    1
     6    24    23    1
     7    42    40    1
     8    23    20    1
     9    11    12    1
    10    11    10    1
    11    22    21    2
    12    20    21    1
    13    20    19    1
    14    12     6    1
    15    40    41    1
    16    40    37    1
    17   132   130    1
    18     5     2    1
    19    21    30   am
    20    66    65    1
    21    10     7    1
    22     9     8    2
    23    16    15    2
    24    19    15   am
    25     2     3    1
    26     2     1    1
    27     6     7    1
    28     6     3   am
    29   130   131    1
    30   130   129    2
    31    67    65    1
    32    65    64    2
    33    15    14    1
    34    37    36    1
    35    37    38    1
    36     8     7    1
    37     8    13   am
    38    87    86   ar
    39     3     4    2
    40   129   128    1
    41    99   100    1
    42    99    96    1
    43    88    86   ar
    44    36    32   am
    45    30    31    1
    46    86    85    1
    47    64    63    1
    48    32    33    2
    49    32    31    1
    50    83    82    2
    51    39    38    2
    52   100   101    1
    53    13    14    1
    54    85    84    1
    55    31    34    1
    56    38    43   am
    57    14    17    1
    58   128   127    1
    59    96    95    1
    60    96    97    1
    61    63    62    1
    62    84    81    1
    63   101    95    1
    64    81    82    1
    65    81    80    1
    66    95    91   am
    67    82    89   am
    68    98    97    2
    69    97   102   am
    70    43    44    1
    71    17    18    1
    72   210   208    1
    73    34    35    1
    74   127   126    1
    75    62    61    1
    76    91    92    2
    77    91    90    1
    78   209   208    1
    79   126   123    1
    80    89    90    1
    81    90    93    1
    82   102   103    1
    83    44    45    1
    84    44    47    1
    85   208   205    1
    86    46    45    2
    87   111   110   ar
    88   111   109   ar
    89   110   108   ar
    90    61    58    1
    91    74    73    1
    92    74    68    1
    93   125   124    2
    94    73    72    1
    95   109   107   ar
    96   108   107   ar
    97   103   104    1
    98   103   106    1
    99   205   204    1
   100   205   206    1
   101   123   124    1
   102   123   122    1
   103    58    57    1
   104    58    59    1
   105   107   106    1
   106   124   133   am
   107    72    69    1
   108    71    70    2
   109    93    94    1
   110    47    48    1
   111    68    59   am
   112    68    69    1
   113   104   105    2
   114   207   206    2
   115   145   142    1
   116   206   211   am
   117    59    60    2
   118    69    70    1
   119   133   134    1
   120    70    75   am
   121    78    77    2
   122   141   142    1
   123   141   135   am
   124   134   135    1
   125   134   137    1
   126   139   138    2
   127    48    49   ar
   128    48    50   ar
   129    77    76    1
   130   138   140   am
   131   138   137    1
   132   142   143    1
   133   211   212    1
   134   194   192    1
   135   135   136    2
   136    49    51   ar
   137   193   192    1
   138    75    76    1
   139    53    50   ar
   140    53    55   ar
   141    50    52   ar
   142    76    79    1
   143   192   191    2
   144   212   213    1
   145   212   215    1
   146   216   215    1
   147   143   144    2
   148   159   158    1
   149   121   119   ar
   150   121   120   ar
   151    51    52   ar
   152    55    56   ar
   153    52    54   ar
   154   119   117   ar
   155   213   214    2
   156   215   217    1
   157   191   190    1
   158   112   113    1
   159   158   160    1
   160   158   157    1
   161   120   118   ar
   162    56    54   ar
   163   190   189    1
   164   117   118   ar
   165   117   116    1
   166   151   152    1
   167   151   150    1
   168   152   146    1
   169   113   116    1
   170   113   114    1
   171   157   154    1
   172   203   201   ar
   173   179   177    1
   174   189   188    1
   175   115   114    2
   176   150   147    1
   177   172   171    1
   178   153   154    1
   179   153   148   am
   180   146   147    1
   181   201   202   ar
   182   201   200    1
   183   154   155    1
   184   178   177    1
   185   170   171   ar
   186   170   168   ar
   187   171   169   ar
   188   188   185    1
   189   200   199    1
   190   177   174    1
   191   147   148    1
   192   148   149    2
   193   168   166   ar
   194   169   167   ar
   195   166   167   ar
   196   166   165    1
   197   155   156    2
   198   185   186    1
   199   185   184    1
   200   199   196    1
   201   174   175    1
   202   174   173    1
   203   165   162    1
   204   176   175    2
   205   187   186    2
   206   175   180   am
   207   180   181    1
   208   196   195    1
   209   196   197    1
   210   181   182    1
   211   162   161    1
   212   162   163    1
   213   183   182    2
   214   198   197    2
   215   163   164    2
