@<TRIPOS>MOLECULE
tmp/4l3vA00.pdb
 158 150 0 0 0
SMALL
GASTEIGER

@<TRIPOS>ATOM
      1  N       -222.1280  385.6030  -89.5800 N.3    78  VAL78      -0.1231
      2  CA      -221.7490  386.7500  -90.4050 C.3    78  VAL78       0.1692
      3  C       -222.4500  386.6670  -91.7770 C.2    78  VAL78       0.2591
      4  O       -222.6390  387.6790  -92.4820 O.2    78  VAL78      -0.2718
      5  CB      -220.2190  386.7790  -90.5940 C.3    78  VAL78       0.0266
      6  CG1     -219.7200  385.4660  -91.1820 C.3    78  VAL78       0.0020
      7  CG2     -219.7970  387.9530  -91.4440 C.3    78  VAL78       0.0020
      8  N       -222.9450  385.4760  -92.0970 N.am   79  LYS79      -0.1980
      9  CA      -223.5870  385.2390  -93.3770 C.3    79  LYS79       0.1596
     10  C       -224.9280  385.9420  -93.5180 C.2    79  LYS79       0.2287
     11  O       -225.3650  386.2550  -94.6370 O.2    79  LYS79      -0.2864
     12  CB      -223.7600  383.7560  -93.6030 C.3    79  LYS79       0.0298
     13  CG      -222.4700  383.0110  -93.8490 C.3    79  LYS79       0.0038
     14  CD      -221.7910  383.4930  -95.0910 C.3    79  LYS79       0.0206
     15  CE      -220.6090  382.6080  -95.4480 C.3    79  LYS79       0.1093
     16  NZ      -219.5920  382.8310  -94.4350 N.3    79  LYS79      -0.1314
     17  N       -221.8740  376.7920  -96.9800 N.3   107  SER107     -0.1217
     18  CA      -221.2720  376.1770  -95.8110 C.3   107  SER107      0.1889
     19  C       -222.3850  375.9560  -94.7920 C.2   107  SER107      0.2288
     20  O       -222.2530  375.1740  -93.8550 O.2   107  SER107     -0.2866
     21  CB      -220.2180  377.1180  -95.2380 C.3   107  SER107      0.2089
     22  OG      -219.3880  377.6310  -96.2660 O.3   107  SER107     -0.2183
     23  N       -224.1430  378.6400  -93.1540 N.3   109  ASN109     -0.1240
     24  CA      -224.5260  379.8620  -92.4720 C.3   109  ASN109      0.1653
     25  C       -225.2770  380.7880  -93.4340 C.2   109  ASN109      0.2266
     26  O       -226.3300  381.3590  -93.0910 O.2   109  ASN109     -0.2867
     27  CB      -223.3030  380.5410  -91.8660 C.3   109  ASN109      0.1155
     28  CG      -222.8450  379.8850  -90.5970 C.2   109  ASN109      0.2627
     29  OD1     -223.6480  379.5000  -89.7560 O.2   109  ASN109     -0.2716
     30  ND2     -221.5470  379.7590  -90.4470 N.am  109  ASN109     -0.0877
     31  N       -227.3830  372.8370  -88.1830 N.3   137  LYS137     -0.1245
     32  CA      -227.6940  373.6920  -89.3220 C.3   137  LYS137      0.1561
     33  C       -228.9090  373.1510  -90.0630 C.2   137  LYS137      0.2260
     34  O       -229.7930  373.9010  -90.4730 O.2   137  LYS137     -0.2867
     35  CB      -226.4920  373.7830  -90.2570 C.3   137  LYS137      0.0271
     36  CG      -225.3130  374.4980  -89.6460 C.3   137  LYS137      0.0035
     37  CD      -224.1200  374.4510  -90.5660 C.3   137  LYS137      0.0206
     38  CE      -222.9340  375.1570  -89.9490 C.3   137  LYS137      0.1093
     39  NZ      -221.7300  375.0580  -90.8210 N.3   137  LYS137     -0.1314
     40  N       -221.9780  390.3120 -101.8970 N.3   188  ASN188     -0.1240
     41  CA      -221.2790  389.7570 -100.7380 C.3   188  ASN188      0.1653
     42  C       -220.0950  390.5850 -100.2260 C.2   188  ASN188      0.2266
     43  O       -220.1840  391.1350  -99.1410 O.2   188  ASN188     -0.2867
     44  CB      -220.9360  388.2760 -100.9730 C.3   188  ASN188      0.1155
     45  CG      -219.8760  387.7360 -100.0270 C.2   188  ASN188      0.2627
     46  OD1     -219.6560  388.2460  -98.9310 O.2   188  ASN188     -0.2716
     47  ND2     -219.2270  386.6630 -100.4500 N.am  188  ASN188     -0.0877
     48  N       -219.6680  393.7670  -96.6980 N.3   192  HIS192     -0.1241
     49  CA      -218.6580  394.0620  -95.6980 C.3   192  HIS192      0.1621
     50  C       -217.9640  395.3970  -95.9660 C.2   192  HIS192      0.2264
     51  O       -217.6060  396.1130  -95.0330 O.2   192  HIS192     -0.2867
     52  CB      -217.6550  392.9150  -95.6130 C.3   192  HIS192      0.0745
     53  CG      -218.2850  391.6070  -95.2560 C.ar  192  HIS192      0.0817
     54  ND1     -218.8940  391.3840  -94.0420 N.ar  192  HIS192     -0.2268
     55  CD2     -218.4250  390.4600  -95.9620 C.ar  192  HIS192      0.1154
     56  CE1     -219.3690  390.1530  -94.0110 C.ar  192  HIS192      0.1986
     57  NE2     -219.0960  389.5690  -95.1630 N.ar  192  HIS192     -0.2212
     58  N       -210.6050  384.7250  -90.8630 N.3   214  SER214     -0.1202
     59  CA      -210.6080  383.4410  -91.5460 C.3   214  SER214      0.2020
     60  C       -211.2220  383.6110  -92.9280 C.2   214  SER214      0.2619
     61  O       -212.1040  384.4530  -93.1170 O.2   214  SER214     -0.2717
     62  CB      -211.4240  382.4360  -90.7460 C.3   214  SER214      0.2103
     63  OG      -212.6710  383.0000  -90.3750 O.3   214  SER214     -0.2182
     64  N       -210.7640  382.8250  -93.9000 N.am  215  VAL215     -0.1965
     65  CA      -211.2440  383.0150  -95.2670 C.3   215  VAL215      0.1727
     66  C       -212.1200  381.8810  -95.8030 C.2   215  VAL215      0.2617
     67  O       -211.7150  380.7200  -95.9150 O.2   215  VAL215     -0.2715
     68  CB      -210.1110  383.3240  -96.2540 C.3   215  VAL215      0.0290
     69  CG1     -210.6790  383.5130  -97.6510 C.3   215  VAL215      0.0023
     70  CG2     -209.3770  384.5780  -95.8200 C.3   215  VAL215      0.0023
     71  N       -213.3500  382.2740  -96.0900 N.am  216  GLY216     -0.1940
     72  CA      -214.3920  381.4820  -96.7110 C.3   216  GLY216      0.2014
     73  C       -214.4200  381.8930  -98.1590 C.2   216  GLY216      0.2640
     74  O       -213.4030  381.8450  -98.8480 O.2   216  GLY216     -0.2714
     75  N       -215.6180  382.1970  -98.6370 N.am  217  THR217     -0.1936
     76  CA      -215.7840  382.8440  -99.9230 C.3   217  THR217      0.2028
     77  C       -214.7570  383.9660 -100.1000 C.2   217  THR217      0.2643
     78  O       -214.2460  384.1850 -101.2030 O.2   217  THR217     -0.2714
     79  CB      -217.1630  383.4920 -100.0120 C.3   217  THR217      0.1808
     80  OG1     -217.1470  384.7250  -99.2790 O.3   217  THR217     -0.2208
     81  CG2     -218.2260  382.5600  -99.4460 C.3   217  THR217      0.0379
     82  N       -214.4460  384.6760  -99.0250 N.am  218  GLY218     -0.1939
     83  CA      -213.3850  385.6590  -99.0820 C.3   218  GLY218      0.2014
     84  C       -213.9960  387.0340  -99.0970 C.2   218  GLY218      0.2639
     85  O       -213.2860  388.0400  -99.1380 O.2   218  GLY218     -0.2714
     86  N       -215.3260  387.0620  -99.0600 N.am  219  GLY219     -0.1939
     87  CA      -216.0740  388.3030  -99.0340 C.3   219  GLY219      0.2014
     88  C       -215.7160  389.1700  -97.8400 C.2   219  GLY219      0.2640
     89  O       -215.5030  390.3720  -97.9930 O.2   219  GLY219     -0.2714
     90  N       -215.6620  388.5650  -96.6510 N.am  220  THR220     -0.1936
     91  CA      -215.4040  389.3140  -95.4160 C.3   220  THR220      0.2028
     92  C       -214.0460  390.0060  -95.4540 C.2   220  THR220      0.2642
     93  O       -213.9530  391.2430  -95.3510 O.2   220  THR220     -0.2714
     94  CB      -215.4640  388.4060  -94.1580 C.3   220  THR220      0.1808
     95  OG1     -216.7170  387.7180  -94.1140 O.3   220  THR220     -0.2208
     96  CG2     -215.3430  389.2290  -92.9110 C.3   220  THR220      0.0379
     97  N       -212.9950  389.2070  -95.6160 N.am  221  ILE221     -0.1977
     98  CA      -211.6490  389.7560  -95.6200 C.3   221  ILE221      0.1596
     99  C       -211.4350  390.7220  -96.7840 C.2   221  ILE221      0.2287
    100  O       -210.7550  391.7230  -96.6220 O.2   221  ILE221     -0.2864
    101  CB      -210.5650  388.6610  -95.6080 C.3   221  ILE221      0.0276
    102  CG1     -209.1930  389.2900  -95.3420 C.3   221  ILE221      0.0022
    103  CG2     -210.6100  387.8330  -96.8930 C.3   221  ILE221      0.0022
    104  CD1     -208.1810  388.3310  -94.7930 C.3   221  ILE221      0.0001
    105  N       -215.9370  373.9330  -89.7910 N.3   264  GLU264     -0.1231
    106  CA      -216.9620  374.2150  -90.7880 C.3   264  GLU264      0.1699
    107  C       -216.9460  375.6630  -91.2520 C.2   264  GLU264      0.2593
    108  O       -216.7290  376.5770  -90.4630 O.2   264  GLU264     -0.2718
    109  CB      -218.3490  373.8740  -90.2470 C.3   264  GLU264      0.0402
    110  CG      -218.5180  372.4210  -89.8580 C.3   264  GLU264      0.1161
    111  CD      -219.9160  372.1160  -89.3620 C.2   264  GLU264      0.3649
    112  OE1     -220.0410  371.3500  -88.3820 O.co2 264  GLU264     -0.2457
    113  OE2     -220.8860  372.6410  -89.9530 O.co2 264  GLU264     -0.2457
    114  N       -217.1720  375.8610  -92.5430 N.am  265  GLY265     -0.1942
    115  CA      -217.4060  377.1870  -93.0740 C.3   265  GLY265      0.2014
    116  C       -216.2300  377.8690  -93.7370 C.2   265  GLY265      0.2638
    117  O       -216.4260  378.7200  -94.6040 O.2   265  GLY265     -0.2714
    118  N       -215.0090  377.4810  -93.3870 N.am  266  ILE266     -0.1977
    119  CA      -213.8550  378.1570  -93.9690 C.3   266  ILE266      0.1596
    120  C       -212.9920  377.2400  -94.8450 C.2   266  ILE266      0.2287
    121  O       -212.9620  376.0210  -94.6530 O.2   266  ILE266     -0.2864
    122  CB      -212.9880  378.8160  -92.8880 C.3   266  ILE266      0.0276
    123  CG1     -212.3770  377.7590  -91.9740 C.3   266  ILE266      0.0022
    124  CG2     -213.7960  379.7770  -92.0990 C.3   266  ILE266      0.0022
    125  CD1     -211.2300  378.2800  -91.1340 C.3   266  ILE266      0.0001
    126  N       -214.2940  378.3840  -86.5380 N.3   309  SER309     -0.1217
    127  CA      -213.5520  379.2960  -87.4030 C.3   309  SER309      0.1889
    128  C       -212.9980  380.4600  -86.5940 C.2   309  SER309      0.2288
    129  O       -211.8940  380.9490  -86.8560 O.2   309  SER309     -0.2866
    130  CB      -214.4600  379.8210  -88.5050 C.3   309  SER309      0.2089
    131  OG      -215.6780  380.2870  -87.9540 O.3   309  SER309     -0.2183
    132  N       -216.9490  384.8740  -86.6630 N.3   335  PRO335     -0.2102
    133  CA      -218.0290  384.6350  -87.6280 C.3   335  PRO335      0.1504
    134  C       -219.3840  384.1820  -87.0870 C.2   335  PRO335      0.2575
    135  O       -220.3950  384.7780  -87.4590 O.2   335  PRO335     -0.2718
    136  CB      -217.4410  383.5470  -88.5420 C.3   335  PRO335      0.0282
    137  CG      -215.9540  383.6650  -88.3630 C.3   335  PRO335      0.0208
    138  CD      -215.7900  384.0070  -86.9160 C.3   335  PRO335      0.0893
    139  N       -219.4260  383.1720  -86.2280 N.am  336  ASP336     -0.1974
    140  CA      -220.7250  382.6090  -85.8820 C.3   336  ASP336      0.1708
    141  C       -220.7770  382.0170  -84.4890 C.2   336  ASP336      0.2293
    142  O       -219.7570  381.9270  -83.8120 O.2   336  ASP336     -0.2864
    143  CB      -221.1360  381.5560  -86.9110 C.3   336  ASP336      0.1436
    144  CG      -220.2650  380.3200  -86.8610 C.2   336  ASP336      0.3671
    145  OD1     -219.1230  380.4150  -86.3530 O.co2 336  ASP336     -0.2456
    146  OD2     -220.7220  379.2610  -87.3520 O.co2 336  ASP336     -0.2456
    147  N       -222.4480  374.1350  -83.5630 N.3   341  TYR341     -0.1241
    148  CA      -221.4760  373.1220  -83.1780 C.3   341  TYR341      0.1605
    149  C       -221.7640  372.3090  -81.9240 C.2   341  TYR341      0.2264
    150  O       -220.8890  371.5750  -81.4540 O.2   341  TYR341     -0.2867
    151  CB      -220.0850  373.7270  -83.1850 C.3   341  TYR341      0.0534
    152  CG      -219.9030  374.5660  -84.4200 C.ar  341  TYR341     -0.0201
    153  CD1     -219.8700  375.9490  -84.3480 C.ar  341  TYR341     -0.0009
    154  CD2     -219.8320  373.9740  -85.6740 C.ar  341  TYR341     -0.0009
    155  CE1     -219.7290  376.7220  -85.4910 C.ar  341  TYR341      0.0417
    156  CE2     -219.6920  374.7370  -86.8190 C.ar  341  TYR341      0.0417
    157  CZ      -219.6400  376.1110  -86.7200 C.ar  341  TYR341      0.1957
    158  OH      -219.5020  376.8810  -87.8530 O.3   341  TYR341     -0.2866
@<TRIPOS>BOND
     1    40    41    1
     2    78    77    2
     3    44    41    1
     4    44    45    1
     5    41    42    1
     6    47    45   am
     7    42    43    2
     8    77    76    1
     9    77    82   am
    10    45    46    2
    11    79    76    1
    12    79    81    1
    13    79    80    1
    14    76    75    1
    15    85    84    2
    16    84    83    1
    17    84    86   am
    18    83    82    1
    19    86    87    1
    20    87    88    1
    21    74    73    2
    22    75    73   am
    23    73    72    1
    24    89    88    2
    25    88    90   am
    26    69    68    1
    27    17    18    1
    28   103   101    1
    29    99   100    2
    30    99    98    1
    31    72    71    1
    32    48    49    1
    33    90    91    1
    34    22    21    1
    35    68    70    1
    36    68    65    1
    37    71    66   am
    38    50    49    1
    39    50    51    2
    40    55    53   ar
    41    55    57   ar
    42    67    66    2
    43    18    21    1
    44    18    19    1
    45    66    65    1
    46    49    52    1
    47    98    97    1
    48    98   101    1
    49    97    92   am
    50    52    53    1
    51   101   102    1
    52    92    91    1
    53    92    93    2
    54    15    14    1
    55    15    16    1
    56    91    94    1
    57   102   104    1
    58    65    64    1
    59    53    54   ar
    60    57    56   ar
    61    14    13    1
    62   120   121    2
    63   120   119    1
    64    19    20    2
    65    11    10    2
    66   117   116    2
    67    94    95    1
    68    94    96    1
    69    54    56   ar
    70   119   118    1
    71   119   122    1
    72    64    60   am
    73    13    12    1
    74   116   118   am
    75   116   115    1
    76    12     9    1
    77    10     9    1
    78    25    26    2
    79    25    24    1
    80     9     8    1
    81    23    24    1
    82    61    60    2
    83   115   114    1
    84    60    59    1
    85   122   124    1
    86   122   123    1
    87   114   107   am
    88     4     3    2
    89    24    27    1
    90     8     3   am
    91   123   125    1
    92    27    28    1
    93     3     2    1
    94    59    58    1
    95    59    62    1
    96     7     5    1
    97   107   106    1
    98   107   108    2
    99     6     5    1
   100    39    38    1
   101   106   109    1
   102   106   105    1
   103    62    63    1
   104    28    30   am
   105    28    29    2
   106     5     2    1
   107    37    38    1
   108    37    36    1
   109    34    33    2
   110     2     1    1
   111    35    36    1
   112    35    32    1
   113   109   110    1
   114    33    32    1
   115   113   111   ar
   116   110   111    1
   117   111   112   ar
   118    32    31    1
   119   136   137    1
   120   136   133    1
   121   130   131    1
   122   130   127    1
   123   137   138    1
   124   158   157    1
   125   133   134    1
   126   133   132    1
   127   135   134    2
   128   127   128    1
   129   127   126    1
   130   146   144   ar
   131   134   139   am
   132   138   132    1
   133   143   144    1
   134   143   140    1
   135   144   145   ar
   136   129   128    2
   137   156   157   ar
   138   156   154   ar
   139   157   155   ar
   140   139   140    1
   141   140   141    1
   142   154   152   ar
   143   155   153   ar
   144   141   142    2
   145   152   153   ar
   146   152   151    1
   147   147   148    1
   148   151   148    1
   149   148   149    1
   150   149   150    2
