@<TRIPOS>MOLECULE
tmp/4l44A00.pdb
 194 185 0 0 0
SMALL
GASTEIGER

@<TRIPOS>ATOM
      1  N        -52.3130   13.3880    3.2650 N.3    17  LEU17      -0.1231
      2  CA       -51.1420   14.2200    2.9870 C.3    17  LEU17       0.1693
      3  C        -49.8550   13.4920    3.3750 C.2    17  LEU17       0.2593
      4  O        -48.7760   13.8070    2.8710 O.2    17  LEU17      -0.2718
      5  CB       -51.2330   15.5640    3.7130 C.3    17  LEU17       0.0284
      6  CG       -52.4100   16.4920    3.4020 C.3    17  LEU17       0.0019
      7  CD1      -52.4230   17.6460    4.3840 C.3    17  LEU17       0.0001
      8  CD2      -52.3650   17.0030    1.9710 C.3    17  LEU17       0.0001
      9  N        -49.9840   12.5230    4.2770 N.am   18  GLY18      -0.1942
     10  CA       -48.8730   11.6860    4.7110 C.3    18  GLY18       0.2014
     11  C        -49.3500   10.6650    5.7230 C.2    18  GLY18       0.2639
     12  O        -50.3890   10.8560    6.3640 O.2    18  GLY18      -0.2714
     13  N        -48.6040    9.5720    5.8620 N.am   19  LYS19      -0.1963
     14  CA       -48.9400    8.5480    6.8490 C.3    19  LYS19       0.1728
     15  C        -47.7330    7.8380    7.4520 C.2    19  LYS19       0.2616
     16  O        -46.8230    7.4190    6.7410 O.2    19  LYS19      -0.2715
     17  CB       -49.9340    7.5290    6.2780 C.3    19  LYS19       0.0311
     18  CG       -49.5530    6.9080    4.9450 C.3    19  LYS19       0.0038
     19  CD       -50.6560    5.9870    4.4490 C.3    19  LYS19       0.0206
     20  CE       -50.2640    5.3080    3.1520 C.3    19  LYS19       0.1093
     21  NZ       -51.2890    4.3170    2.7270 N.3    19  LYS19      -0.1314
     22  N        -47.7450    7.7420    8.7800 N.am   20  GLY20      -0.1955
     23  CA       -46.8530    6.8680    9.5370 C.3    20  GLY20       0.1869
     24  C        -47.6050    5.5570    9.7520 C.2    20  GLY20       0.2309
     25  O        -48.6190    5.3100    9.0980 O.2    20  GLY20      -0.2863
     26  N        -47.0890    6.3030   13.6220 N.3    22  TYR22      -0.1227
     27  CA       -47.9360    6.4830   14.7840 C.3    22  TYR22       0.1736
     28  C        -49.2870    7.0770   14.4030 C.2    22  TYR22       0.2596
     29  O        -50.1530    7.2440   15.2570 O.2    22  TYR22      -0.2718
     30  CB       -47.2320    7.3490   15.8260 C.3    22  TYR22       0.0548
     31  CG       -45.9700    6.7280   16.3720 C.ar   22  TYR22      -0.0200
     32  CD1      -46.0130    5.8770   17.4750 C.ar   22  TYR22      -0.0009
     33  CD2      -44.7310    6.9960   15.7890 C.ar   22  TYR22      -0.0009
     34  CE1      -44.8550    5.3030   17.9850 C.ar   22  TYR22       0.0417
     35  CE2      -43.5650    6.4260   16.2900 C.ar   22  TYR22       0.0417
     36  CZ       -43.6330    5.5780   17.3860 C.ar   22  TYR22       0.1957
     37  OH       -42.4810    5.0090   17.8840 O.3    22  TYR22      -0.2866
     38  N        -49.4620    7.3900   13.1210 N.am   23  GLY23      -0.1942
     39  CA       -50.7340    7.8940   12.6220 C.3    23  GLY23       0.2014
     40  C        -50.6770    8.4320   11.2090 C.2    23  GLY23       0.2639
     41  O        -49.7900    8.0750   10.4340 O.2    23  GLY23      -0.2714
     42  N        -51.6320    9.2940   10.8730 N.am   24  LYS24      -0.1963
     43  CA       -51.7400    9.8350    9.5250 C.3    24  LYS24       0.1728
     44  C        -52.0870   11.3170    9.5380 C.2    24  LYS24       0.2616
     45  O        -52.6480   11.8270   10.5080 O.2    24  LYS24      -0.2715
     46  CB       -52.7820    9.0490    8.7230 C.3    24  LYS24       0.0311
     47  CG       -52.5500    7.5450    8.7590 C.3    24  LYS24       0.0038
     48  CD       -53.2360    6.8630    7.5850 C.3    24  LYS24       0.0206
     49  CE       -54.5050    6.1580    8.0500 C.3    24  LYS24       0.1093
     50  NZ       -55.5480    6.2760    6.9340 N.3    24  LYS24      -0.1314
     51  N        -51.7300   12.0030    8.4580 N.am   25  VAL25      -0.1977
     52  CA       -52.0690   13.4080    8.2760 C.3    25  VAL25       0.1596
     53  C        -53.0530   13.5160    7.1270 C.2    25  VAL25       0.2287
     54  O        -52.7830   13.0350    6.0300 O.2    25  VAL25      -0.2864
     55  CB       -50.8240   14.2680    7.9680 C.3    25  VAL25       0.0276
     56  CG1      -51.2130   15.7340    7.8250 C.3    25  VAL25       0.0022
     57  CG2      -49.7650   14.1000    9.0520 C.3    25  VAL25       0.0022
     58  N        -54.9320   20.8690    7.9060 N.3    41  ALA41      -0.1245
     59  CA       -54.2950   19.5710    8.0230 C.3    41  ALA41       0.1562
     60  C        -54.6720   18.9790    9.3800 C.2    41  ALA41       0.2260
     61  O        -54.6350   19.6700   10.4020 O.2    41  ALA41      -0.2867
     62  CB       -52.8110   19.6960    7.8990 C.3    41  ALA41       0.0290
     63  N        -53.7130   15.9850   11.9480 N.3    43  LYS43      -0.1231
     64  CA       -52.7930   14.9410   12.3730 C.3    43  LYS43       0.1693
     65  C        -53.5240   14.0000   13.3280 C.2    43  LYS43       0.2592
     66  O        -54.1470   14.4470   14.2940 O.2    43  LYS43      -0.2718
     67  CB       -51.5640   15.5640   13.0430 C.3    43  LYS43       0.0285
     68  CG       -50.2850   14.7410   12.9390 C.3    43  LYS43       0.0035
     69  CD       -49.0690   15.6130   13.2570 C.3    43  LYS43       0.0206
     70  CE       -47.7960   14.7840   13.3850 C.3    43  LYS43       0.1093
     71  NZ       -46.6290   15.5770   13.8830 N.3    43  LYS43      -0.1314
     72  N        -53.4680   12.7020   13.0460 N.am   44  VAL44      -0.1966
     73  CA       -54.1420   11.7220   13.8940 C.3    44  VAL44       0.1727
     74  C        -53.1600   10.6850   14.4360 C.2    44  VAL44       0.2616
     75  O        -52.7430    9.7770   13.7170 O.2    44  VAL44      -0.2715
     76  CB       -55.3240   11.0290   13.1680 C.3    44  VAL44       0.0290
     77  CG1      -56.0800   10.1160   14.1200 C.3    44  VAL44       0.0023
     78  CG2      -56.2690   12.0540   12.5980 C.3    44  VAL44       0.0023
     79  N        -52.8050   10.8330   15.7110 N.am   45  LEU45      -0.1977
     80  CA       -51.9330    9.8830   16.3850 C.3    45  LEU45       0.1596
     81  C        -52.7100    8.6820   16.9230 C.2    45  LEU45       0.2287
     82  O        -53.7430    8.8470   17.5950 O.2    45  LEU45      -0.2864
     83  CB       -51.1580   10.5650   17.5120 C.3    45  LEU45       0.0297
     84  CG       -50.0130   11.5350   17.1930 C.3    45  LEU45       0.0022
     85  CD1      -49.1720   11.0520   16.0130 C.3    45  LEU45       0.0001
     86  CD2      -50.5260   12.9480   16.9510 C.3    45  LEU45       0.0001
     87  N        -45.3950   26.2400   11.7950 N.3    76  VAL76      -0.1245
     88  CA       -46.7680   25.7800   11.5580 C.3    76  VAL76       0.1561
     89  C        -47.7090   26.1170   12.7300 C.2    76  VAL76       0.2260
     90  O        -47.3710   25.8910   13.8950 O.2    76  VAL76      -0.2867
     91  CB       -46.8230   24.2640   11.1790 C.3    76  VAL76       0.0252
     92  CG1      -46.3920   23.3660   12.3380 C.3    76  VAL76       0.0019
     93  CG2      -48.2100   23.8790   10.6740 C.3    76  VAL76       0.0019
     94  N        -54.1150   21.5920   12.3600 N.3    92  LEU92      -0.1231
     95  CA       -53.1360   22.6230   12.0130 C.3    92  LEU92       0.1693
     96  C        -53.4920   23.2910   10.6870 C.2    92  LEU92       0.2592
     97  O        -54.3300   22.7860    9.9390 O.2    92  LEU92      -0.2718
     98  CB       -51.7230   22.0310   11.9460 C.3    92  LEU92       0.0284
     99  CG       -51.2910   21.1040   13.0870 C.3    92  LEU92       0.0019
    100  CD1      -51.3600   19.6420   12.6360 C.3    92  LEU92       0.0001
    101  CD2      -49.8840   21.4490   13.5650 C.3    92  LEU92       0.0001
    102  N        -52.8600   24.4270   10.4040 N.am   93  GLU93      -0.1966
    103  CA       -53.0840   25.1310    9.1450 C.3    93  GLU93       0.1733
    104  C        -52.6300   24.2780    7.9610 C.2    93  GLU93       0.2616
    105  O        -51.5640   23.6540    8.0110 O.2    93  GLU93      -0.2715
    106  CB       -52.3840   26.4990    9.1360 C.3    93  GLU93       0.0429
    107  CG       -50.8540   26.4540    9.2370 C.3    93  GLU93       0.1163
    108  CD       -50.1950   27.8250    9.1060 C.2    93  GLU93       0.3649
    109  OE1      -49.4880   28.2380   10.0540 O.co2  93  GLU93      -0.2457
    110  OE2      -50.3770   28.4870    8.0610 O.co2  93  GLU93      -0.2457
    111  N        -53.4570   24.2350    6.9170 N.am   94  TYR94      -0.1960
    112  CA       -53.0880   23.5570    5.6800 C.3    94  TYR94       0.1771
    113  C        -52.0700   24.3970    4.9330 C.2    94  TYR94       0.2619
    114  O        -52.3720   25.5020    4.4780 O.2    94  TYR94      -0.2715
    115  CB       -54.3040   23.2840    4.7910 C.3    94  TYR94       0.0574
    116  CG       -53.9420   22.7140    3.4350 C.ar   94  TYR94      -0.0198
    117  CD1      -53.1340   21.5780    3.3230 C.ar   94  TYR94      -0.0009
    118  CD2      -54.4020   23.3080    2.2610 C.ar   94  TYR94      -0.0009
    119  CE1      -52.7950   21.0520    2.0770 C.ar   94  TYR94       0.0417
    120  CE2      -54.0670   22.7870    1.0070 C.ar   94  TYR94       0.0417
    121  CZ       -53.2660   21.6610    0.9300 C.ar   94  TYR94       0.1957
    122  OH       -52.9370   21.1380   -0.2920 O.3    94  TYR94      -0.2866
    123  N        -50.8580   23.8630    4.8260 N.am   95  LEU95      -0.1977
    124  CA       -49.7710   24.5550    4.1560 C.3    95  LEU95       0.1596
    125  C        -49.7790   24.1810    2.6860 C.2    95  LEU95       0.2287
    126  O        -49.1420   23.2100    2.2730 O.2    95  LEU95      -0.2864
    127  CB       -48.4340   24.2350    4.8270 C.3    95  LEU95       0.0297
    128  CG       -48.3580   24.6410    6.3060 C.3    95  LEU95       0.0022
    129  CD1      -47.1950   23.9690    7.0010 C.3    95  LEU95       0.0001
    130  CD2      -48.2850   26.1500    6.4810 C.3    95  LEU95       0.0001
    131  N        -37.2580   17.8610    4.1730 N.3   142  GLU142     -0.1245
    132  CA       -38.6890   17.5410    4.2040 C.3   142  GLU142      0.1567
    133  C        -39.4840   18.2930    5.2760 C.2   142  GLU142      0.2260
    134  O        -40.7000   18.4450    5.1530 O.2   142  GLU142     -0.2867
    135  CB       -38.8910   16.0330    4.3640 C.3   142  GLU142      0.0388
    136  CG       -37.7230   15.3270    5.0290 C.3   142  GLU142      0.1160
    137  CD       -37.9610   13.8510    5.2460 C.2   142  GLU142      0.3649
    138  OE1      -39.1090   13.4640    5.5690 O.co2 142  GLU142     -0.2457
    139  OE2      -36.9890   13.0750    5.1060 O.co2 142  GLU142     -0.2457
    140  N        -41.8820   23.1840    5.0860 N.3   145  MET145     -0.1245
    141  CA       -43.0760   23.4030    4.2840 C.3   145  MET145      0.1570
    142  C        -43.1810   24.8730    3.8930 C.2   145  MET145      0.2261
    143  O        -42.3660   25.7030    4.3040 O.2   145  MET145     -0.2867
    144  CB       -44.3220   22.9830    5.0650 C.3   145  MET145      0.0387
    145  CG       -44.4560   21.4830    5.3120 C.3   145  MET145      0.0595
    146  SD       -44.8710   20.5730    3.8150 S.3   145  MET145     -0.1393
    147  CE       -46.5510   21.1260    3.5120 C.3   145  MET145      0.0692
    148  N        -42.2570   22.3820   10.4310 N.3   155  THR155     -0.1203
    149  CA       -43.2450   21.3770   10.7940 C.3   155  THR155      0.1994
    150  C        -42.5340   20.2150   11.4500 C.2   155  THR155      0.2617
    151  O        -41.3140   20.2240   11.5660 O.2   155  THR155     -0.2717
    152  CB       -44.0020   20.8390    9.5580 C.3   155  THR155      0.1784
    153  OG1      -43.0650   20.3470    8.5910 O.3   155  THR155     -0.2211
    154  CG2      -44.8610   21.9220    8.9250 C.3   155  THR155      0.0376
    155  N        -43.3130   19.2160   11.8580 N.am  156  ASP156     -0.1973
    156  CA       -42.8180   17.9960   12.5080 C.3   156  ASP156      0.1709
    157  C        -42.0160   18.1930   13.8040 C.2   156  ASP156      0.2293
    158  O        -40.8250   17.8650   13.8900 O.2   156  ASP156     -0.2864
    159  CB       -42.1020   17.0670   11.5140 C.3   156  ASP156      0.1436
    160  CG       -42.9980   15.9240   11.0290 C.2   156  ASP156      0.3671
    161  OD1      -44.1990   15.8870   11.3940 O.co2 156  ASP156     -0.2456
    162  OD2      -42.4990   15.0520   10.2850 O.co2 156  ASP156     -0.2456
    163  N        -43.4460   13.0830   16.6790 N.3   159  LEU159     -0.1231
    164  CA       -42.6870   11.8690   16.9180 C.3   159  LEU159      0.1693
    165  C        -41.8210   11.3360   15.7720 C.2   159  LEU159      0.2592
    166  O        -40.5940   11.4670   15.8150 O.2   159  LEU159     -0.2718
    167  CB       -43.5890   10.7490   17.4710 C.3   159  LEU159      0.0284
    168  CG       -45.1180   10.7450   17.3170 C.3   159  LEU159      0.0019
    169  CD1      -45.6900    9.6550   18.1880 C.3   159  LEU159      0.0001
    170  CD2      -45.7820   12.0770   17.6850 C.3   159  LEU159      0.0001
    171  N        -42.4460   10.7460   14.7560 N.am  160  CYS160     -0.1956
    172  CA       -41.7100   10.1820   13.6320 C.3   160  CYS160      0.1843
    173  C        -42.6830    9.8580   12.5050 C.2   160  CYS160      0.2625
    174  O        -43.6290    9.0840   12.6900 O.2   160  CYS160     -0.2714
    175  CB       -40.8810    8.9500   14.0000 C.3   160  CYS160      0.0997
    176  SG       -39.4010    8.7420   12.9930 S.3   160  CYS160     -0.0797
    177  N        -42.4480   10.4620   11.3420 N.am  161  LYS161     -0.1977
    178  CA       -43.3100   10.2710   10.1740 C.3   161  LYS161      0.1596
    179  C        -43.0870    8.9060    9.5260 C.2   161  LYS161      0.2287
    180  O        -43.8780    8.4790    8.6800 O.2   161  LYS161     -0.2864
    181  CB       -43.0850   11.3960    9.1530 C.3   161  LYS161      0.0298
    182  CG       -41.8540   11.2310    8.2580 C.3   161  LYS161      0.0038
    183  CD       -41.2080   12.5680    7.9120 C.3   161  LYS161      0.0206
    184  CE       -40.0170   12.8960    8.8320 C.3   161  LYS161      0.1093
    185  NZ       -40.3710   13.1390   10.2710 N.3   161  LYS161     -0.1314
    186  N        -48.3540   18.1580   -4.1300 N.3   296  GLN296     -0.1245
    187  CA       -47.3760   17.5090   -3.2590 C.3   296  GLN296      0.1566
    188  C        -47.4360   15.9870   -3.3960 C.2   296  GLN296      0.2260
    189  O        -47.7260   15.4560   -4.4700 O.2   296  GLN296     -0.2867
    190  CB       -47.5820   17.9280   -1.7910 C.3   296  GLN296      0.0367
    191  CG       -49.0440   18.0210   -1.3370 C.3   296  GLN296      0.0905
    192  CD       -49.2810   19.1730   -0.3750 C.2   296  GLN296      0.2608
    193  OE1      -48.7870   19.1750    0.7540 O.2   296  GLN296     -0.2717
    194  NE2      -50.0430   20.1610   -0.8210 N.am  296  GLN296     -0.0878
@<TRIPOS>BOND
     1   189   188    2
     2   186   187    1
     3   188   187    1
     4   187   190    1
     5   190   191    1
     6   191   192    1
     7   194   192   am
     8   192   193    2
     9   122   121    1
    10   121   120   ar
    11   121   119   ar
    12   120   118   ar
    13     8     6    1
    14   119   117   ar
    15   118   116   ar
    16   126   125    2
    17   125   124    1
    18    21    20    1
    19     4     3    2
    20     2     1    1
    21     2     3    1
    22     2     5    1
    23    20    19    1
    24   117   116   ar
    25     3     9   am
    26     6     5    1
    27     6     7    1
    28   116   115    1
    29   147   146    1
    30   146   145    1
    31   142   141    1
    32   142   143    2
    33   124   123    1
    34   124   127    1
    35   131   132    1
    36   132   135    1
    37   132   133    1
    38     9    10    1
    39   141   144    1
    40   141   140    1
    41   135   136    1
    42    19    18    1
    43   114   113    2
    44    10    11    1
    45   115   112    1
    46   123   113   am
    47   127   128    1
    48   113   112    1
    49    18    17    1
    50   136   137    1
    51   144   145    1
    52   139   137   ar
    53   134   133    2
    54   137   138   ar
    55   112   111    1
    56    11    13   am
    57    11    12    2
    58    13    14    1
    59    54    53    2
    60    17    14    1
    61   128   130    1
    62   128   129    1
    63    16    15    2
    64    14    15    1
    65   111   104   am
    66    50    49    1
    67    53    52    1
    68    15    22   am
    69    48    49    1
    70    48    47    1
    71    56    55    1
    72    62    59    1
    73    58    59    1
    74   183   182    1
    75   183   184    1
    76   104   105    2
    77   104   103    1
    78    55    52    1
    79    55    57    1
    80    59    60    1
    81   110   108   ar
    82   182   181    1
    83    52    51    1
    84    51    44   am
    85   153   152    1
    86   180   179    2
    87    46    47    1
    88    46    43    1
    89    22    23    1
    90   184   185    1
    91   154   152    1
    92    25    24    2
    93   108   107    1
    94   108   109   ar
    95   106   103    1
    96   106   107    1
    97   103   102    1
    98   181   178    1
    99    60    61    2
   100    43    44    1
   101    43    42    1
   102   179   178    1
   103    23    24    1
   104    44    45    2
   105   152   149    1
   106    97    96    2
   107   178   177    1
   108   162   160   ar
   109   102    96   am
   110   148   149    1
   111    41    40    2
   112    93    91    1
   113    96    95    1
   114   149   150    1
   115    42    40   am
   116   160   161   ar
   117   160   159    1
   118    91    88    1
   119    91    92    1
   120    40    39    1
   121   177   173   am
   122   150   151    2
   123   150   155   am
   124   159   156    1
   125    88    87    1
   126    88    89    1
   127   155   156    1
   128    98    95    1
   129    98    99    1
   130    63    64    1
   131    95    94    1
   132    64    67    1
   133    64    65    1
   134   173   174    2
   135   173   172    1
   136   156   157    1
   137    78    76    1
   138    39    38    1
   139   100    99    1
   140    89    90    2
   141    68    67    1
   142    68    69    1
   143   176   175    1
   144    72    65   am
   145    72    73    1
   146    99   101    1
   147    38    28   am
   148    76    73    1
   149    76    77    1
   150    69    70    1
   151    65    66    2
   152    70    71    1
   153    26    27    1
   154   172   175    1
   155   172   171    1
   156    75    74    2
   157   157   158    2
   158    73    74    1
   159    28    27    1
   160    28    29    2
   161    74    79   am
   162   171   165   am
   163    27    30    1
   164    79    80    1
   165   165   166    2
   166   165   164    1
   167    33    35   ar
   168    33    31   ar
   169    30    31    1
   170    85    84    1
   171    35    36   ar
   172    31    32   ar
   173    80    81    1
   174    80    83    1
   175   163   164    1
   176   164   167    1
   177    81    82    2
   178    86    84    1
   179    84    83    1
   180   168   167    1
   181   168   170    1
   182   168   169    1
   183    36    37    1
   184    36    34   ar
   185    32    34   ar
