@<TRIPOS>MOLECULE
tmp/4l48A00.pdb
 125 122 0 0 0
SMALL
GASTEIGER

@<TRIPOS>ATOM
      1  N         11.5030   -1.3120   16.1760 N.3    18  ILE18      -0.1231
      2  CA        12.1090   -0.5110   15.1170 C.3    18  ILE18       0.1692
      3  C         13.1640    0.4580   15.6460 C.2    18  ILE18       0.2591
      4  O         14.3200    0.4200   15.2220 O.2    18  ILE18      -0.2718
      5  CB        11.0450    0.2790   14.3340 C.3    18  ILE18       0.0266
      6  CG1       10.0210   -0.6750   13.7160 C.3    18  ILE18       0.0019
      7  CG2       11.7000    1.1340   13.2600 C.3    18  ILE18       0.0020
      8  CD1        8.9300    0.0210   12.9380 C.3    18  ILE18       0.0001
      9  N         12.7630    1.3260   16.5680 N.am   19  ALA19      -0.1980
     10  CA        13.6700    2.3310   17.1120 C.3    19  ALA19       0.1597
     11  C         13.3390    2.6670   18.5630 C.2    19  ALA19       0.2287
     12  O         12.2520    3.1600   18.8650 O.2    19  ALA19      -0.2864
     13  CB        13.6430    3.5890   16.2550 C.3    19  ALA19       0.0319
     14  N         14.9380    4.6740   21.9510 N.3    21  GLY21      -0.1210
     15  CA        15.9550    5.5950   22.4220 C.3    21  GLY21       0.1956
     16  C         16.5990    6.3030   21.2480 C.2    21  GLY21       0.2611
     17  O         16.3840    5.9210   20.0970 O.2    21  GLY21      -0.2717
     18  N         17.3920    7.3330   21.5280 N.am   22  ASN22      -0.1974
     19  CA        18.0280    8.1050   20.4660 C.3    22  ASN22       0.1688
     20  C         18.9720    7.2540   19.6180 C.2    22  ASN22       0.2292
     21  O         19.1810    7.5370   18.4420 O.2    22  ASN22      -0.2864
     22  CB        18.7660    9.3180   21.0380 C.3    22  ASN22       0.1181
     23  CG        18.8230   10.4810   20.0620 C.2    22  ASN22       0.2629
     24  OD1       18.8830   10.2900   18.8460 O.2    22  ASN22      -0.2716
     25  ND2       18.7960   11.6970   20.5930 N.am   22  ASN22      -0.0877
     26  N         18.3200    4.4750   18.5820 N.3    24  SER24      -0.1217
     27  CA        17.4390    3.6690   17.7390 C.3    24  SER24       0.1889
     28  C         17.6820    2.1730   17.9080 C.2    24  SER24       0.2288
     29  O         17.9180    1.4600   16.9330 O.2    24  SER24      -0.2866
     30  CB        17.5720    4.0660   16.2650 C.3    24  SER24       0.2089
     31  OG        17.2700    5.4380   16.0750 O.3    24  SER24      -0.2183
     32  N         20.3300    6.1240   24.7180 N.3    67  ASP67      -0.1239
     33  CA        19.5720    7.3430   24.4800 C.3    67  ASP67       0.1674
     34  C         20.4000    8.5850   24.8010 C.2    67  ASP67       0.2266
     35  O         21.4650    8.4910   25.4120 O.2    67  ASP67      -0.2867
     36  CB        18.2920    7.3050   25.3230 C.3    67  ASP67       0.1410
     37  CG        17.3050    8.3940   24.9550 C.2    67  ASP67       0.3668
     38  OD1       17.4860    9.0430   23.9060 O.co2  67  ASP67      -0.2456
     39  OD2       16.3380    8.5950   25.7200 O.co2  67  ASP67      -0.2456
     40  N         19.3860   15.2430   26.7600 N.3    70  HIS70      -0.1241
     41  CA        19.7160   16.6300   26.4470 C.3    70  HIS70       0.1621
     42  C         19.7840   17.4970   27.7000 C.2    70  HIS70       0.2264
     43  O         20.5810   18.4310   27.7740 O.2    70  HIS70      -0.2867
     44  CB        18.7010   17.2170   25.4600 C.3    70  HIS70       0.0745
     45  CG        18.8160   16.6680   24.0710 C.ar   70  HIS70       0.0817
     46  ND1       19.6810   17.1900   23.1340 N.ar   70  HIS70      -0.2268
     47  CD2       18.1690   15.6480   23.4590 C.ar   70  HIS70       0.1154
     48  CE1       19.5650   16.5140   22.0050 C.ar   70  HIS70       0.1986
     49  NE2       18.6540   15.5720   22.1750 N.ar   70  HIS70      -0.2212
     50  N         18.2570   -0.0260    7.5730 N.3   115  LYS115     -0.1231
     51  CA        17.1270    0.7930    7.9920 C.3   115  LYS115      0.1693
     52  C         15.9550    0.7200    7.0200 C.2   115  LYS115      0.2592
     53  O         16.1370    0.4530    5.8330 O.2   115  LYS115     -0.2718
     54  CB        17.5580    2.2490    8.1680 C.3   115  LYS115      0.0285
     55  CG        16.6670    3.0250    9.1160 C.3   115  LYS115      0.0035
     56  CD        17.0560    4.4840    9.1910 C.3   115  LYS115      0.0206
     57  CE        16.2120    5.1940   10.2270 C.3   115  LYS115      0.1093
     58  NZ        14.7590    4.9680    9.9930 N.3   115  LYS115     -0.1314
     59  N         14.7530    0.9570    7.5370 N.am  116  GLU116     -0.1966
     60  CA        13.5620    1.0540    6.7030 C.3   116  GLU116      0.1733
     61  C         13.7030    2.2040    5.7150 C.2   116  GLU116      0.2616
     62  O         14.2090    3.2720    6.0620 O.2   116  GLU116     -0.2715
     63  CB        12.3120    1.2610    7.5630 C.3   116  GLU116      0.0429
     64  CG        11.7860    0.0030    8.2430 C.3   116  GLU116      0.1163
     65  CD        12.5430   -0.3550    9.5070 C.2   116  GLU116      0.3649
     66  OE1       13.4950    0.3690    9.8680 O.co2 116  GLU116     -0.2457
     67  OE2       12.1790   -1.3650   10.1450 O.co2 116  GLU116     -0.2457
     68  N         13.2570    1.9790    4.4840 N.am  117  GLY117     -0.1955
     69  CA        13.3210    2.9980    3.4530 C.3   117  GLY117      0.1869
     70  C         14.6370    3.0010    2.7000 C.2   117  GLY117      0.2309
     71  O         14.8550    3.8340    1.8220 O.2   117  GLY117     -0.2863
     72  N         17.4130    1.9780    0.0380 N.3   119  SER119     -0.1217
     73  CA        17.5020    1.4550   -1.3170 C.3   119  SER119      0.1889
     74  C         18.9350    1.6040   -1.8060 C.2   119  SER119      0.2288
     75  O         19.8560    1.7640   -1.0050 O.2   119  SER119     -0.2866
     76  CB        16.5540    2.2090   -2.2490 C.3   119  SER119      0.2089
     77  OG        16.9500    3.5630   -2.3870 O.3   119  SER119     -0.2183
     78  N         19.6880    4.0650   -3.7750 N.3   121  TRP121     -0.1227
     79  CA        19.8290    5.5150   -3.8540 C.3   121  TRP121      0.1737
     80  C         20.1860    6.1080   -2.4960 C.2   121  TRP121      0.2595
     81  O         20.8330    7.1520   -2.4120 O.2   121  TRP121     -0.2718
     82  CB        18.5410    6.1500   -4.3790 C.3   121  TRP121      0.0564
     83  CG        18.2460    5.8020   -5.8010 C.ar  121  TRP121      0.0003
     84  CD1       17.2660    4.9700   -6.2580 C.ar  121  TRP121      0.0946
     85  CD2       18.9470    6.2700   -6.9590 C.ar  121  TRP121      0.0152
     86  NE1       17.3090    4.8960   -7.6290 N.ar  121  TRP121     -0.2442
     87  CE2       18.3340    5.6840   -8.0830 C.ar  121  TRP121      0.0810
     88  CE3       20.0330    7.1300   -7.1530 C.ar  121  TRP121      0.0012
     89  CZ2       18.7690    5.9310   -9.3830 C.ar  121  TRP121      0.0191
     90  CZ3       20.4640    7.3730   -8.4440 C.ar  121  TRP121      0.0001
     91  CH2       19.8330    6.7750   -9.5420 C.ar  121  TRP121      0.0015
     92  N         19.7520    5.4340   -1.4370 N.am  122  TRP122     -0.1976
     93  CA        20.0310    5.8600   -0.0730 C.3   122  TRP122      0.1640
     94  C         19.8370    4.6810    0.8680 C.2   122  TRP122      0.2290
     95  O         18.8420    3.9630    0.7750 O.2   122  TRP122     -0.2864
     96  CB        19.1080    7.0110    0.3320 C.3   122  TRP122      0.0576
     97  CG        19.3260    7.4990    1.7340 C.ar  122  TRP122      0.0006
     98  CD1       20.1350    8.5260    2.1280 C.ar  122  TRP122      0.0946
     99  CD2       18.7280    6.9800    2.9290 C.ar  122  TRP122      0.0152
    100  NE1       20.0760    8.6780    3.4920 N.ar  122  TRP122     -0.2442
    101  CE2       19.2200    7.7400    4.0070 C.ar  122  TRP122      0.0810
    102  CE3       17.8240    5.9450    3.1890 C.ar  122  TRP122      0.0012
    103  CZ2       18.8370    7.5000    5.3250 C.ar  122  TRP122      0.0191
    104  CZ3       17.4470    5.7070    4.4990 C.ar  122  TRP122      0.0001
    105  CH2       17.9540    6.4810    5.5490 C.ar  122  TRP122      0.0015
    106  N         23.1080   11.0430   14.0700 N.3   152  ASP152     -0.1225
    107  CA        22.9620   11.2150   15.5090 C.3   152  ASP152      0.1805
    108  C         21.8150   10.3660   16.0500 C.2   152  ASP152      0.2597
    109  O         21.3180   10.6090   17.1490 O.2   152  ASP152     -0.2718
    110  CB        22.7730   12.6900   15.8750 C.3   152  ASP152      0.1424
    111  CG        21.4380   13.2410   15.4170 C.2   152  ASP152      0.3668
    112  OD1       20.9160   12.7710   14.3850 O.co2 152  ASP152     -0.2456
    113  OD2       20.9120   14.1500   16.0930 O.co2 152  ASP152     -0.2456
    114  N         21.4000    9.3690   15.2730 N.am  153  TYR153     -0.1976
    115  CA        20.3690    8.4420   15.7310 C.3   153  TYR153      0.1639
    116  C         20.7820    6.9700   15.6420 C.2   153  TYR153      0.2290
    117  O         19.9330    6.0810   15.5910 O.2   153  TYR153     -0.2864
    118  CB        19.0220    8.6940   15.0350 C.3   153  TYR153      0.0560
    119  CG        19.0190    8.5200   13.5310 C.ar  153  TYR153     -0.0198
    120  CD1       18.8140    7.2720   12.9570 C.ar  153  TYR153     -0.0009
    121  CD2       19.1900    9.6080   12.6850 C.ar  153  TYR153     -0.0009
    122  CE1       18.8000    7.1080   11.5860 C.ar  153  TYR153      0.0417
    123  CE2       19.1750    9.4540   11.3090 C.ar  153  TYR153      0.0417
    124  CZ        18.9810    8.2010   10.7660 C.ar  153  TYR153      0.1957
    125  OH        18.9650    8.0370    9.3990 O.3   153  TYR153     -0.2866
@<TRIPOS>BOND
     1    91    89   ar
     2    91    90   ar
     3    89    87   ar
     4    90    88   ar
     5    87    86   ar
     6    87    85   ar
     7    86    84   ar
     8    88    85   ar
     9    85    83   ar
    10    84    83   ar
    11    83    82    1
    12    82    79    1
    13    79    78    1
    14    79    80    1
    15    80    81    2
    16    80    92   am
    17    77    76    1
    18    76    73    1
    19    74    73    1
    20    74    75    2
    21    92    93    1
    22    73    72    1
    23    93    96    1
    24    93    94    1
    25    96    97    1
    26    95    94    2
    27    97    98   ar
    28    97    99   ar
    29    71    70    2
    30    98   100   ar
    31    70    69    1
    32    99   102   ar
    33    99   101   ar
    34   102   104   ar
    35    69    68    1
    36   100   101   ar
    37   101   103   ar
    38    68    61   am
    39   104   105   ar
    40   103   105   ar
    41    61    62    2
    42    61    60    1
    43    53    52    2
    44    60    59    1
    45    60    63    1
    46    52    59   am
    47    52    51    1
    48    63    64    1
    49    50    51    1
    50    51    54    1
    51    54    55    1
    52    64    65    1
    53    55    56    1
    54    56    57    1
    55   125   124    1
    56    65    66   ar
    57    65    67   ar
    58    58    57    1
    59   124   123   ar
    60   124   122   ar
    61   123   121   ar
    62   122   120   ar
    63   121   119   ar
    64     8     6    1
    65   120   119   ar
    66     7     5    1
    67   119   118    1
    68     6     5    1
    69   106   107    1
    70     5     2    1
    71   112   111   ar
    72   118   115    1
    73     2     3    1
    74     2     1    1
    75     4     3    2
    76   114   115    1
    77   114   108   am
    78   111   110    1
    79   111   113   ar
    80   107   110    1
    81   107   108    1
    82   117   116    2
    83   116   115    1
    84     3     9   am
    85   108   109    2
    86    31    30    1
    87    13    10    1
    88    30    27    1
    89     9    10    1
    90    29    28    2
    91    10    11    1
    92    27    28    1
    93    27    26    1
    94    21    20    2
    95    11    12    2
    96    24    23    2
    97    20    19    1
    98    23    25   am
    99    23    22    1
   100    17    16    2
   101    19    22    1
   102    19    18    1
   103    16    18   am
   104    16    15    1
   105    14    15    1
   106    48    49   ar
   107    48    46   ar
   108    49    47   ar
   109    46    45   ar
   110    47    45   ar
   111    38    37   ar
   112    45    44    1
   113    33    32    1
   114    33    34    1
   115    33    36    1
   116    34    35    2
   117    37    36    1
   118    37    39   ar
   119    44    41    1
   120    41    40    1
   121    41    42    1
   122    42    43    2
