@<TRIPOS>MOLECULE
tmp/4l4hA00.pdb
 123 116 0 0 0
SMALL
GASTEIGER

@<TRIPOS>ATOM
      1  N         -1.9910   20.8900   38.1520 N.3     9  GLU9       -0.1245
      2  CA        -3.3590   20.4140   38.3890 C.3     9  GLU9        0.1567
      3  C         -3.2660   18.9370   38.7610 C.2     9  GLU9        0.2260
      4  O         -2.5340   18.1820   38.0960 O.2     9  GLU9       -0.2867
      5  CB        -4.1940   20.5800   37.1140 C.3     9  GLU9        0.0388
      6  CG        -5.7300   20.3560   37.2720 C.3     9  GLU9        0.1160
      7  CD        -6.4900   20.8570   36.0100 C.2     9  GLU9        0.3649
      8  OE1       -7.4710   21.6120   36.1430 O.co2   9  GLU9       -0.2457
      9  OE2       -6.0510   20.5430   34.8750 O.co2   9  GLU9       -0.2457
     10  N        -13.5820   16.1130   35.4380 N.3    53  SER53      -0.1217
     11  CA       -13.5980   17.5630   35.4850 C.3    53  SER53       0.1889
     12  C        -14.0450   18.1500   36.8610 C.2    53  SER53       0.2288
     13  O        -13.7060   19.3080   37.1980 O.2    53  SER53      -0.2866
     14  CB       -14.4580   18.0890   34.3280 C.3    53  SER53       0.2089
     15  OG       -15.8220   17.9520   34.6890 O.3    53  SER53      -0.2183
     16  N        -10.7510   17.8340   39.7420 N.3    56  THR56      -0.1218
     17  CA        -9.4550   18.3430   39.3380 C.3    56  THR56       0.1862
     18  C         -9.1270   19.5810   40.1980 C.2    56  THR56       0.2287
     19  O         -9.9780   20.4050   40.3790 O.2    56  THR56      -0.2866
     20  CB        -9.5950   18.5340   37.7940 C.3    56  THR56       0.1770
     21  OG1       -8.3710   18.3250   37.1430 O.3    56  THR56      -0.2211
     22  CG2      -10.2100   19.7470   37.4200 C.3    56  THR56       0.0375
     23  N        -10.7880   23.3260   40.0470 N.3    80  SER80      -0.1202
     24  CA       -10.9660   23.8840   38.6420 C.3    80  SER80       0.2020
     25  C        -12.4040   24.0590   38.1960 C.2    80  SER80       0.2618
     26  O        -12.7650   25.0900   37.6200 O.2    80  SER80      -0.2717
     27  CB       -10.2320   23.0580   37.5860 C.3    80  SER80       0.2103
     28  OG        -8.8750   22.7880   38.0920 O.3    80  SER80      -0.2182
     29  N        -13.2490   23.0630   38.4720 N.am   81  TYR81      -0.1975
     30  CA       -14.6320   23.1190   37.9910 C.3    81  TYR81       0.1639
     31  C        -15.3800   24.3840   38.4590 C.2    81  TYR81       0.2290
     32  O        -16.1630   24.9320   37.7130 O.2    81  TYR81      -0.2864
     33  CB       -15.4010   21.8780   38.4430 C.3    81  TYR81       0.0560
     34  CG       -16.6860   21.6260   37.6560 C.ar   81  TYR81      -0.0198
     35  CD1      -16.6320   20.8750   36.5060 C.ar   81  TYR81      -0.0009
     36  CD2      -17.9410   22.1150   38.0770 C.ar   81  TYR81      -0.0009
     37  CE1      -17.7570   20.6100   35.7480 C.ar   81  TYR81       0.0417
     38  CE2      -19.1120   21.8430   37.2860 C.ar   81  TYR81       0.0417
     39  CZ       -18.9620   21.0650   36.1440 C.ar   81  TYR81       0.1957
     40  OH       -19.9330   20.7250   35.2790 O.3    81  TYR81      -0.2866
     41  N         -8.8710   17.8020   28.5250 N.3   182  GLY182     -0.1210
     42  CA        -9.7850   18.4560   29.4920 C.3   182  GLY182      0.1956
     43  C        -10.2330   19.8180   28.9830 C.2   182  GLY182      0.2612
     44  O        -11.1340   20.4060   29.5620 O.2   182  GLY182     -0.2717
     45  N         -9.5830   20.3570   27.9400 N.am  183  ASP183     -0.1959
     46  CA       -10.0060   21.6400   27.3570 C.3   183  ASP183      0.1840
     47  C        -11.4670   21.6800   26.8590 C.2   183  ASP183      0.2621
     48  O        -11.9200   20.7510   26.2090 O.2   183  ASP183     -0.2715
     49  CB        -9.1670   22.0010   26.1430 C.3   183  ASP183      0.1450
     50  CG        -7.9110   22.7680   26.5180 C.2   183  ASP183      0.3671
     51  OD1       -7.7080   23.0050   27.7210 O.co2 183  ASP183     -0.2456
     52  OD2       -7.1360   23.1300   25.6180 O.co2 183  ASP183     -0.2456
     53  N        -12.1050   22.8200   27.0710 N.am  184  VAL184     -0.1977
     54  CA       -13.4210   23.1300   26.5020 C.3   184  VAL184      0.1596
     55  C        -13.1810   24.0020   25.2780 C.2   184  VAL184      0.2287
     56  O        -12.4950   25.0270   25.3330 O.2   184  VAL184     -0.2864
     57  CB       -14.4000   23.7410   27.5580 C.3   184  VAL184      0.0276
     58  CG1      -15.8010   24.1940   26.8790 C.3   184  VAL184      0.0022
     59  CG2      -14.6370   22.7450   28.6720 C.3   184  VAL184      0.0022
     60  N        -16.1000   19.3580   25.6200 N.3   227  ARG227     -0.1245
     61  CA       -14.8830   19.1400   26.3950 C.3   227  ARG227      0.1563
     62  C        -14.1610   17.8880   25.8440 C.2   227  ARG227      0.2260
     63  O        -14.8010   16.8410   25.6160 O.2   227  ARG227     -0.2867
     64  CB       -15.2280   18.9810   27.8840 C.3   227  ARG227      0.0307
     65  CG       -13.9360   18.6590   28.7050 C.3   227  ARG227      0.0489
     66  CD       -14.2510   18.2540   30.1490 C.3   227  ARG227      0.2205
     67  NE       -15.0680   19.2630   30.8440 N.pl3 227  ARG227     -0.0865
     68  CZ       -14.5560   20.3320   31.4640 C.cat 227  ARG227      0.5346
     69  NH1      -13.2450   20.5430   31.4590 N.pl3 227  ARG227      0.1354
     70  NH2      -15.3580   21.1700   32.0990 N.pl3 227  ARG227      0.1354
     71  N        -10.4410   27.6230   21.3370 N.3   336  ARG336     -0.1231
     72  CA       -10.5240   27.4840   22.7810 C.3   336  ARG336      0.1694
     73  C        -11.5930   28.3520   23.4540 C.2   336  ARG336      0.2593
     74  O        -11.6550   29.5510   23.2420 O.2   336  ARG336     -0.2718
     75  CB        -9.1790   27.7850   23.4420 C.3   336  ARG336      0.0321
     76  CG        -9.0610   27.1850   24.8510 C.3   336  ARG336      0.0489
     77  CD        -7.6220   27.5190   25.3580 C.3   336  ARG336      0.2205
     78  NE        -7.1890   26.5530   26.3660 N.pl3 336  ARG336     -0.0865
     79  CZ        -7.0290   26.8120   27.6680 C.cat 336  ARG336      0.5346
     80  NH1       -7.2670   28.0350   28.1460 N.pl3 336  ARG336      0.1354
     81  NH2       -6.6210   25.8360   28.4990 N.pl3 336  ARG336      0.1354
     82  N        -12.4020   27.7360   24.2900 N.am  337  SER337     -0.1938
     83  CA       -13.4380   28.4790   25.0390 C.3   337  SER337      0.2055
     84  C        -12.7960   29.4950   25.9850 C.2   337  SER337      0.2643
     85  O        -11.8110   29.2060   26.6260 O.2   337  SER337     -0.2714
     86  CB       -14.1880   27.5210   25.9270 C.3   337  SER337      0.2130
     87  OG       -15.2710   28.2380   26.4450 O.3   337  SER337     -0.2179
     88  N        -13.3980   30.6530   26.1330 N.am  338  GLN338     -0.1963
     89  CA       -13.0050   31.5590   27.2150 C.3   338  GLN338      0.1733
     90  C        -13.4630   30.9480   28.5360 C.2   338  GLN338      0.2616
     91  O        -14.4030   30.1350   28.5870 O.2   338  GLN338     -0.2715
     92  CB       -13.6380   32.9470   27.0340 C.3   338  GLN338      0.0408
     93  CG       -13.2580   33.5690   25.7110 C.3   338  GLN338      0.0908
     94  CD       -11.8000   33.9240   25.6920 C.2   338  GLN338      0.2608
     95  OE1      -11.2870   34.4680   26.6660 O.2   338  GLN338     -0.2717
     96  NE2      -11.1060   33.6150   24.5880 N.am  338  GLN338     -0.0878
     97  N        -12.7880   31.3130   29.6010 N.am  339  HIS339     -0.1973
     98  CA       -13.1340   30.7690   30.8980 C.3   339  HIS339      0.1656
     99  C        -14.5610   31.1610   31.3400 C.2   339  HIS339      0.2291
    100  O        -15.2490   30.3040   31.8620 O.2   339  HIS339     -0.2864
    101  CB       -12.0950   31.1420   31.9680 C.3   339  HIS339      0.0771
    102  CG       -10.7350   30.5880   31.6930 C.ar  339  HIS339      0.0820
    103  ND1      -10.3740   29.2940   32.0300 N.ar  339  HIS339     -0.2267
    104  CD2       -9.6460   31.1350   31.0840 C.ar  339  HIS339      0.1154
    105  CE1       -9.1200   29.0820   31.6630 C.ar  339  HIS339      0.1986
    106  NE2       -8.6550   30.1810   31.0860 N.ar  339  HIS339     -0.2212
    107  N        -17.2940   29.0490   29.3140 N.3   342  SER342     -0.1217
    108  CA       -17.2060   27.6740   29.7240 C.3   342  SER342      0.1889
    109  C        -17.8540   27.4420   31.1010 C.2   342  SER342      0.2288
    110  O        -18.6910   26.5380   31.2970 O.2   342  SER342     -0.2866
    111  CB       -15.7320   27.2400   29.7490 C.3   342  SER342      0.2089
    112  OG       -15.7450   25.9880   30.4000 O.3   342  SER342     -0.2183
    113  N        -21.5100   25.3150   32.0230 N.3   346  ARG346     -0.1245
    114  CA       -21.6200   24.3350   33.0840 C.3   346  ARG346      0.1563
    115  C        -22.6410   24.6870   34.1580 C.2   346  ARG346      0.2260
    116  O        -23.3230   23.8740   34.6460 O.2   346  ARG346     -0.2867
    117  CB       -20.2610   24.0850   33.7210 C.3   346  ARG346      0.0307
    118  CG       -19.2550   23.3910   32.8530 C.3   346  ARG346      0.0489
    119  CD       -18.1690   22.7530   33.7190 C.3   346  ARG346      0.2205
    120  NE       -17.4890   23.7320   34.5490 N.pl3 346  ARG346     -0.0865
    121  CZ       -16.7540   24.6780   34.0250 C.cat 346  ARG346      0.5346
    122  NH1      -16.6640   24.7180   32.7350 N.pl3 346  ARG346      0.1354
    123  NH2      -16.1440   25.5580   34.7670 N.pl3 346  ARG346      0.1354
@<TRIPOS>BOND
     1    71    72    1
     2    72    75    1
     3    72    73    1
     4    74    73    2
     5    75    76    1
     6    73    82   am
     7    82    83    1
     8    96    94   am
     9    76    77    1
    10    83    86    1
    11    83    84    1
    12    55    56    2
    13    55    54    1
    14    77    78    1
    15    63    62    2
    16    52    50   ar
    17    60    61    1
    18    94    93    1
    19    94    95    2
    20    93    92    1
    21    62    61    1
    22    86    87    1
    23    84    88   am
    24    84    85    2
    25    88    89    1
    26    49    50    1
    27    49    46    1
    28    48    47    2
    29    78    79    2
    30    61    64    1
    31    54    53    1
    32    54    57    1
    33    50    51   ar
    34    47    53   am
    35    47    46    1
    36    58    57    1
    37    92    89    1
    38    89    90    1
    39    46    45    1
    40    57    59    1
    41    79    80    1
    42    79    81    1
    43    64    65    1
    44    45    43   am
    45    41    42    1
    46    90    91    2
    47    90    97   am
    48    65    66    1
    49    43    42    1
    50    43    44    2
    51   107   108    1
    52    97    98    1
    53   108   111    1
    54   108   109    1
    55   111   112    1
    56    66    67    1
    57    67    68    2
    58    98    99    1
    59    98   101    1
    60   104   106   ar
    61   104   102   ar
    62   106   105   ar
    63   109   110    2
    64    99   100    2
    65    69    68    1
    66    68    70    1
    67   105   103   ar
    68   102   101    1
    69   102   103   ar
    70   113   114    1
    71   122   121    1
    72   118   119    1
    73   118   117    1
    74   114   117    1
    75   114   115    1
    76   119   120    1
    77   121   120    2
    78   121   123    1
    79   115   116    2
    80    14    15    1
    81    14    11    1
    82     9     7   ar
    83    40    39    1
    84    10    11    1
    85    11    12    1
    86    37    39   ar
    87    37    35   ar
    88     7     8   ar
    89     7     6    1
    90    39    38   ar
    91    35    34   ar
    92    12    13    2
    93     5     6    1
    94     5     2    1
    95    21    20    1
    96    38    36   ar
    97    22    20    1
    98    27    28    1
    99    27    24    1
   100    26    25    2
   101    34    36   ar
   102    34    33    1
   103    32    31    2
   104    20    17    1
   105    30    33    1
   106    30    31    1
   107    30    29    1
   108     4     3    2
   109     1     2    1
   110    25    29   am
   111    25    24    1
   112     2     3    1
   113    24    23    1
   114    17    16    1
   115    17    18    1
   116    18    19    2
