@<TRIPOS>MOLECULE
tmp/4l4hA01.pdb
 92 85 0 0 0
SMALL
GASTEIGER

@<TRIPOS>ATOM
      1  N        -20.0000   22.7980   43.4290 N.3    31  GLY31      -0.1210
      2  CA       -19.7020   24.1160   43.8860 C.3    31  GLY31       0.1956
      3  C        -20.8040   25.0780   43.5320 C.2    31  GLY31       0.2612
      4  O        -20.8790   26.0990   44.1790 O.2    31  GLY31      -0.2717
      5  N        -21.6900   24.6960   42.5850 N.am   32  PHE32      -0.1962
      6  CA       -22.7510   25.4680   42.1320 C.3    32  PHE32       0.1771
      7  C        -23.9620   25.0050   42.9320 C.2    32  PHE32       0.2620
      8  O        -24.4790   23.9120   42.6810 O.2    32  PHE32      -0.2715
      9  CB       -23.0990   25.2100   40.6040 C.3    32  PHE32       0.0574
     10  CG       -21.9210   25.2630   39.5950 C.ar   32  PHE32      -0.0200
     11  CD1      -20.8220   26.1110   39.7520 C.ar   32  PHE32      -0.0042
     12  CD2      -21.9940   24.4860   38.4030 C.ar   32  PHE32      -0.0042
     13  CE1      -19.8280   26.1640   38.7590 C.ar   32  PHE32      -0.0003
     14  CE2      -21.0290   24.5380   37.4490 C.ar   32  PHE32      -0.0003
     15  CZ       -19.9310   25.3690   37.6160 C.ar   32  PHE32      -0.0000
     16  N        -24.4810   25.8120   43.8430 N.am   33  GLY33      -0.1954
     17  CA       -25.6460   25.3450   44.5760 C.3    33  GLY33       0.1869
     18  C        -25.3320   24.1880   45.5490 C.2    33  GLY33       0.2309
     19  O        -26.2610   23.5930   46.1170 O.2    33  GLY33      -0.2863
     20  N        -15.1760   24.7920   39.7190 N.3    82  SER82      -0.1217
     21  CA       -15.8790   25.9590   40.3130 C.3    82  SER82       0.1889
     22  C        -15.0590   27.2210   40.5130 C.2    82  SER82       0.2288
     23  O        -15.6350   28.2700   40.6740 O.2    82  SER82      -0.2866
     24  CB       -16.4610   25.6120   41.6860 C.3    82  SER82       0.2089
     25  OG       -15.3770   25.3450   42.5890 O.3    82  SER82      -0.2183
     26  N        -13.4760   27.7560   43.4010 N.3    84  MET84      -0.1245
     27  CA       -13.3770   27.9490   44.8690 C.3    84  MET84       0.1570
     28  C        -12.2660   27.0710   45.4520 C.2    84  MET84       0.2261
     29  O        -11.6200   26.3240   44.6770 O.2    84  MET84      -0.2867
     30  CB       -14.7030   27.7170   45.5540 C.3    84  MET84       0.0387
     31  CG       -15.8010   28.7900   45.1790 C.3    84  MET84       0.0595
     32  SD       -17.3860   28.4470   45.9880 S.3    84  MET84      -0.1393
     33  CE       -18.0410   27.2850   44.7790 C.3    84  MET84       0.0692
     34  N        -17.5340   28.3150   32.0460 N.3   343  ARG343     -0.1245
     35  CA       -18.1750   28.2500   33.3380 C.3   343  ARG343      0.1563
     36  C        -19.7140   28.4720   33.2640 C.2   343  ARG343      0.2260
     37  O        -20.4760   27.7140   33.8890 O.2   343  ARG343     -0.2867
     38  CB       -17.4430   29.2270   34.2710 C.3   343  ARG343      0.0307
     39  CG       -17.9170   29.2660   35.7230 C.3   343  ARG343      0.0489
     40  CD       -16.6770   29.6550   36.5640 C.3   343  ARG343      0.2205
     41  NE       -16.9910   29.7980   37.9790 N.pl3 343  ARG343     -0.0865
     42  CZ       -17.3460   30.9390   38.5720 C.cat 343  ARG343      0.5346
     43  NH1      -17.4300   32.0700   37.8790 N.pl3 343  ARG343      0.1354
     44  NH2      -17.6080   30.9440   39.8720 N.pl3 343  ARG343      0.1354
     45  N        -22.6870   25.9410   34.5060 N.3   347  VAL347     -0.1245
     46  CA       -23.6320   26.4040   35.4550 C.3   347  VAL347      0.1561
     47  C        -25.0250   26.1480   34.8830 C.2   347  VAL347      0.2260
     48  O        -25.8540   25.6980   35.5680 O.2   347  VAL347     -0.2867
     49  CB       -23.3930   27.8650   35.8010 C.3   347  VAL347      0.0252
     50  CG1      -24.5480   28.4140   36.5810 C.3   347  VAL347      0.0019
     51  CG2      -22.1340   27.9980   36.5960 C.3   347  VAL347      0.0019
     52  N        -27.9170   23.7620   36.6050 N.3   351  THR351     -0.1218
     53  CA       -29.1900   24.3970   36.9350 C.3   351  THR351      0.1862
     54  C        -30.3350   23.6710   36.2810 C.2   351  THR351      0.2287
     55  O        -31.3380   23.3730   36.9620 O.2   351  THR351     -0.2866
     56  CB       -29.1740   25.8740   36.5180 C.3   351  THR351      0.1770
     57  OG1      -28.0430   26.4900   37.1380 O.3   351  THR351     -0.2211
     58  CG2      -30.4470   26.6240   37.0110 C.3   351  THR351      0.0375
     59  N        -28.8190   27.1260   45.0630 N.3   378  SER378     -0.1217
     60  CA       -28.6180   27.3780   43.6300 C.3   378  SER378      0.1889
     61  C        -29.0540   28.8140   43.2960 C.2   378  SER378      0.2288
     62  O        -28.4100   29.5470   42.5700 O.2   378  SER378     -0.2866
     63  CB       -29.5400   26.4300   42.8670 C.3   378  SER378      0.2089
     64  OG       -29.4960   26.6570   41.5010 O.3   378  SER378     -0.2183
     65  N        -26.7680   31.4910   44.6850 N.3   381  ASP381     -0.1225
     66  CA       -25.5410   31.5710   43.8310 C.3   381  ASP381      0.1805
     67  C        -25.8710   32.1800   42.4240 C.2   381  ASP381      0.2597
     68  O        -25.0970   32.9660   41.8960 O.2   381  ASP381     -0.2718
     69  CB       -24.9440   30.1690   43.5510 C.3   381  ASP381      0.1424
     70  CG       -24.2550   29.5790   44.7830 C.2   381  ASP381      0.3668
     71  OD1      -23.9900   30.3490   45.7170 O.co2 381  ASP381     -0.2456
     72  OD2      -23.9320   28.3710   44.8300 O.co2 381  ASP381     -0.2456
     73  N        -26.9660   31.7710   41.7930 N.am  382  LEU382     -0.1979
     74  CA       -27.3280   32.3900   40.4890 C.3   382  LEU382      0.1596
     75  C        -27.5720   33.8730   40.6230 C.2   382  LEU382      0.2287
     76  O        -27.1380   34.6370   39.7520 O.2   382  LEU382     -0.2864
     77  CB       -28.6310   31.7930   39.9000 C.3   382  LEU382      0.0297
     78  CG       -28.3350   30.3210   39.5160 C.3   382  LEU382      0.0022
     79  CD1      -29.6250   29.5640   39.2710 C.3   382  LEU382      0.0001
     80  CD2      -27.4870   30.2990   38.2210 C.3   382  LEU382      0.0001
     81  N        -24.3970   35.4430   40.7180 N.3   385  TYR385     -0.1241
     82  CA       -23.7530   35.3470   39.4020 C.3   385  TYR385      0.1605
     83  C        -24.2280   36.4470   38.4490 C.2   385  TYR385      0.2264
     84  O        -23.4750   36.8910   37.5800 O.2   385  TYR385     -0.2867
     85  CB       -24.1350   33.9930   38.7920 C.3   385  TYR385      0.0534
     86  CG       -23.2010   33.4950   37.7260 C.ar  385  TYR385     -0.0201
     87  CD1      -21.8330   33.3620   37.9810 C.ar  385  TYR385     -0.0009
     88  CD2      -23.6890   33.1360   36.4640 C.ar  385  TYR385     -0.0009
     89  CE1      -20.9910   32.8750   37.0260 C.ar  385  TYR385      0.0417
     90  CE2      -22.8340   32.6100   35.4840 C.ar  385  TYR385      0.0417
     91  CZ       -21.4910   32.5040   35.7900 C.ar  385  TYR385      0.1957
     92  OH       -20.6140   31.9860   34.8800 O.3   385  TYR385     -0.2866
@<TRIPOS>BOND
     1    34    35    1
     2    36    35    1
     3    36    37    2
     4    35    38    1
     5    38    39    1
     6    45    46    1
     7    92    91    1
     8    47    46    1
     9    47    48    2
    10    46    49    1
    11    90    91   ar
    12    90    88   ar
    13    39    40    1
    14    91    89   ar
    15    49    50    1
    16    49    51    1
    17    54    53    1
    18    54    55    2
    19    88    86   ar
    20    56    53    1
    21    56    58    1
    22    56    57    1
    23    40    41    1
    24    52    53    1
    25    89    87   ar
    26    14    15   ar
    27    14    12   ar
    28    84    83    2
    29    15    13   ar
    30    86    87   ar
    31    86    85    1
    32    43    42    1
    33    41    42    2
    34    80    78    1
    35    12    10   ar
    36    83    82    1
    37    42    44    1
    38    13    11   ar
    39    85    82    1
    40    79    78    1
    41    82    81    1
    42    78    77    1
    43    10    11   ar
    44    10     9    1
    45    20    21    1
    46    76    75    2
    47    77    74    1
    48    21    22    1
    49    21    24    1
    50    74    75    1
    51    74    73    1
    52    22    23    2
    53     9     6    1
    54    64    63    1
    55    24    25    1
    56    73    67   am
    57    68    67    2
    58     6     5    1
    59     6     7    1
    60    67    66    1
    61    62    61    2
    62     5     3   am
    63     8     7    2
    64    63    60    1
    65     7    16   am
    66    61    60    1
    67    26    27    1
    68     1     2    1
    69     3     2    1
    70     3     4    2
    71    69    66    1
    72    69    70    1
    73    60    59    1
    74    66    65    1
    75    16    17    1
    76    17    18    1
    77    29    28    2
    78    33    32    1
    79    70    72   ar
    80    70    71   ar
    81    27    28    1
    82    27    30    1
    83    31    30    1
    84    31    32    1
    85    18    19    2
