@<TRIPOS>MOLECULE
tmp/4l4jB00.pdb
 83 77 0 0 0
SMALL
GASTEIGER

@<TRIPOS>ATOM
      1  N          7.5320   42.6310   26.4010 N.3     1  SER1       -0.1217
      2  CA         8.3920   42.3090   25.2190 C.3     1  SER1        0.1889
      3  C          7.6540   42.4840   23.8850 C.2     1  SER1        0.2288
      4  O          6.4270   42.3440   23.8090 O.2     1  SER1       -0.2866
      5  CB         8.9740   40.8980   25.3360 C.3     1  SER1        0.2089
      6  OG         7.9470   39.9460   25.5310 O.3     1  SER1       -0.2183
      7  N          7.7920   41.5960   19.5550 N.3     3  PHE3       -0.1241
      8  CA         8.3450   40.8060   18.4580 C.3     3  PHE3        0.1605
      9  C          7.7890   41.2450   17.1020 C.2     3  PHE3        0.2264
     10  O          6.5910   41.4930   16.9550 O.2     3  PHE3       -0.2867
     11  CB         8.1620   39.3060   18.7070 C.3     3  PHE3        0.0534
     12  CG         8.8120   38.8300   19.9810 C.ar    3  PHE3       -0.0203
     13  CD1        8.0780   38.7420   21.1620 C.ar    3  PHE3       -0.0042
     14  CD2       10.1590   38.4720   20.0000 C.ar    3  PHE3       -0.0042
     15  CE1        8.6760   38.3040   22.3400 C.ar    3  PHE3       -0.0003
     16  CE2       10.7630   38.0320   21.1750 C.ar    3  PHE3       -0.0003
     17  CZ        10.0200   37.9480   22.3470 C.ar    3  PHE3       -0.0000
     18  N          7.6330   40.4100   12.9640 N.3     5  PHE5       -0.1228
     19  CA         7.7500   39.3390   11.9830 C.3     5  PHE5        0.1721
     20  C          7.6130   39.8620   10.5340 C.2     5  PHE5        0.2437
     21  O          6.8150   40.7710   10.2670 O.2     5  PHE5       -0.2733
     22  CB         6.7330   38.2230   12.2950 C.3     5  PHE5        0.0547
     23  CG         6.8280   37.7020   13.7100 C.ar    5  PHE5       -0.0202
     24  CD1        7.7090   36.6730   14.0310 C.ar    5  PHE5       -0.0042
     25  CD2        6.0350   38.2450   14.7220 C.ar    5  PHE5       -0.0042
     26  CE1        7.8010   36.1860   15.3490 C.ar    5  PHE5       -0.0003
     27  CE2        6.1180   37.7670   16.0420 C.ar    5  PHE5       -0.0003
     28  CZ         7.0020   36.7380   16.3510 C.ar    5  PHE5       -0.0000
     29  N          8.3960   39.2830    9.6040 N.am    6  PRO6       -0.2729
     30  CA         8.4220   39.6680    8.1890 C.3     6  PRO6        0.1401
     31  C          7.1800   39.1350    7.4620 C.2     6  PRO6        0.2269
     32  O          6.4340   38.3320    8.0430 O.2     6  PRO6       -0.2865
     33  CB         9.6700   38.9490    7.6700 C.3     6  PRO6        0.0296
     34  CG         9.7350   37.7090    8.4910 C.3     6  PRO6        0.0237
     35  CD         9.3320   38.1710    9.8730 C.3     6  PRO6        0.0939
     36  N          5.2700   36.6660    4.7660 N.3     8  LYS8       -0.1245
     37  CA         5.4910   35.3500    4.1850 C.3     8  LYS8        0.1561
     38  C          6.1030   35.5500    2.7970 C.2     8  LYS8        0.2260
     39  O          5.6160   36.3980    2.0300 O.2     8  LYS8       -0.2867
     40  CB         4.1770   34.5680    4.0900 C.3     8  LYS8        0.0271
     41  CG         3.4520   34.3220    5.4320 C.3     8  LYS8        0.0035
     42  CD         4.2550   33.4330    6.3740 C.3     8  LYS8        0.0206
     43  CE         3.4050   32.9500    7.5380 C.3     8  LYS8        0.1093
     44  NZ         2.7280   34.0670    8.2600 N.3     8  LYS8       -0.1314
     45  N          4.1520   41.9950   10.8840 N.3    22  THR22      -0.1218
     46  CA         3.3350   41.8130   12.0950 C.3    22  THR22       0.1862
     47  C          4.0720   42.1700   13.3860 C.2    22  THR22       0.2287
     48  O          5.1200   41.5940   13.6930 O.2    22  THR22      -0.2866
     49  CB         2.7770   40.3700   12.2000 C.3    22  THR22       0.1770
     50  OG1        2.1090   40.0270   10.9830 O.3    22  THR22      -0.2211
     51  CG2        1.7800   40.2440   13.3620 C.3    22  THR22       0.0375
     52  N          3.9310   42.1010   17.3980 N.3    24  VAL24      -0.1245
     53  CA         3.2580   41.3940   18.4930 C.3    24  VAL24       0.1561
     54  C          3.8320   41.7890   19.8550 C.2    24  VAL24       0.2260
     55  O          5.0470   41.6910   20.0860 O.2    24  VAL24      -0.2867
     56  CB         3.3080   39.8470   18.3190 C.3    24  VAL24       0.0252
     57  CG1        2.5790   39.1500   19.4670 C.3    24  VAL24       0.0019
     58  CG2        2.7030   39.4310   16.9850 C.3    24  VAL24       0.0019
     59  N          3.6870   40.7810   23.6790 N.3    26  VAL26      -0.1245
     60  CA         3.3530   39.7730   24.6890 C.3    26  VAL26       0.1561
     61  C          3.8180   40.2080   26.0790 C.2    26  VAL26       0.2260
     62  O          4.7940   40.9540   26.2160 O.2    26  VAL26      -0.2867
     63  CB         3.9380   38.3690   24.3500 C.3    26  VAL26       0.0252
     64  CG1        3.2300   37.7700   23.1480 C.3    26  VAL26       0.0019
     65  CG2        5.4460   38.4300   24.1090 C.3    26  VAL26       0.0019
     66  N         -2.3990   39.6570   24.8780 N.3    46  ARG46      -0.1245
     67  CA        -1.6200   39.7040   23.6420 C.3    46  ARG46       0.1563
     68  C         -2.2220   40.7700   22.7250 C.2    46  ARG46       0.2260
     69  O         -3.4310   40.7550   22.4530 O.2    46  ARG46      -0.2867
     70  CB        -1.6310   38.3300   22.9550 C.3    46  ARG46       0.0307
     71  CG        -0.6090   38.1370   21.8300 C.3    46  ARG46       0.0489
     72  CD        -0.4860   36.6570   21.4580 C.3    46  ARG46       0.2205
     73  NE         0.4160   36.4220   20.3320 N.pl3  46  ARG46      -0.0865
     74  CZ         0.0410   36.4020   19.0550 C.cat  46  ARG46       0.5346
     75  NH1       -1.2280   36.6030   18.7230 N.pl3  46  ARG46       0.1354
     76  NH2        0.9370   36.1790   18.1050 N.pl3  46  ARG46       0.1354
     77  N         -1.7650   42.5570   18.8690 N.3    48  VAL48      -0.1245
     78  CA        -1.1860   42.3960   17.5260 C.3    48  VAL48       0.1561
     79  C         -1.4920   43.6170   16.6440 C.2    48  VAL48       0.2260
     80  O         -2.6460   44.0560   16.5690 O.2    48  VAL48      -0.2867
     81  CB        -1.7240   41.1150   16.8200 C.3    48  VAL48       0.0252
     82  CG1       -1.0350   40.9020   15.4790 C.3    48  VAL48       0.0019
     83  CG2       -1.5600   39.8790   17.7070 C.3    48  VAL48       0.0019
@<TRIPOS>BOND
     1    39    38    2
     2    38    37    1
     3    40    37    1
     4    40    41    1
     5    37    36    1
     6    41    42    1
     7    42    43    1
     8    31    32    2
     9    31    30    1
    10    43    44    1
    11    33    30    1
    12    33    34    1
    13    30    29    1
    14    34    35    1
    15    29    35    1
    16    29    20   am
    17    21    20    2
    18    20    19    1
    19    45    46    1
    20    50    49    1
    21    19    22    1
    22    19    18    1
    23    46    49    1
    24    46    47    1
    25    49    51    1
    26    22    23    1
    27    47    48    2
    28    23    24   ar
    29    23    25   ar
    30    24    26   ar
    31    25    27   ar
    32    26    28   ar
    33    82    81    1
    34    27    28   ar
    35    80    79    2
    36    79    78    1
    37    81    78    1
    38    81    83    1
    39    10     9    2
    40    58    56    1
    41     9     8    1
    42    52    53    1
    43    78    77    1
    44    76    74    1
    45    56    53    1
    46    56    57    1
    47     8    11    1
    48     8     7    1
    49    53    54    1
    50    11    12    1
    51    75    74    1
    52    74    73    2
    53    54    55    2
    54    12    14   ar
    55    12    13   ar
    56    14    16   ar
    57    73    72    1
    58    13    15   ar
    59    16    17   ar
    60    72    71    1
    61    71    70    1
    62    15    17   ar
    63    69    68    2
    64    68    67    1
    65    70    67    1
    66    64    63    1
    67    67    66    1
    68    59    60    1
    69     4     3    2
    70     3     2    1
    71    65    63    1
    72    63    60    1
    73    60    61    1
    74     2     5    1
    75     2     1    1
    76     5     6    1
    77    61    62    2
