@<TRIPOS>MOLECULE
tmp/4l4lB01.pdb
 207 197 0 0 0
SMALL
GASTEIGER

@<TRIPOS>ATOM
      1  N          8.1850    5.2940   46.3470 N.3   172  TYR172     -0.1241
      2  CA         8.3860    3.8510   46.1860 C.3   172  TYR172      0.1605
      3  C          7.1380    3.1370   45.6510 C.2   172  TYR172      0.2264
      4  O          7.0300    1.9140   45.7380 O.2   172  TYR172     -0.2867
      5  CB         8.8360    3.2120   47.5080 C.3   172  TYR172      0.0534
      6  CG        10.2240    3.6360   47.9330 C.ar  172  TYR172     -0.0201
      7  CD1       11.3480    2.9580   47.4730 C.ar  172  TYR172     -0.0009
      8  CD2       10.4160    4.7300   48.7770 C.ar  172  TYR172     -0.0009
      9  CE1       12.6250    3.3490   47.8500 C.ar  172  TYR172      0.0417
     10  CE2       11.6880    5.1280   49.1560 C.ar  172  TYR172      0.0417
     11  CZ        12.7880    4.4340   48.6890 C.ar  172  TYR172      0.1957
     12  OH        14.0570    4.8210   49.0550 O.3   172  TYR172     -0.2866
     13  N          7.6300    1.0080   40.7580 N.3   175  HIS175     -0.1241
     14  CA         8.9470    0.4000   40.6520 C.3   175  HIS175      0.1621
     15  C          9.2620    0.0370   39.2000 C.2   175  HIS175      0.2264
     16  O          8.3870   -0.4080   38.4590 O.2   175  HIS175     -0.2867
     17  CB         9.0130   -0.8490   41.5410 C.3   175  HIS175      0.0745
     18  CG        10.4060   -1.2740   41.8860 C.ar  175  HIS175      0.0817
     19  ND1       11.0110   -0.9380   43.0780 N.ar  175  HIS175     -0.2268
     20  CD2       11.3160   -2.0040   41.1990 C.ar  175  HIS175      0.1154
     21  CE1       12.2280   -1.4470   43.1120 C.ar  175  HIS175      0.1986
     22  NE2       12.4400   -2.0960   41.9810 N.ar  175  HIS175     -0.2212
     23  N         10.4340   -2.1280   36.3700 N.3   177  PHE177     -0.1241
     24  CA        10.6010   -3.5420   36.0130 C.3   177  PHE177      0.1605
     25  C         11.0050   -3.7360   34.5480 C.2   177  PHE177      0.2264
     26  O         10.9190   -4.8500   34.0300 O.2   177  PHE177     -0.2867
     27  CB         9.2890   -4.3080   36.2220 C.3   177  PHE177      0.0534
     28  CG         8.9770   -4.6400   37.6560 C.ar  177  PHE177     -0.0203
     29  CD1        9.8140   -4.2390   38.6880 C.ar  177  PHE177     -0.0042
     30  CD2        7.8350   -5.3650   37.9680 C.ar  177  PHE177     -0.0042
     31  CE1        9.5140   -4.5490   40.0020 C.ar  177  PHE177     -0.0003
     32  CE2        7.5300   -5.6810   39.2760 C.ar  177  PHE177     -0.0003
     33  CZ         8.3710   -5.2730   40.2980 C.ar  177  PHE177     -0.0000
     34  N         13.7250   -3.7600   32.5680 N.3   179  TYR179     -0.1227
     35  CA        15.0380   -4.1400   32.0590 C.3   179  TYR179      0.1736
     36  C         14.9650   -5.1130   30.8640 C.2   179  TYR179      0.2595
     37  O         15.6250   -4.9010   29.8440 O.2   179  TYR179     -0.2718
     38  CB        15.8940   -4.7220   33.1900 C.3   179  TYR179      0.0548
     39  CG        17.3870   -4.5360   33.0130 C.ar  179  TYR179     -0.0200
     40  CD1       17.9380   -4.2500   31.7670 C.ar  179  TYR179     -0.0009
     41  CD2       18.2510   -4.6520   34.0970 C.ar  179  TYR179     -0.0009
     42  CE1       19.3050   -4.0860   31.6080 C.ar  179  TYR179      0.0417
     43  CE2       19.6160   -4.4900   33.9460 C.ar  179  TYR179      0.0417
     44  CZ        20.1390   -4.2070   32.7040 C.ar  179  TYR179      0.1957
     45  OH        21.5010   -4.0430   32.5610 O.3   179  TYR179     -0.2866
     46  N         14.1610   -6.1630   30.9830 N.am  180  ARG180     -0.1966
     47  CA        14.1040   -7.1850   29.9420 C.3   180  ARG180      0.1729
     48  C         13.2550   -6.7330   28.7620 C.2   180  ARG180      0.2616
     49  O         13.4040   -7.2450   27.6550 O.2   180  ARG180     -0.2715
     50  CB        13.5510   -8.4980   30.5000 C.3   180  ARG180      0.0348
     51  CG        12.0380   -8.5200   30.6550 C.3   180  ARG180      0.0492
     52  CD        11.5800   -9.7060   31.4970 C.3   180  ARG180      0.2205
     53  NE        12.1350   -9.6660   32.8470 N.pl3 180  ARG180     -0.0865
     54  CZ        11.8940  -10.5790   33.7840 C.cat 180  ARG180      0.5346
     55  NH1       11.1000  -11.6120   33.5220 N.pl3 180  ARG180      0.1354
     56  NH2       12.4470  -10.4610   34.9820 N.pl3 180  ARG180      0.1354
     57  N         12.3770   -5.7650   29.0050 N.am  181  GLY181     -0.1955
     58  CA        11.3910   -5.3500   28.0240 C.3   181  GLY181      0.1869
     59  C         11.7810   -4.1590   27.1650 C.2   181  GLY181      0.2309
     60  O         10.9890   -3.7040   26.3400 O.2   181  GLY181     -0.2863
     61  N         14.5500   -1.9430   39.4870 N.3   203  ASP203     -0.1239
     62  CA        15.2360   -3.2250   39.3220 C.3   203  ASP203      0.1674
     63  C         16.1590   -3.1690   38.1090 C.2   203  ASP203      0.2266
     64  O         16.8920   -4.1140   37.8160 O.2   203  ASP203     -0.2867
     65  CB        14.2430   -4.3880   39.1910 C.3   203  ASP203      0.1410
     66  CG        13.9710   -5.0760   40.5260 C.2   203  ASP203      0.3668
     67  OD1       13.8470   -4.3680   41.5460 O.co2 203  ASP203     -0.2456
     68  OD2       13.8890   -6.3250   40.5590 O.co2 203  ASP203     -0.2456
     69  N         16.7360    1.8560   44.7530 N.3   224  TYR224     -0.1227
     70  CA        16.7940    0.7080   45.6490 C.3   224  TYR224      0.1736
     71  C         15.8670   -0.4260   45.2360 C.2   224  TYR224      0.2596
     72  O         14.9400   -0.2340   44.4570 O.2   224  TYR224     -0.2718
     73  CB        16.4560    1.1410   47.0810 C.3   224  TYR224      0.0548
     74  CG        17.2830    2.3030   47.5710 C.ar  224  TYR224     -0.0200
     75  CD1       18.5150    2.0930   48.1760 C.ar  224  TYR224     -0.0009
     76  CD2       16.8390    3.6120   47.4190 C.ar  224  TYR224     -0.0009
     77  CE1       19.2780    3.1490   48.6220 C.ar  224  TYR224      0.0417
     78  CE2       17.5980    4.6800   47.8640 C.ar  224  TYR224      0.0417
     79  CZ        18.8190    4.4390   48.4650 C.ar  224  TYR224      0.1957
     80  OH        19.5890    5.4840   48.9150 O.3   224  TYR224     -0.2866
     81  N         16.1260   -1.6110   45.7790 N.am  225  SER225     -0.1938
     82  CA        15.2210   -2.7440   45.6330 C.3   225  SER225      0.2055
     83  C         15.2770   -3.6240   46.8810 C.2   225  SER225      0.2642
     84  O         16.0560   -3.3610   47.8010 O.2   225  SER225     -0.2714
     85  CB        15.5600   -3.5660   44.3850 C.3   225  SER225      0.2130
     86  OG        14.4830   -4.4230   44.0370 O.3   225  SER225     -0.2179
     87  N         14.4420   -4.6600   46.9020 N.am  226  VAL226     -0.1977
     88  CA        14.3920   -5.6220   47.9960 C.3   226  VAL226      0.1596
     89  C         14.3300   -7.0310   47.4070 C.2   226  VAL226      0.2287
     90  O         14.0430   -7.1900   46.2140 O.2   226  VAL226     -0.2864
     91  CB        13.1600   -5.3860   48.9010 C.3   226  VAL226      0.0276
     92  CG1       13.2660   -4.0430   49.6310 C.3   226  VAL226      0.0022
     93  CG2       11.8890   -5.4590   48.0970 C.3   226  VAL226      0.0022
     94  N         13.0810  -10.6910   46.2520 N.3   228  ALA228     -0.1231
     95  CA        11.8130  -11.1720   45.7350 C.3   228  ALA228      0.1694
     96  C         12.0230  -12.4310   44.9130 C.2   228  ALA228      0.2592
     97  O         13.1110  -12.6600   44.3830 O.2   228  ALA228     -0.2718
     98  CB        11.1410  -10.0990   44.8940 C.3   228  ALA228      0.0304
     99  N         10.9710  -13.2380   44.8090 N.am  229  ALA229     -0.1966
    100  CA        10.9970  -14.4470   44.0000 C.3   229  ALA229      0.1728
    101  C         10.6510  -14.1580   42.5430 C.2   229  ALA229      0.2616
    102  O         10.1970  -13.0670   42.2080 O.2   229  ALA229     -0.2715
    103  CB        10.0370  -15.4850   44.5720 C.3   229  ALA229      0.0334
    104  N         10.8910  -15.1410   41.6830 N.am  230  GLU230     -0.1977
    105  CA        10.3430  -15.1470   40.3330 C.3   230  GLU230      0.1602
    106  C          9.6470  -16.4900   40.1630 C.2   230  GLU230      0.2287
    107  O          9.6900  -17.3190   41.0680 O.2   230  GLU230     -0.2864
    108  CB        11.4360  -14.9500   39.2780 C.3   230  GLU230      0.0415
    109  CG        12.4410  -16.0860   39.1530 C.3   230  GLU230      0.1163
    110  CD        13.4450  -15.8420   38.0290 C.2   230  GLU230      0.3649
    111  OE1       13.6370  -14.6670   37.6380 O.co2 230  GLU230     -0.2457
    112  OE2       14.0340  -16.8240   37.5260 O.co2 230  GLU230     -0.2457
    113  N         12.2210   -6.7800   53.8960 N.3   257  PRO257     -0.2116
    114  CA        11.0210   -6.9220   53.0660 C.3   257  PRO257      0.1372
    115  C         11.2440   -7.9860   51.9990 C.2   257  PRO257      0.2244
    116  O         12.3660   -8.1560   51.5180 O.2   257  PRO257     -0.2868
    117  CB        10.8800   -5.5440   52.4100 C.3   257  PRO257      0.0268
    118  CG        11.6520   -4.6080   53.2860 C.3   257  PRO257      0.0207
    119  CD        12.7860   -5.4200   53.8210 C.3   257  PRO257      0.0892
    120  N          9.1390   -9.8800   48.5220 N.3   259  SER259     -0.1217
    121  CA         7.9760   -9.9960   47.6620 C.3   259  SER259      0.1889
    122  C          7.9270  -11.3980   47.0680 C.2   259  SER259      0.2288
    123  O          8.9490  -11.9350   46.6510 O.2   259  SER259     -0.2866
    124  CB         8.0130   -8.9360   46.5610 C.3   259  SER259      0.2089
    125  OG         6.7770   -8.8680   45.8730 O.3   259  SER259     -0.2183
    126  N          7.8730   -6.4230   55.6280 N.3   291  PRO291     -0.2116
    127  CA         6.6060   -7.0520   55.2410 C.3   291  PRO291      0.1372
    128  C          6.7570   -8.1580   54.1960 C.2   291  PRO291      0.2244
    129  O          7.7630   -8.2360   53.4910 O.2   291  PRO291     -0.2868
    130  CB         5.8130   -5.8890   54.6440 C.3   291  PRO291      0.0268
    131  CG         6.8550   -4.9500   54.1400 C.3   291  PRO291      0.0207
    132  CD         7.9810   -5.0400   55.1300 C.3   291  PRO291      0.0892
    133  N          5.2430   -9.0680   50.7290 N.3   293  ILE293     -0.1245
    134  CA         4.5730   -8.3340   49.6760 C.3   293  ILE293      0.1561
    135  C          4.1230   -9.3400   48.6190 C.2   293  ILE293      0.2260
    136  O          4.9320   -9.8650   47.8600 O.2   293  ILE293     -0.2867
    137  CB         5.5040   -7.2620   49.0810 C.3   293  ILE293      0.0252
    138  CG1        6.0590   -6.3790   50.2050 C.3   293  ILE293      0.0019
    139  CG2        4.7660   -6.4220   48.0430 C.3   293  ILE293      0.0019
    140  CD1        7.4350   -5.8010   49.9420 C.3   293  ILE293      0.0001
    141  N          2.6890  -10.7520   45.3140 N.3   295  ARG295     -0.1245
    142  CA         2.6030  -10.3020   43.9270 C.3   295  ARG295      0.1563
    143  C          1.7700  -11.2180   43.0410 C.2   295  ARG295      0.2260
    144  O          2.1830  -12.3380   42.7310 O.2   295  ARG295     -0.2867
    145  CB         3.9930  -10.1200   43.3080 C.3   295  ARG295      0.0307
    146  CG         3.9360   -9.6910   41.8430 C.3   295  ARG295      0.0489
    147  CD         5.2740   -9.1900   41.3130 C.3   295  ARG295      0.2205
    148  NE         6.3040  -10.2230   41.3210 N.pl3 295  ARG295     -0.0865
    149  CZ         6.5990  -11.0080   40.2890 C.cat 295  ARG295      0.5346
    150  NH1        5.9510  -10.8920   39.1380 N.pl3 295  ARG295      0.1354
    151  NH2        7.5560  -11.9110   40.4130 N.pl3 295  ARG295      0.1354
    152  N          0.4010  -11.8740   39.2010 N.3   297  ASP297     -0.1239
    153  CA         1.0760  -11.6240   37.9240 C.3   297  ASP297      0.1674
    154  C          0.2570  -12.0790   36.7100 C.2   297  ASP297      0.2266
    155  O          0.8000  -12.2970   35.6280 O.2   297  ASP297     -0.2867
    156  CB         2.4690  -12.2780   37.9230 C.3   297  ASP297      0.1410
    157  CG         3.3120  -11.8760   36.7180 C.2   297  ASP297      0.3668
    158  OD1        3.6430  -10.6810   36.5880 O.co2 297  ASP297     -0.2456
    159  OD2        3.6420  -12.7610   35.8990 O.co2 297  ASP297     -0.2456
    160  N          1.9670   -6.0390   45.7020 N.3   335  ILE335     -0.1245
    161  CA         2.4820   -5.3350   44.5360 C.3   335  ILE335      0.1561
    162  C          1.9000   -5.9130   43.2460 C.2   335  ILE335      0.2260
    163  O          1.8870   -7.1290   43.0430 O.2   335  ILE335     -0.2867
    164  CB         4.0350   -5.2800   44.4920 C.3   335  ILE335      0.0252
    165  CG1        4.4930   -4.4100   43.3140 C.3   335  ILE335      0.0019
    166  CG2        4.6400   -6.6830   44.4280 C.3   335  ILE335      0.0019
    167  CD1        5.9830   -4.2820   43.1850 C.3   335  ILE335      0.0001
    168  N          2.6430   -6.0480   39.5120 N.3   337  GLY337     -0.1210
    169  CA         3.7410   -5.8200   38.5910 C.3   337  GLY337      0.1956
    170  C          3.5030   -6.3880   37.2050 C.2   337  GLY337      0.2612
    171  O          4.4480   -6.7050   36.4830 O.2   337  GLY337     -0.2717
    172  N          2.2340   -6.5150   36.8320 N.am  338  ASP338     -0.1959
    173  CA         1.8710   -6.9950   35.5040 C.3   338  ASP338      0.1840
    174  C          0.7660   -6.1410   34.8860 C.2   338  ASP338      0.2623
    175  O         -0.1950   -5.7690   35.5600 O.2   338  ASP338     -0.2715
    176  CB         1.4380   -8.4650   35.5610 C.3   338  ASP338      0.1450
    177  CG         0.9930   -8.9960   34.2070 C.2   338  ASP338      0.3671
    178  OD1        1.8690   -9.2070   33.3390 O.co2 338  ASP338     -0.2456
    179  OD2       -0.2280   -9.2010   34.0140 O.co2 338  ASP338     -0.2456
    180  N          0.9140   -5.8310   33.6010 N.am  339  GLY339     -0.1940
    181  CA        -0.0900   -5.0780   32.8660 C.3   339  GLY339      0.2014
    182  C         -0.2540   -3.6340   33.3130 C.2   339  GLY339      0.2638
    183  O         -1.3140   -3.0350   33.1260 O.2   339  GLY339     -0.2714
    184  N          0.7920   -3.0640   33.9030 N.am  340  VAL340     -0.1977
    185  CA         0.7050   -1.6940   34.3930 C.3   340  VAL340      0.1596
    186  C          1.2620   -0.6590   33.4170 C.2   340  VAL340      0.2287
    187  O          2.4410   -0.6800   33.0740 O.2   340  VAL340     -0.2864
    188  CB         1.4070   -1.5260   35.7490 C.3   340  VAL340      0.0276
    189  CG1        1.3100   -0.0760   36.2170 C.3   340  VAL340      0.0022
    190  CG2        0.7960   -2.4680   36.7790 C.3   340  VAL340      0.0022
    191  N          1.6630   -1.3570   45.8720 N.3   363  ALA363     -0.1245
    192  CA         2.7310   -0.7390   45.1110 C.3   363  ALA363      0.1562
    193  C          2.5960   -1.2660   43.6920 C.2   363  ALA363      0.2260
    194  O          1.9330   -2.2810   43.4640 O.2   363  ALA363     -0.2867
    195  CB         4.0840   -1.1070   45.6910 C.3   363  ALA363      0.0290
    196  N          7.0040   -2.3750   33.4950 N.3   367  GLY367     -0.1210
    197  CA         8.1480   -2.6840   32.6620 C.3   367  GLY367      0.1956
    198  C          8.0810   -2.0310   31.2950 C.2   367  GLY367      0.2612
    199  O          8.4940   -0.8820   31.1210 O.2   367  GLY367     -0.2717
    200  N          7.5640   -2.7750   30.3210 N.am  368  GLY368     -0.1942
    201  CA         7.3810   -2.2580   28.9770 C.3   368  GLY368      0.2014
    202  C          6.5320   -1.0010   28.9710 C.2   368  GLY368      0.2639
    203  O          6.7870   -0.0750   28.2020 O.2   368  GLY368     -0.2714
    204  N          5.5230   -0.9650   29.8380 N.am  369  GLY369     -0.1954
    205  CA         4.6860    0.2140   29.9710 C.3   369  GLY369      0.1869
    206  C          5.4710    1.4440   30.3960 C.2   369  GLY369      0.2309
    207  O          5.1750    2.5650   29.9740 O.2   369  GLY369     -0.2863
@<TRIPOS>BOND
     1    60    59    2
     2    59    58    1
     3    49    48    2
     4    58    57    1
     5   203   202    2
     6    48    57   am
     7    48    47    1
     8   202   201    1
     9   202   204   am
    10   201   200    1
    11   204   205    1
    12    37    36    2
    13    47    50    1
    14    47    46    1
    15   205   206    1
    16   207   206    2
    17   200   198   am
    18    50    51    1
    19    51    52    1
    20    36    46   am
    21    36    35    1
    22   199   198    2
    23   198   197    1
    24    52    53    1
    25    42    40   ar
    26    42    44   ar
    27    40    39   ar
    28    35    34    1
    29    35    38    1
    30    45    44    1
    31   197   196    1
    32    44    43   ar
    33    53    54    2
    34   181   182    1
    35   181   180    1
    36    39    38    1
    37    39    41   ar
    38   187   186    2
    39   183   182    2
    40   182   184   am
    41   178   177   ar
    42   186   185    1
    43    55    54    1
    44   180   174   am
    45    54    56    1
    46   184   185    1
    47    43    41   ar
    48   179   177   ar
    49    26    25    2
    50   177   176    1
    51   185   188    1
    52    25    24    1
    53   174   173    1
    54   174   175    2
    55   173   176    1
    56   173   172    1
    57   155   154    2
    58   188   189    1
    59   188   190    1
    60   159   157   ar
    61    24    27    1
    62    24    23    1
    63    27    28    1
    64   171   170    2
    65   158   157   ar
    66   154   153    1
    67   157   156    1
    68   172   170   am
    69   170   169    1
    70   112   110   ar
    71   111   110   ar
    72    28    30   ar
    73    28    29   ar
    74    64    63    2
    75   156   153    1
    76   153   152    1
    77    30    32   ar
    78   110   109    1
    79    63    62    1
    80    16    15    2
    81   169   168    1
    82    29    31   ar
    83   150   149    1
    84   109   108    1
    85    65    62    1
    86    65    66    1
    87    15    14    1
    88    32    33   ar
    89   108   105    1
    90    62    61    1
    91    31    33   ar
    92   106   105    1
    93   106   107    2
    94   149   151    1
    95   149   148    2
    96   105   104    1
    97    66    68   ar
    98    66    67   ar
    99    14    13    1
   100    14    17    1
   101    20    18   ar
   102    20    22   ar
   103   147   148    1
   104   147   146    1
   105    17    18    1
   106   104   101   am
   107   146   145    1
   108    18    19   ar
   109    22    21   ar
   110   102   101    2
   111   101   100    1
   112   144   143    2
   113   143   142    1
   114   163   162    2
   115    19    21   ar
   116   167   165    1
   117   162   161    1
   118   145   142    1
   119   165   164    1
   120   194   193    2
   121   193   192    1
   122   142   141    1
   123   100   103    1
   124   100    99    1
   125    86    85    1
   126    97    96    2
   127    85    82    1
   128   166   164    1
   129    72    71    2
   130   164   161    1
   131   161   160    1
   132    69    70    1
   133    99    96   am
   134    98    95    1
   135    96    95    1
   136   192   195    1
   137   192   191    1
   138    71    70    1
   139    71    81   am
   140    82    81    1
   141    82    83    1
   142    70    73    1
   143     3     4    2
   144     3     2    1
   145    95    94    1
   146   125   124    1
   147     2     1    1
   148     2     5    1
   149    90    89    2
   150   124   121    1
   151   123   122    2
   152    83    87   am
   153    83    84    2
   154    87    88    1
   155   122   121    1
   156    73    74    1
   157    89    88    1
   158    76    74   ar
   159    76    78   ar
   160     7     9   ar
   161     7     6   ar
   162     5     6    1
   163    74    75   ar
   164   121   120    1
   165     9    11   ar
   166   136   135    2
   167    78    79   ar
   168     6     8   ar
   169    88    91    1
   170   139   137    1
   171    93    91    1
   172    75    77   ar
   173    79    77   ar
   174    79    80    1
   175   135   134    1
   176    11    12    1
   177    11    10   ar
   178     8    10   ar
   179    91    92    1
   180   137   134    1
   181   137   138    1
   182   134   133    1
   183   140   138    1
   184   116   115    2
   185   115   114    1
   186   117   114    1
   187   117   118    1
   188   114   113    1
   189   118   119    1
   190   129   128    2
   191   119   113    1
   192   131   130    1
   193   131   132    1
   194   128   127    1
   195   130   127    1
   196   132   126    1
   197   127   126    1
