@<TRIPOS>MOLECULE
tmp/4l4oA00.pdb
 106 105 0 0 0
SMALL
GASTEIGER

@<TRIPOS>ATOM
      1  N          1.0690  -10.6770  -10.9130 N.3    45  LYS45      -0.1245
      2  CA         1.4840   -9.3480  -10.4300 C.3    45  LYS45       0.1561
      3  C          0.8060   -9.0200   -9.1020 C.2    45  LYS45       0.2260
      4  O         -0.3460   -9.4510   -8.8360 O.2    45  LYS45      -0.2867
      5  CB         1.1620   -8.3120  -11.4980 C.3    45  LYS45       0.0271
      6  CG         2.1690   -8.5540  -12.6330 C.3    45  LYS45       0.0035
      7  CD         1.8040   -7.6610  -13.8310 C.3    45  LYS45       0.0206
      8  CE         2.8580   -7.8810  -14.9460 C.3    45  LYS45       0.1093
      9  NZ         2.1860   -7.4520  -16.2070 N.3    45  LYS45      -0.1314
     10  N          6.3440  -14.2670  -12.1860 N.3    78  HIS78      -0.1241
     11  CA         6.5440  -12.8420  -12.5620 C.3    78  HIS78       0.1621
     12  C          5.3980  -12.0690  -11.9750 C.2    78  HIS78       0.2264
     13  O          4.2650  -12.3090  -12.3560 O.2    78  HIS78      -0.2867
     14  CB         6.5160  -12.7980  -14.0980 C.3    78  HIS78       0.0745
     15  CG         6.5250  -11.4080  -14.6910 C.ar   78  HIS78       0.0817
     16  ND1        7.6250  -10.6560  -14.7360 N.ar   78  HIS78      -0.2268
     17  CD2        5.5230  -10.6750  -15.2970 C.ar   78  HIS78       0.1154
     18  CE1        7.3180   -9.4360  -15.2660 C.ar   78  HIS78       0.1986
     19  NE2        6.0480   -9.4600  -15.6220 N.ar   78  HIS78      -0.2212
     20  N          7.7640   -4.9560   -7.5870 N.3    82  TRP82      -0.1241
     21  CA         7.8420   -4.0810   -8.7730 C.3    82  TRP82       0.1605
     22  C          7.2350   -2.7400   -8.4170 C.2    82  TRP82       0.2264
     23  O          6.2540   -2.7040   -7.6920 O.2    82  TRP82      -0.2867
     24  CB         7.0980   -4.7830   -9.8950 C.3    82  TRP82       0.0550
     25  CG         7.1330   -4.1270  -11.2790 C.ar   82  TRP82       0.0003
     26  CD1        8.1160   -3.3090  -11.8310 C.ar   82  TRP82       0.0946
     27  CD2        6.0840   -4.2220  -12.2950 C.ar   82  TRP82       0.0152
     28  NE1        7.7480   -2.9060  -13.1050 N.ar   82  TRP82      -0.2442
     29  CE2        6.5260   -3.4320  -13.4270 C.ar   82  TRP82       0.0810
     30  CE3        4.8170   -4.8050  -12.3210 C.ar   82  TRP82       0.0012
     31  CZ2        5.7440   -3.2720  -14.5760 C.ar   82  TRP82       0.0191
     32  CZ3        4.0450   -4.6410  -13.4680 C.ar   82  TRP82       0.0001
     33  CH2        4.5010   -3.9010  -14.5790 C.ar   82  TRP82       0.0015
     34  N         11.8040   -6.5230  -10.1440 N.3   129  ASN129     -0.1225
     35  CA        11.6610   -6.1240  -11.5160 C.3   129  ASN129      0.1785
     36  C         11.9230   -4.6290  -11.6390 C.2   129  ASN129      0.2597
     37  O         11.3050   -3.8550  -10.8960 O.2   129  ASN129     -0.2718
     38  CB        10.1850   -6.4820  -11.8970 C.3   129  ASN129      0.1169
     39  CG         9.9620   -6.5380  -13.3920 C.2   129  ASN129      0.2627
     40  OD1       10.8180   -7.0070  -14.1210 O.2   129  ASN129     -0.2716
     41  ND2        8.8330   -5.9650  -13.8720 N.am  129  ASN129     -0.0877
     42  N         12.8620   -4.2140  -12.5290 N.am  130  GLU130     -0.1979
     43  CA        12.9660   -2.8280  -12.9520 C.3   130  GLU130      0.1602
     44  C         13.3170   -1.8600  -11.8420 C.2   130  GLU130      0.2287
     45  O         12.8030   -0.7250  -11.8060 O.2   130  GLU130     -0.2864
     46  CB        11.6360   -2.3750  -13.6100 C.3   130  GLU130      0.0415
     47  CG        11.3660   -3.2050  -14.8880 C.3   130  GLU130      0.1163
     48  CD        10.0470   -2.8360  -15.5680 C.2   130  GLU130      0.3649
     49  OE1        9.4110   -1.8410  -15.1530 O.co2 130  GLU130     -0.2457
     50  OE2        9.6710   -3.5740  -16.4910 O.co2 130  GLU130     -0.2457
     51  N         14.7360   -8.4750  -20.4670 N.3   206  GLN206     -0.1245
     52  CA        13.3510   -8.5390  -20.9950 C.3   206  GLN206      0.1566
     53  C         13.3230   -8.6310  -22.5450 C.2   206  GLN206      0.2260
     54  O         12.5200   -9.3510  -23.1200 O.2   206  GLN206     -0.2867
     55  CB        12.5600   -7.3020  -20.5110 C.3   206  GLN206      0.0367
     56  CG        11.9620   -7.4650  -19.1320 C.3   206  GLN206      0.0905
     57  CD        11.2620   -6.1850  -18.7250 C.2   206  GLN206      0.2608
     58  OE1       10.7510   -5.4380  -19.5800 O.2   206  GLN206     -0.2717
     59  NE2       11.2420   -5.9060  -17.4450 N.am  206  GLN206     -0.0878
     60  N         12.6180   -6.4240  -24.9630 N.3   208  HIS208     -0.1241
     61  CA        11.6670   -5.6270  -25.8190 C.3   208  HIS208      0.1621
     62  C         12.4370   -4.8800  -26.8820 C.2   208  HIS208      0.2264
     63  O         12.8540   -3.7790  -26.6410 O.2   208  HIS208     -0.2867
     64  CB        10.7780   -4.7120  -24.9500 C.3   208  HIS208      0.0745
     65  CG         9.8750   -5.5580  -24.0360 C.ar  208  HIS208      0.0817
     66  ND1        9.0250   -6.5210  -24.5340 N.ar  208  HIS208     -0.2268
     67  CD2        9.8220   -5.6600  -22.6650 C.ar  208  HIS208      0.1154
     68  CE1        8.4090   -7.1510  -23.5080 C.ar  208  HIS208      0.1986
     69  NE2        8.8930   -6.6260  -22.3660 N.ar  208  HIS208     -0.2212
     70  N         11.2620  -11.5340  -21.8140 N.3   238  GLU238     -0.1245
     71  CA        10.0570  -10.9890  -22.4810 C.3   238  GLU238      0.1567
     72  C         10.2520  -10.5960  -23.9410 C.2   238  GLU238      0.2260
     73  O          9.8110   -9.5360  -24.3670 O.2   238  GLU238     -0.2867
     74  CB         9.4510   -9.8500  -21.6880 C.3   238  GLU238      0.0388
     75  CG         9.4080  -10.1450  -20.2000 C.3   238  GLU238      0.1160
     76  CD         8.9160   -8.9130  -19.3950 C.2   238  GLU238      0.3649
     77  OE1        8.4810   -7.9130  -19.9940 O.co2 238  GLU238     -0.2457
     78  OE2        8.9250   -8.9420  -18.1630 O.co2 238  GLU238     -0.2457
     79  N          7.2200  -12.7280  -25.3370 N.3   288  TRP288     -0.1298
     80  CA         6.1400  -12.0820  -24.6810 C.3   288  TRP288      0.1291
     81  C          4.8510  -12.1610  -25.4570 C.3   288  TRP288      0.2013
     82  O          4.2300  -11.1190  -25.8850 O.3   288  TRP288     -0.2188
     83  CB         6.5460  -10.6730  -24.2530 C.3   288  TRP288      0.0497
     84  CG         5.7450  -10.2430  -23.0310 C.ar  288  TRP288     -0.0001
     85  CD1        4.7740   -9.2030  -22.9350 C.ar  288  TRP288      0.0946
     86  CD2        5.8140  -10.8520  -21.6940 C.ar  288  TRP288      0.0152
     87  NE1        4.2420   -9.1320  -21.6580 N.ar  288  TRP288     -0.2442
     88  CE2        4.8620  -10.1020  -20.8430 C.ar  288  TRP288      0.0810
     89  CE3        6.5900  -11.9060  -21.1210 C.ar  288  TRP288      0.0012
     90  CZ2        4.6580  -10.4280  -19.4990 C.ar  288  TRP288      0.0191
     91  CZ3        6.3540  -12.2410  -19.7570 C.ar  288  TRP288      0.0001
     92  CH2        5.4400  -11.4700  -18.9560 C.ar  288  TRP288      0.0015
     93  N          0.7610   -7.2220  -26.3930 N.3   296  TRP296     -0.1241
     94  CA         0.7040   -5.9380  -25.6730 C.3   296  TRP296      0.1605
     95  C          1.3160   -4.8100  -26.5060 C.2   296  TRP296      0.2264
     96  O          1.0370   -3.5990  -26.2540 O.2   296  TRP296     -0.2867
     97  CB         1.4500   -6.0940  -24.3280 C.3   296  TRP296      0.0550
     98  CG         2.9930   -6.0140  -24.4610 C.ar  296  TRP296      0.0003
     99  CD1        3.8530   -6.7790  -25.2640 C.ar  296  TRP296      0.0946
    100  CD2        3.8530   -4.9810  -23.8660 C.ar  296  TRP296      0.0152
    101  NE1        5.1870   -6.3060  -25.1490 N.ar  296  TRP296     -0.2442
    102  CE2        5.2370   -5.2720  -24.2880 C.ar  296  TRP296      0.0810
    103  CE3        3.6230   -3.9280  -22.9820 C.ar  296  TRP296      0.0012
    104  CZ2        6.3200   -4.4730  -23.8830 C.ar  296  TRP296      0.0191
    105  CZ3        4.7160   -3.1900  -22.5210 C.ar  296  TRP296      0.0001
    106  CH2        6.0310   -3.4510  -22.9580 C.ar  296  TRP296      0.0015
@<TRIPOS>BOND
     1    62    63    2
     2    62    61    1
     3    95    96    2
     4    95    94    1
     5    93    94    1
     6    82    81    1
     7    61    60    1
     8    61    64    1
     9    94    97    1
    10    81    80    1
    11    79    80    1
    12    99   101   ar
    13    99    98   ar
    14   101   102   ar
    15    64    65    1
    16    80    83    1
    17    66    65   ar
    18    66    68   ar
    19    98    97    1
    20    98   100   ar
    21    73    72    2
    22   102   104   ar
    23   102   100   ar
    24    83    84    1
    25    65    67   ar
    26    72    71    1
    27   104   106   ar
    28   100   103   ar
    29    68    69   ar
    30    54    53    2
    31    84    85   ar
    32    84    86   ar
    33   103   105   ar
    34   106   105   ar
    35    85    87   ar
    36    67    69   ar
    37    53    52    1
    38    71    70    1
    39    71    74    1
    40    86    89   ar
    41    86    88   ar
    42    74    75    1
    43    87    88   ar
    44    89    91   ar
    45    52    55    1
    46    52    51    1
    47    88    90   ar
    48    55    56    1
    49    75    76    1
    50    77    76   ar
    51    91    92   ar
    52    58    57    2
    53    90    92   ar
    54    76    78   ar
    55    56    57    1
    56    57    59   am
    57    50    48   ar
    58     9     8    1
    59    19    17   ar
    60    19    18   ar
    61    48    49   ar
    62    48    47    1
    63    17    15   ar
    64    18    16   ar
    65     8     7    1
    66    47    46    1
    67    16    15   ar
    68    15    14    1
    69    33    31   ar
    70    33    32   ar
    71    31    29   ar
    72    40    39    2
    73    14    11    1
    74    41    39   am
    75     7     6    1
    76    46    43    1
    77    32    30   ar
    78    29    28   ar
    79    29    27   ar
    80    39    38    1
    81    28    26   ar
    82    43    42    1
    83    43    44    1
    84     6     5    1
    85    11    10    1
    86    11    12    1
    87    42    36   am
    88    13    12    2
    89    30    27   ar
    90    27    25   ar
    91    38    35    1
    92    44    45    2
    93    26    25   ar
    94    36    35    1
    95    36    37    2
    96    35    34    1
    97     5     2    1
    98    25    24    1
    99     1     2    1
   100     2     3    1
   101    24    21    1
   102     3     4    2
   103    21    22    1
   104    21    20    1
   105    22    23    2
