@<TRIPOS>MOLECULE
tmp/4l4pA00.pdb
 170 166 0 0 0
SMALL
GASTEIGER

@<TRIPOS>ATOM
      1  N          1.4310  -14.0480  -17.9680 N.3    41  GLU41      -0.1231
      2  CA         1.6610  -12.6900  -18.4510 C.3    41  GLU41       0.1699
      3  C          1.3010  -11.6550  -17.3940 C.2    41  GLU41       0.2592
      4  O          2.0080  -10.6590  -17.2470 O.2    41  GLU41      -0.2718
      5  CB         0.8770  -12.4060  -19.7390 C.3    41  GLU41       0.0402
      6  CG         1.2090  -11.0490  -20.3510 C.3    41  GLU41       0.1161
      7  CD         0.3950  -10.7260  -21.5880 C.2    41  GLU41       0.3649
      8  OE1       -0.5790  -11.4510  -21.8690 O.co2  41  GLU41      -0.2457
      9  OE2        0.7330   -9.7350  -22.2730 O.co2  41  GLU41      -0.2457
     10  N          0.2070  -11.9050  -16.6710 N.am   42  ASN42      -0.1974
     11  CA        -0.2770  -11.0100  -15.6170 C.3    42  ASN42       0.1688
     12  C         -0.7340  -11.6620  -14.3080 C.2    42  ASN42       0.2292
     13  O         -0.7880  -10.9940  -13.2740 O.2    42  ASN42      -0.2864
     14  CB        -1.4490  -10.1820  -16.1420 C.3    42  ASN42       0.1181
     15  CG        -0.9990   -9.0880  -17.0730 C.2    42  ASN42       0.2629
     16  OD1       -0.3400   -8.1370  -16.6490 O.2    42  ASN42      -0.2716
     17  ND2       -1.3190   -9.2280  -18.3540 N.am   42  ASN42      -0.0877
     18  N          1.2160  -11.5000  -10.9560 N.3    45  LYS45      -0.1245
     19  CA         1.6230  -10.1850  -10.4610 C.3    45  LYS45       0.1561
     20  C          0.8410   -9.8470   -9.2000 C.2    45  LYS45       0.2260
     21  O         -0.3080  -10.2720   -9.0240 O.2    45  LYS45      -0.2867
     22  CB         1.4190   -9.1070  -11.5290 C.3    45  LYS45       0.0271
     23  CG         2.3660   -9.2780  -12.7060 C.3    45  LYS45       0.0035
     24  CD         1.9740   -8.3810  -13.8630 C.3    45  LYS45       0.0206
     25  CE         2.9920   -8.5300  -14.9910 C.3    45  LYS45       0.1093
     26  NZ         2.5620   -7.7800  -16.2030 N.3    45  LYS45      -0.1314
     27  N         -0.8150   -7.3100   -7.8370 N.3    47  GLU47      -0.1231
     28  CA        -2.1960   -6.7690   -7.9070 C.3    47  GLU47       0.1699
     29  C         -3.2590   -7.8090   -8.2860 C.2    47  GLU47       0.2592
     30  O         -4.4100   -7.6860   -7.8850 O.2    47  GLU47      -0.2718
     31  CB        -2.3000   -5.5780   -8.8860 C.3    47  GLU47       0.0402
     32  CG        -2.6760   -5.9910  -10.3160 C.3    47  GLU47       0.1161
     33  CD        -2.6540   -4.8650  -11.3470 C.2    47  GLU47       0.3649
     34  OE1       -2.7670   -5.1890  -12.5610 O.co2  47  GLU47      -0.2457
     35  OE2       -2.5360   -3.6740  -10.9640 O.co2  47  GLU47      -0.2457
     36  N         -2.8800   -8.8030   -9.0820 N.am   48  ARG48      -0.1980
     37  CA        -3.8280   -9.7930   -9.5690 C.3    48  ARG48       0.1597
     38  C         -4.0050  -10.9360   -8.5830 C.2    48  ARG48       0.2287
     39  O         -5.1210  -11.3210   -8.2670 O.2    48  ARG48      -0.2864
     40  CB        -3.3860  -10.3280  -10.9310 C.3    48  ARG48       0.0334
     41  CG        -3.4070   -9.2480  -12.0040 C.3    48  ARG48       0.0492
     42  CD        -4.8320   -8.8930  -12.3930 C.3    48  ARG48       0.2205
     43  NE        -5.2960   -9.7540  -13.4760 N.pl3  48  ARG48      -0.0865
     44  CZ        -4.9740   -9.5770  -14.7560 C.cat  48  ARG48       0.5346
     45  NH1       -4.1910   -8.5670  -15.1170 N.pl3  48  ARG48       0.1354
     46  NH2       -5.4260  -10.4170  -15.6740 N.pl3  48  ARG48       0.1354
     47  N          6.5940  -14.9090  -12.4190 N.3    78  HIS78      -0.1241
     48  CA         6.7060  -13.4940  -12.7570 C.3    78  HIS78       0.1621
     49  C          5.5340  -12.7540  -12.1650 C.2    78  HIS78       0.2264
     50  O          4.4170  -12.9890  -12.5970 O.2    78  HIS78      -0.2867
     51  CB         6.6840  -13.3440  -14.2820 C.3    78  HIS78       0.0745
     52  CG         6.7130  -11.9150  -14.7580 C.ar   78  HIS78       0.0817
     53  ND1        7.8730  -11.2090  -14.8670 N.ar   78  HIS78      -0.2268
     54  CD2        5.7090  -11.0690  -15.1570 C.ar   78  HIS78       0.1154
     55  CE1        7.6040   -9.9790  -15.3130 C.ar   78  HIS78       0.1986
     56  NE2        6.2920   -9.8780  -15.4900 N.ar   78  HIS78      -0.2212
     57  N          7.8130   -5.5460   -7.9630 N.3    82  TRP82      -0.1241
     58  CA         7.8570   -4.6520   -9.1130 C.3    82  TRP82       0.1605
     59  C          7.1600   -3.3460   -8.7470 C.2    82  TRP82       0.2264
     60  O          6.1820   -3.3630   -7.9970 O.2    82  TRP82      -0.2867
     61  CB         7.1390   -5.3450  -10.2680 C.3    82  TRP82       0.0550
     62  CG         7.2120   -4.6870  -11.6190 C.ar   82  TRP82       0.0003
     63  CD1        8.2260   -3.8990  -12.1360 C.ar   82  TRP82       0.0946
     64  CD2        6.2320   -4.8080  -12.6780 C.ar   82  TRP82       0.0152
     65  NE1        7.9200   -3.5020  -13.4250 N.ar   82  TRP82      -0.2442
     66  CE2        6.7230   -4.0380  -13.7970 C.ar   82  TRP82       0.0810
     67  CE3        4.9990   -5.4570  -12.7920 C.ar   82  TRP82       0.0012
     68  CZ2        6.0120   -3.9230  -14.9890 C.ar   82  TRP82       0.0191
     69  CZ3        4.2950   -5.3400  -13.9970 C.ar   82  TRP82       0.0001
     70  CH2        4.7970   -4.5800  -15.0650 C.ar   82  TRP82       0.0015
     71  N          1.8020   -2.5710  -11.1490 N.3    85  GLN85      -0.1245
     72  CA         0.7960   -3.6280  -10.9100 C.3    85  GLN85       0.1566
     73  C          0.9640   -4.2430   -9.5190 C.2    85  GLN85       0.2260
     74  O          0.9500   -5.4660   -9.3440 O.2    85  GLN85      -0.2867
     75  CB         0.8370   -4.7040  -12.0190 C.3    85  GLN85       0.0367
     76  CG         0.3830   -4.1890  -13.3930 C.3    85  GLN85       0.0905
     77  CD         0.4160   -5.2470  -14.4890 C.2    85  GLN85       0.2608
     78  OE1        1.3690   -5.3180  -15.2650 O.2    85  GLN85      -0.2717
     79  NE2       -0.6340   -6.0740  -14.5640 N.am   85  GLN85      -0.0878
     80  N         11.9310   -7.0390  -10.3300 N.3   129  ASN129     -0.1225
     81  CA        11.6920   -6.6770  -11.7310 C.3   129  ASN129      0.1785
     82  C         11.8940   -5.1810  -11.9100 C.2   129  ASN129      0.2597
     83  O         11.2620   -4.3840  -11.2110 O.2   129  ASN129     -0.2718
     84  CB        10.2410   -7.0310  -12.1180 C.3   129  ASN129      0.1169
     85  CG        10.0490   -7.2270  -13.6190 C.2   129  ASN129      0.2627
     86  OD1       10.8240   -7.9300  -14.2760 O.2   129  ASN129     -0.2716
     87  ND2        8.9930   -6.6330  -14.1640 N.am  129  ASN129     -0.0877
     88  N         12.7760   -4.8060  -12.8340 N.am  130  ALA130     -0.1979
     89  CA        12.9320   -3.4110  -13.2530 C.3   130  ALA130      0.1597
     90  C         13.2440   -2.4450  -12.0960 C.2   130  ALA130      0.2287
     91  O         12.6390   -1.3810  -11.9920 O.2   130  ALA130     -0.2864
     92  CB        11.6960   -2.9520  -14.0290 C.3   130  ALA130      0.0319
     93  N         14.5170   -4.6380  -18.4650 N.3   175  TYR175     -0.1241
     94  CA        14.5080   -4.3190  -19.8950 C.3   175  TYR175      0.1605
     95  C         15.5950   -3.3040  -20.2240 C.2   175  TYR175      0.2264
     96  O         16.0770   -2.5970  -19.3350 O.2   175  TYR175     -0.2867
     97  CB        13.1500   -3.7400  -20.3080 C.3   175  TYR175      0.0534
     98  CG        12.7850   -2.4620  -19.5850 C.ar  175  TYR175     -0.0201
     99  CD1       12.1380   -2.4990  -18.3520 C.ar  175  TYR175     -0.0009
    100  CD2       13.0810   -1.2140  -20.1410 C.ar  175  TYR175     -0.0009
    101  CE1       11.7990   -1.3330  -17.6850 C.ar  175  TYR175      0.0417
    102  CE2       12.7480   -0.0400  -19.4820 C.ar  175  TYR175      0.0417
    103  CZ        12.1080   -0.1060  -18.2570 C.ar  175  TYR175      0.1957
    104  OH        11.7720    1.0490  -17.5980 O.3   175  TYR175     -0.2866
    105  N         14.9580   -8.8380  -20.6660 N.3   206  GLN206     -0.1245
    106  CA        13.5720   -8.8880  -21.1430 C.3   206  GLN206      0.1566
    107  C         13.4920   -8.9650  -22.6630 C.2   206  GLN206      0.2260
    108  O         12.6580   -9.6810  -23.1980 O.2   206  GLN206     -0.2867
    109  CB        12.7450   -7.7160  -20.6170 C.3   206  GLN206      0.0367
    110  CG        12.2920   -7.9170  -19.1820 C.3   206  GLN206      0.0905
    111  CD        11.4190   -6.7900  -18.6700 C.2   206  GLN206      0.2608
    112  OE1       10.8650   -6.0120  -19.4460 O.2   206  GLN206     -0.2717
    113  NE2       11.2830   -6.7050  -17.3580 N.am  206  GLN206     -0.0878
    114  N         12.7520   -6.6080  -25.0220 N.3   208  HIS208     -0.1241
    115  CA        11.6810   -5.9060  -25.7110 C.3   208  HIS208      0.1621
    116  C         12.3280   -5.0600  -26.7700 C.2   208  HIS208      0.2264
    117  O         12.6830   -3.9070  -26.5420 O.2   208  HIS208     -0.2867
    118  CB        10.8050   -5.1060  -24.7450 C.3   208  HIS208      0.0745
    119  CG         9.8900   -5.9780  -23.9280 C.ar  208  HIS208      0.0817
    120  ND1        8.9430   -6.7780  -24.4990 N.ar  208  HIS208     -0.2268
    121  CD2        9.8100   -6.1920  -22.5750 C.ar  208  HIS208      0.1154
    122  CE1        8.2970   -7.4540  -23.5420 C.ar  208  HIS208      0.1986
    123  NE2        8.8180   -7.1070  -22.3660 N.ar  208  HIS208     -0.2212
    124  N         11.2970  -12.0790  -22.0170 N.3   238  GLU238     -0.1245
    125  CA        10.0860  -11.4810  -22.5970 C.3   238  GLU238      0.1567
    126  C         10.2850  -11.0640  -24.0620 C.2   238  GLU238      0.2260
    127  O          9.8370   -9.9960  -24.4810 O.2   238  GLU238     -0.2867
    128  CB         9.6110  -10.2880  -21.7480 C.3   238  GLU238      0.0388
    129  CG         9.6700  -10.5390  -20.2400 C.3   238  GLU238      0.1160
    130  CD         9.0300   -9.4490  -19.4060 C.2   238  GLU238      0.3649
    131  OE1        8.5800   -8.4310  -19.9670 O.co2 238  GLU238     -0.2457
    132  OE2        8.9680   -9.6230  -18.1720 O.co2 238  GLU238     -0.2457
    133  N          7.2610  -13.0960  -25.4180 N.3   288  TRP288     -0.1241
    134  CA         6.1950  -12.4600  -24.6510 C.3   288  TRP288      0.1605
    135  C          4.8680  -12.5400  -25.3720 C.2   288  TRP288      0.2264
    136  O          4.2260  -11.5340  -25.6670 O.2   288  TRP288     -0.2867
    137  CB         6.5580  -11.0240  -24.2710 C.3   288  TRP288      0.0550
    138  CG         5.9000  -10.5860  -22.9800 C.ar  288  TRP288      0.0003
    139  CD1        5.0450   -9.5140  -22.7950 C.ar  288  TRP288      0.0946
    140  CD2        6.0120  -11.2220  -21.6750 C.ar  288  TRP288      0.0152
    141  NE1        4.6400   -9.4390  -21.4840 N.ar  288  TRP288     -0.2442
    142  CE2        5.1970  -10.4540  -20.7680 C.ar  288  TRP288      0.0810
    143  CE3        6.7070  -12.3350  -21.1830 C.ar  288  TRP288      0.0012
    144  CZ2        5.0790  -10.7780  -19.4180 C.ar  288  TRP288      0.0191
    145  CZ3        6.5750  -12.6570  -19.8230 C.ar  288  TRP288      0.0001
    146  CH2        5.7750  -11.8850  -18.9650 C.ar  288  TRP288      0.0015
    147  N         -2.3890  -11.9530  -30.0890 N.3   294  HIS294     -0.1241
    148  CA        -2.4760  -11.3780  -28.7480 C.3   294  HIS294      0.1621
    149  C         -1.0970  -10.9460  -28.3400 C.2   294  HIS294      0.2264
    150  O         -0.2140  -11.7750  -28.1140 O.2   294  HIS294     -0.2867
    151  CB        -3.0380  -12.3800  -27.7310 C.3   294  HIS294      0.0745
    152  CG        -3.1200  -11.8350  -26.3250 C.ar  294  HIS294      0.0817
    153  ND1       -2.0500  -11.8290  -25.4740 N.ar  294  HIS294     -0.2268
    154  CD2       -4.1630  -11.2660  -25.6330 C.ar  294  HIS294      0.1154
    155  CE1       -2.4120  -11.2840  -24.3090 C.ar  294  HIS294      0.1986
    156  NE2       -3.6970  -10.9370  -24.3930 N.ar  294  HIS294     -0.2212
    157  N          0.8530   -7.5910  -26.0090 N.3   296  TRP296     -0.1241
    158  CA         0.7640   -6.3340  -25.2700 C.3   296  TRP296      0.1605
    159  C          1.2210   -5.1620  -26.1260 C.2   296  TRP296      0.2264
    160  O          0.8730   -4.0070  -25.8540 O.2   296  TRP296     -0.2867
    161  CB         1.5760   -6.4020  -23.9760 C.3   296  TRP296      0.0550
    162  CG         3.0560   -6.2270  -24.1820 C.ar  296  TRP296      0.0003
    163  CD1        3.8880   -6.9880  -24.9790 C.ar  296  TRP296      0.0946
    164  CD2        3.9050   -5.2220  -23.5740 C.ar  296  TRP296      0.0152
    165  NE1        5.1810   -6.5220  -24.9060 N.ar  296  TRP296     -0.2442
    166  CE2        5.2390   -5.4530  -24.0640 C.ar  296  TRP296      0.0810
    167  CE3        3.6850   -4.1700  -22.6820 C.ar  296  TRP296      0.0012
    168  CZ2        6.3180   -4.6590  -23.6820 C.ar  296  TRP296      0.0191
    169  CZ3        4.7690   -3.3770  -22.3090 C.ar  296  TRP296      0.0001
    170  CH2        6.0630   -3.6300  -22.7950 C.ar  296  TRP296      0.0015
@<TRIPOS>BOND
     1   147   148    1
     2   148   149    1
     3   148   151    1
     4   149   150    2
     5   151   152    1
     6   116   117    2
     7   116   115    1
     8   152   154   ar
     9   152   153   ar
    10   159   160    2
    11   159   158    1
    12   157   158    1
    13   115   114    1
    14   115   118    1
    15   136   135    2
    16   154   156   ar
    17   153   155   ar
    18   133   134    1
    19   135   134    1
    20   158   161    1
    21   163   165   ar
    22   163   162   ar
    23   165   166   ar
    24   118   119    1
    25   134   137    1
    26   120   119   ar
    27   120   122   ar
    28   127   126    2
    29   156   155   ar
    30   137   138    1
    31   162   161    1
    32   162   164   ar
    33   166   168   ar
    34   166   164   ar
    35   126   125    1
    36   119   121   ar
    37   168   170   ar
    38   164   167   ar
    39   122   123   ar
    40   108   107    2
    41   138   139   ar
    42   138   140   ar
    43   139   141   ar
    44   170   169   ar
    45   167   169   ar
    46   107   106    1
    47   125   124    1
    48   125   128    1
    49   121   123   ar
    50     9     7   ar
    51     8     7   ar
    52   128   129    1
    53   140   143   ar
    54   140   142   ar
    55     7     6    1
    56   141   142   ar
    57   143   145   ar
    58   106   105    1
    59   106   109    1
    60   142   144   ar
    61   109   110    1
    62     6     5    1
    63    97    94    1
    64    97    98    1
    65   129   130    1
    66    95    94    1
    67    95    96    2
    68   100    98   ar
    69   100   102   ar
    70   131   130   ar
    71    94    93    1
    72   145   146   ar
    73     5     2    1
    74    98    99   ar
    75   102   103   ar
    76   112   111    2
    77   144   146   ar
    78   130   132   ar
    79   110   111    1
    80   111   113   am
    81     2     1    1
    82     2     3    1
    83    17    15   am
    84    99   101   ar
    85   103   101   ar
    86   103   104    1
    87     3     4    2
    88     3    10   am
    89    15    16    2
    90    15    14    1
    91    10    11    1
    92    26    25    1
    93    14    11    1
    94    46    44    1
    95    11    12    1
    96    56    55   ar
    97    56    54   ar
    98    55    53   ar
    99    78    77    2
   100    54    52   ar
   101    45    44    1
   102    70    68   ar
   103    70    69   ar
   104    25    24    1
   105    68    66   ar
   106    53    52   ar
   107    52    51    1
   108    44    43    2
   109    79    77   am
   110    77    76    1
   111    12    13    2
   112    51    48    1
   113    86    85    2
   114    87    85   am
   115    92    89    1
   116    69    67   ar
   117    24    23    1
   118    66    65   ar
   119    66    64   ar
   120    85    84    1
   121    43    42    1
   122    65    63   ar
   123    76    75    1
   124    89    88    1
   125    89    90    1
   126    88    82   am
   127    67    64   ar
   128    48    47    1
   129    48    49    1
   130    23    22    1
   131    64    62   ar
   132    50    49    2
   133    34    33   ar
   134    42    41    1
   135    63    62   ar
   136    84    81    1
   137    90    91    2
   138    75    72    1
   139    41    40    1
   140    82    81    1
   141    82    83    2
   142    81    80    1
   143    62    61    1
   144    22    19    1
   145    33    35   ar
   146    33    32    1
   147    71    72    1
   148    18    19    1
   149    40    37    1
   150    72    73    1
   151    19    20    1
   152    32    31    1
   153    61    58    1
   154    37    36    1
   155    37    38    1
   156    73    74    2
   157    20    21    2
   158    58    59    1
   159    58    57    1
   160    36    29   am
   161    31    28    1
   162    59    60    2
   163    38    39    2
   164    29    28    1
   165    29    30    2
   166    28    27    1
