@<TRIPOS>MOLECULE
tmp/4l4tC00.pdb
 148 144 0 0 0
SMALL
GASTEIGER

@<TRIPOS>ATOM
      1  N       -137.5760   40.4460  114.4750 N.3     8  TYR8       -0.1241
      2  CA      -137.7490   41.0150  115.7890 C.3     8  TYR8        0.1605
      3  C       -137.3670   42.4760  115.6970 C.2     8  TYR8        0.2264
      4  O       -136.2700   42.8050  115.2260 O.2     8  TYR8       -0.2867
      5  CB      -136.8760   40.2810  116.8260 C.3     8  TYR8        0.0534
      6  CG      -137.2930   38.8600  117.1410 C.ar    8  TYR8       -0.0201
      7  CD1     -138.3870   38.6010  117.9640 C.ar    8  TYR8       -0.0009
      8  CD2     -136.4880   37.7830  116.7770 C.ar    8  TYR8       -0.0009
      9  CE1     -138.7390   37.3010  118.3150 C.ar    8  TYR8        0.0417
     10  CE2     -136.8330   36.4750  117.1130 C.ar    8  TYR8        0.0417
     11  CZ      -137.9610   36.2380  117.8820 C.ar    8  TYR8        0.1957
     12  OH      -138.2610   34.9530  118.2730 O.3     8  TYR8       -0.2866
     13  N       -137.1100   46.3430  117.7800 N.3    10  ARG10      -0.1245
     14  CA      -136.9230   47.0540  119.0420 C.3    10  ARG10       0.1563
     15  C       -137.1910   48.5260  118.8070 C.2    10  ARG10       0.2260
     16  O       -136.8970   49.0500  117.7320 O.2    10  ARG10      -0.2867
     17  CB      -135.5160   46.8820  119.6210 C.3    10  ARG10       0.0307
     18  CG      -135.2090   45.4800  120.0750 C.3    10  ARG10       0.0489
     19  CD      -133.8170   45.4170  120.6750 C.3    10  ARG10       0.2205
     20  NE      -133.4160   44.0240  120.8570 N.pl3  10  ARG10      -0.0865
     21  CZ      -132.1630   43.6060  120.9460 C.cat  10  ARG10       0.5346
     22  NH1     -131.1540   44.4770  120.8910 N.pl3  10  ARG10       0.1354
     23  NH2     -131.9010   42.3190  121.0700 N.pl3  10  ARG10       0.1354
     24  N       -140.3570   45.7380  122.2980 N.3    23  SER23      -0.1217
     25  CA      -139.7840   44.7810  121.3760 C.3    23  SER23       0.1889
     26  C       -140.8570   43.7930  120.9380 C.2    23  SER23       0.2288
     27  O       -141.5070   43.1590  121.7680 O.2    23  SER23      -0.2866
     28  CB      -138.5830   44.0800  121.9930 C.3    23  SER23       0.2089
     29  OG      -137.9170   43.3410  120.9810 O.3    23  SER23      -0.2183
     30  N       -144.6880   37.7490  119.4120 N.3    33  THR33      -0.1218
     31  CA      -144.1790   38.0170  120.7520 C.3    33  THR33       0.1862
     32  C       -144.2200   39.4960  121.0540 C.2    33  THR33       0.2287
     33  O       -144.1750   40.3090  120.1350 O.2    33  THR33      -0.2866
     34  CB      -142.7160   37.5170  120.8920 C.3    33  THR33       0.1770
     35  OG1     -141.8750   38.2870  120.0280 O.3    33  THR33      -0.2211
     36  CG2     -142.5420   36.0420  120.5660 C.3    33  THR33       0.0375
     37  N       -141.8720   39.0590  128.6090 N.3    42  LYS42      -0.1245
     38  CA      -142.0080   38.6490  127.2180 C.3    42  LYS42       0.1561
     39  C       -143.2120   37.7010  127.1580 C.2    42  LYS42       0.2260
     40  O       -143.2780   36.7250  127.9020 O.2    42  LYS42      -0.2867
     41  CB      -140.7540   38.0180  126.6150 C.3    42  LYS42       0.0271
     42  CG      -140.9050   37.8820  125.1040 C.3    42  LYS42       0.0035
     43  CD      -139.7160   37.2590  124.4450 C.3    42  LYS42       0.0206
     44  CE      -139.6890   37.5400  122.9640 C.3    42  LYS42       0.1093
     45  NZ      -138.5610   36.8570  122.2970 N.3    42  LYS42      -0.1314
     46  N       -139.4090   29.1180  127.9430 N.3    57  HIS57      -0.1241
     47  CA      -139.0590   29.9960  126.8260 C.3    57  HIS57       0.1621
     48  C       -139.3240   31.4410  127.2070 C.2    57  HIS57       0.2264
     49  O       -138.4380   32.2710  127.0610 O.2    57  HIS57      -0.2867
     50  CB      -139.8110   29.6160  125.5220 C.3    57  HIS57       0.0745
     51  CG      -139.5000   30.5430  124.3790 C.ar   57  HIS57       0.0817
     52  ND1     -138.4820   30.2680  123.4870 N.ar   57  HIS57      -0.2268
     53  CD2     -140.1070   31.6990  124.0090 C.ar   57  HIS57       0.1154
     54  CE1     -138.4760   31.2720  122.6240 C.ar   57  HIS57       0.1986
     55  NE2     -139.4570   32.1380  122.8790 N.ar   57  HIS57      -0.2212
     56  N       -136.4730   34.3260  127.9950 N.3    61  TYR61      -0.1241
     57  CA      -136.4350   35.5190  127.1270 C.3    61  TYR61       0.1605
     58  C       -136.8970   36.7730  127.8660 C.2    61  TYR61       0.2264
     59  O       -136.4960   37.8500  127.4650 O.2    61  TYR61      -0.2867
     60  CB      -137.1770   35.3180  125.7800 C.3    61  TYR61       0.0534
     61  CG      -136.2890   34.5710  124.8080 C.ar   61  TYR61      -0.0201
     62  CD1     -135.3160   35.2420  124.0660 C.ar   61  TYR61      -0.0009
     63  CD2     -136.2830   33.1770  124.7690 C.ar   61  TYR61      -0.0009
     64  CE1     -134.4430   34.5520  123.2180 C.ar   61  TYR61       0.0417
     65  CE2     -135.4050   32.4760  123.9350 C.ar   61  TYR61       0.0417
     66  CZ      -134.4560   33.1670  123.1960 C.ar   61  TYR61       0.1957
     67  OH      -133.5800   32.4880  122.3710 O.3    61  TYR61      -0.2866
     68  N       -134.5180   39.8950  127.5120 N.3    65  LEU65      -0.1245
     69  CA      -135.0550   41.1740  127.0680 C.3    65  LEU65       0.1561
     70  C       -134.9100   42.2930  128.1060 C.2    65  LEU65       0.2260
     71  O       -134.7390   43.4350  127.6970 O.2    65  LEU65      -0.2867
     72  CB      -136.4840   41.0490  126.5530 C.3    65  LEU65       0.0270
     73  CG      -136.4300   40.8050  125.0370 C.3    65  LEU65       0.0019
     74  CD1     -136.5230   39.3450  124.6740 C.3    65  LEU65       0.0001
     75  CD2     -137.3730   41.6300  124.3150 C.3    65  LEU65       0.0001
     76  N       -131.4570   43.2950  127.3150 N.3    68  TRP68      -0.1241
     77  CA      -131.4470   43.9490  126.0000 C.3    68  TRP68       0.1605
     78  C       -132.0500   45.3490  126.0640 C.2    68  TRP68       0.2264
     79  O       -131.5480   46.2470  125.3960 O.2    68  TRP68      -0.2867
     80  CB      -132.1430   43.0810  124.9480 C.3    68  TRP68       0.0550
     81  CG      -131.3550   41.8520  124.6200 C.ar   68  TRP68       0.0003
     82  CD1     -130.0400   41.6110  124.9140 C.ar   68  TRP68       0.0946
     83  CD2     -131.8440   40.6740  123.9660 C.ar   68  TRP68       0.0152
     84  NE1     -129.6740   40.3660  124.4600 N.ar   68  TRP68      -0.2442
     85  CE2     -130.7580   39.7740  123.8560 C.ar   68  TRP68       0.0810
     86  CE3     -133.0940   40.2950  123.4430 C.ar   68  TRP68       0.0012
     87  CZ2     -130.8890   38.5080  123.2500 C.ar   68  TRP68       0.0191
     88  CZ3     -133.2140   39.0620  122.8250 C.ar   68  TRP68       0.0001
     89  CH2     -132.1280   38.1760  122.7460 C.ar   68  TRP68       0.0015
     90  N       -134.2860   48.9660  115.9720 N.3    93  ARG93      -0.1245
     91  CA      -133.5660   47.8570  115.4040 C.3    93  ARG93       0.1563
     92  C       -134.5660   46.9020  114.7550 C.2    93  ARG93       0.2260
     93  O       -135.6750   46.7610  115.2390 O.2    93  ARG93      -0.2867
     94  CB      -132.7620   47.1690  116.5180 C.3    93  ARG93       0.0307
     95  CG      -132.0540   45.8890  116.1560 C.3    93  ARG93       0.0489
     96  CD      -131.9050   45.0810  117.4140 C.3    93  ARG93       0.2205
     97  NE      -130.5690   44.5290  117.5230 N.pl3  93  ARG93      -0.0865
     98  CZ      -130.2690   43.2400  117.5920 C.cat  93  ARG93       0.5346
     99  NH1     -131.2330   42.3230  117.6270 N.pl3  93  ARG93       0.1354
    100  NH2     -129.0070   42.8570  117.6670 N.pl3  93  ARG93       0.1354
    101  N       -134.1100   42.8430  113.1000 N.3    95  ILE95      -0.1245
    102  CA      -133.2860   41.6750  112.7980 C.3    95  ILE95       0.1561
    103  C       -134.1970   40.5800  112.2760 C.2    95  ILE95       0.2260
    104  O       -135.3140   40.4740  112.7460 O.2    95  ILE95      -0.2867
    105  CB      -132.4250   41.2120  114.0200 C.3    95  ILE95       0.0252
    106  CG1     -131.2630   40.3040  113.5520 C.3    95  ILE95       0.0019
    107  CG2     -133.2710   40.5740  115.1520 C.3    95  ILE95       0.0019
    108  CD1     -130.2030   39.8860  114.6250 C.3    95  ILE95       0.0001
    109  N       -120.7120   36.0180  115.0600 N.3   151  TYR151     -0.1241
    110  CA      -121.8870   35.5690  115.8060 C.3   151  TYR151      0.1605
    111  C       -123.1590   35.9810  115.0250 C.2   151  TYR151      0.2264
    112  O       -124.0350   35.1500  114.8430 O.2   151  TYR151     -0.2867
    113  CB      -121.9070   36.1290  117.2580 C.3   151  TYR151      0.0534
    114  CG      -123.3120   36.3360  117.8000 C.ar  151  TYR151     -0.0201
    115  CD1     -124.1330   35.2450  118.1050 C.ar  151  TYR151     -0.0009
    116  CD2     -123.8500   37.6180  117.9310 C.ar  151  TYR151     -0.0009
    117  CE1     -125.4440   35.4250  118.5540 C.ar  151  TYR151      0.0417
    118  CE2     -125.1710   37.8090  118.3620 C.ar  151  TYR151      0.0417
    119  CZ      -125.9750   36.7060  118.6360 C.ar  151  TYR151      0.1957
    120  OH      -127.2910   36.8640  119.0250 O.3   151  TYR151     -0.2866
    121  N       -126.0550   33.6820  113.3860 N.3   155  TRP155     -0.1241
    122  CA      -127.4150   33.7780  113.8920 C.3   155  TRP155      0.1605
    123  C       -128.3900   34.0000  112.7380 C.2   155  TRP155      0.2264
    124  O       -129.4060   33.3190  112.6600 O.2   155  TRP155     -0.2867
    125  CB      -127.5650   34.8960  114.9470 C.3   155  TRP155      0.0550
    126  CG      -128.8470   34.7390  115.6850 C.ar  155  TRP155      0.0003
    127  CD1     -129.0720   33.9400  116.7690 C.ar  155  TRP155      0.0946
    128  CD2     -130.1330   35.2640  115.2930 C.ar  155  TRP155      0.0152
    129  NE1     -130.4130   33.9490  117.0900 N.ar  155  TRP155     -0.2442
    130  CE2     -131.0900   34.7310  116.1850 C.ar  155  TRP155      0.0810
    131  CE3     -130.5680   36.1360  114.2640 C.ar  155  TRP155      0.0012
    132  CZ2     -132.4560   35.0690  116.1160 C.ar  155  TRP155      0.0191
    133  CZ3     -131.9250   36.4540  114.1840 C.ar  155  TRP155      0.0001
    134  CH2     -132.8480   35.9340  115.1120 C.ar  155  TRP155      0.0015
    135  N       -135.3120   28.8970  113.7390 N.3   163  TRP163     -0.1241
    136  CA      -136.4320   29.4520  114.5240 C.3   163  TRP163      0.1605
    137  C       -137.6660   29.6270  113.6200 C.2   163  TRP163      0.2264
    138  O       -138.7640   29.2310  114.0110 O.2   163  TRP163     -0.2867
    139  CB      -136.0810   30.8180  115.1710 C.3   163  TRP163      0.0550
    140  CG      -135.2550   30.7730  116.4340 C.ar  163  TRP163      0.0003
    141  CD1     -133.9900   31.2600  116.6110 C.ar  163  TRP163      0.0946
    142  CD2     -135.6560   30.2300  117.7000 C.ar  163  TRP163      0.0152
    143  NE1     -133.5790   31.0580  117.9220 N.ar  163  TRP163     -0.2442
    144  CE2     -134.5880   30.4390  118.6090 C.ar  163  TRP163      0.0810
    145  CE3     -136.8400   29.6190  118.1730 C.ar  163  TRP163      0.0012
    146  CZ2     -134.6590   30.0360  119.9520 C.ar  163  TRP163      0.0191
    147  CZ3     -136.8970   29.2100  119.4970 C.ar  163  TRP163      0.0001
    148  CH2     -135.8060   29.3930  120.3590 C.ar  163  TRP163      0.0015
@<TRIPOS>BOND
     1   103   104    2
     2   103   102    1
     3   124   123    2
     4   123   122    1
     5   102   101    1
     6   102   105    1
     7   121   122    1
     8   106   105    1
     9   106   108    1
    10   137   138    2
    11   137   136    1
    12   135   136    1
    13   122   125    1
    14   105   107    1
    15   133   131   ar
    16   133   134   ar
    17   131   128   ar
    18     1     2    1
    19   136   139    1
    20    92    93    2
    21    92    91    1
    22   112   111    2
    23   125   126    1
    24   111   110    1
    25   109   110    1
    26   134   132   ar
    27   139   140    1
    28     4     3    2
    29   128   126   ar
    30   128   130   ar
    31    91    90    1
    32    91    94    1
    33   126   127   ar
    34     3     2    1
    35     2     5    1
    36   110   113    1
    37   132   130   ar
    38    95    94    1
    39    95    96    1
    40   130   129   ar
    41   140   141   ar
    42   140   142   ar
    43   141   143   ar
    44   127   129   ar
    45     8    10   ar
    46     8     6   ar
    47     5     6    1
    48    10    11   ar
    49     6     7   ar
    50   113   114    1
    51    96    97    1
    52    97    98    2
    53    98    99    1
    54    98   100    1
    55   142   145   ar
    56   142   144   ar
    57    16    15    2
    58    13    14    1
    59   114   116   ar
    60   114   115   ar
    61    11    12    1
    62    11     9   ar
    63   143   144   ar
    64   116   118   ar
    65     7     9   ar
    66   115   117   ar
    67   145   147   ar
    68   118   119   ar
    69   117   119   ar
    70   144   146   ar
    71   119   120    1
    72    15    14    1
    73    14    17    1
    74    30    31    1
    75   147   148   ar
    76    17    18    1
    77   146   148   ar
    78    35    34    1
    79    18    19    1
    80    33    32    2
    81    36    34    1
    82    19    20    1
    83    31    34    1
    84    31    32    1
    85    20    21    2
    86    22    21    1
    87    26    25    1
    88    26    27    2
    89    21    23    1
    90    29    28    1
    91    25    28    1
    92    25    24    1
    93    45    44    1
    94    67    66    1
    95    54    55   ar
    96    54    52   ar
    97    89    88   ar
    98    89    87   ar
    99    88    86   ar
   100    55    53   ar
   101    44    43    1
   102    66    64   ar
   103    66    65   ar
   104    64    62   ar
   105    87    85   ar
   106    86    83   ar
   107    52    51   ar
   108    85    83   ar
   109    85    84   ar
   110    65    63   ar
   111    83    81   ar
   112    53    51   ar
   113    62    61   ar
   114    75    73    1
   115    51    50    1
   116    43    42    1
   117    84    82   ar
   118    81    82   ar
   119    81    80    1
   120    74    73    1
   121    63    61   ar
   122    61    60    1
   123    80    77    1
   124    73    72    1
   125    42    41    1
   126    79    78    2
   127    50    47    1
   128    60    57    1
   129    77    78    1
   130    77    76    1
   131    72    69    1
   132    41    38    1
   133    47    48    1
   134    47    46    1
   135    49    48    2
   136    69    68    1
   137    69    70    1
   138    57    58    1
   139    57    56    1
   140    39    38    1
   141    39    40    2
   142    38    37    1
   143    59    58    2
   144    71    70    2
