@<TRIPOS>MOLECULE
tmp/4l4zB00.pdb
 111 104 0 0 0
SMALL
GASTEIGER

@<TRIPOS>ATOM
      1  N        -39.8930   -4.0610   13.4250 N.3    57  PHE57      -0.1227
      2  CA       -39.9640   -4.5700   12.0260 C.3    57  PHE57       0.1736
      3  C        -40.9460   -5.7860   11.9950 C.2    57  PHE57       0.2596
      4  O        -41.0840   -6.4690   13.0250 O.2    57  PHE57      -0.2718
      5  CB       -38.5270   -5.0080   11.6460 C.3    57  PHE57       0.0547
      6  CG       -38.4130   -5.5690   10.2940 C.ar   57  PHE57      -0.0202
      7  CD1      -38.6030   -6.9040   10.0740 C.ar   57  PHE57      -0.0042
      8  CD2      -38.1460   -4.7360    9.2020 C.ar   57  PHE57      -0.0042
      9  CE1      -38.5390   -7.4210    8.7670 C.ar   57  PHE57      -0.0003
     10  CE2      -38.0710   -5.2400    7.9170 C.ar   57  PHE57      -0.0003
     11  CZ       -38.2690   -6.5850    7.6960 C.ar   57  PHE57      -0.0000
     12  N        -41.6200   -6.0420   10.8640 N.am   58  GLY58      -0.1942
     13  CA       -42.3610   -7.3080   10.6200 C.3    58  GLY58       0.2014
     14  C        -43.8770   -7.2360   10.5620 C.2    58  GLY58       0.2639
     15  O        -44.4370   -6.1560   10.6200 O.2    58  GLY58      -0.2714
     16  N        -44.5430   -8.3870   10.4810 N.am   59  GLU59      -0.1963
     17  CA       -45.9600   -8.4490   10.1560 C.3    59  GLU59       0.1733
     18  C        -46.8780   -8.0530   11.3280 C.2    59  GLU59       0.2616
     19  O        -47.8470   -7.3300   11.1350 O.2    59  GLU59      -0.2715
     20  CB       -46.3450   -9.8480    9.6010 C.3    59  GLU59       0.0429
     21  CG       -45.9180  -10.0260    8.1350 C.3    59  GLU59       0.1163
     22  CD       -45.5070  -11.4600    7.7450 C.2    59  GLU59       0.3649
     23  OE1      -46.3700  -12.3780    7.8050 O.co2  59  GLU59      -0.2457
     24  OE2      -44.3230  -11.6730    7.3430 O.co2  59  GLU59      -0.2457
     25  N        -46.5780   -8.5110   12.5370 N.am   60  ALA60      -0.1977
     26  CA       -47.4740   -8.2240   13.6590 C.3    60  ALA60       0.1597
     27  C        -47.4220   -6.7310   14.0160 C.2    60  ALA60       0.2287
     28  O        -48.4550   -6.1170   14.2370 O.2    60  ALA60      -0.2864
     29  CB       -47.1590   -9.1020   14.8460 C.3    60  ALA60       0.0319
     30  N        -32.1000   -2.5230    6.7890 N.3   109  LEU109     -0.1245
     31  CA       -32.1130   -3.2550    8.0500 C.3   109  LEU109      0.1561
     32  C        -30.6920   -3.7950    8.3420 C.2   109  LEU109      0.2260
     33  O        -30.1840   -3.7120    9.4510 O.2   109  LEU109     -0.2867
     34  CB       -33.1190   -4.4180    8.0290 C.3   109  LEU109      0.0270
     35  CG       -33.0560   -5.2770    9.3070 C.3   109  LEU109      0.0019
     36  CD1      -33.9430   -4.7210   10.4160 C.3   109  LEU109      0.0001
     37  CD2      -33.4260   -6.7290    9.0840 C.3   109  LEU109      0.0001
     38  N        -42.2950   -7.2540   17.2530 N.3   142  GLY142     -0.1210
     39  CA       -42.5740   -8.6540   17.0120 C.3   142  GLY142      0.1956
     40  C        -41.4710   -9.5180   17.5670 C.2   142  GLY142      0.2612
     41  O        -40.4290   -9.0330   17.9950 O.2   142  GLY142     -0.2717
     42  N        -41.7130  -10.8150   17.5440 N.am  143  ILE143     -0.1965
     43  CA       -40.7250  -11.8010   17.9680 C.3   143  ILE143      0.1727
     44  C        -40.6810  -12.9010   16.9430 C.2   143  ILE143      0.2616
     45  O        -41.7220  -13.5300   16.6250 O.2   143  ILE143     -0.2715
     46  CB       -41.0950  -12.4110   19.3320 C.3   143  ILE143      0.0290
     47  CG1      -41.2740  -11.2820   20.3750 C.3   143  ILE143      0.0022
     48  CG2      -40.0840  -13.4540   19.7680 C.3   143  ILE143      0.0023
     49  CD1      -41.8000  -11.8090   21.6580 C.3   143  ILE143      0.0001
     50  N        -39.4990  -13.1010   16.3940 N.am  144  GLY144     -0.1955
     51  CA       -39.2920  -14.1740   15.4450 C.3   144  GLY144      0.1869
     52  C        -38.7770  -15.4620   16.0630 C.2   144  GLY144      0.2309
     53  O        -38.1500  -15.4780   17.1360 O.2   144  GLY144     -0.2863
     54  N        -39.5650  -21.4970   13.1130 N.3   148  GLN148     -0.1245
     55  CA       -40.4330  -21.1730   11.9920 C.3   148  GLN148      0.1566
     56  C        -39.7560  -21.5490   10.6470 C.2   148  GLN148      0.2260
     57  O        -40.4060  -21.5780    9.5710 O.2   148  GLN148     -0.2867
     58  CB       -40.7250  -19.6500   11.9500 C.3   148  GLN148      0.0367
     59  CG       -41.6880  -19.1030   12.9920 C.3   148  GLN148      0.0905
     60  CD       -41.9460  -17.6210   12.7680 C.2   148  GLN148      0.2608
     61  OE1      -41.1190  -16.7590   13.1330 O.2   148  GLN148     -0.2717
     62  NE2      -43.0830  -17.3050   12.1450 N.am  148  GLN148     -0.0878
     63  N        -40.3620  -17.8280    8.5670 N.3   152  ALA152     -0.1231
     64  CA       -40.0300  -16.6680    9.3660 C.3   152  ALA152      0.1694
     65  C        -39.9550  -15.4870    8.4260 C.2   152  ALA152      0.2593
     66  O        -39.4270  -15.6100    7.3370 O.2   152  ALA152     -0.2718
     67  CB       -38.7020  -16.8430   10.0980 C.3   152  ALA152      0.0304
     68  N        -40.4570  -14.3460    8.8870 N.am  153  THR153     -0.1939
     69  CA       -40.3460  -13.0760    8.1590 C.3   153  THR153      0.2028
     70  C        -38.9430  -12.7200    7.7500 C.2   153  THR153      0.2642
     71  O        -38.7310  -12.1900    6.6930 O.2   153  THR153     -0.2714
     72  CB       -40.9560  -11.9220    8.9640 C.3   153  THR153      0.1808
     73  OG1      -42.2830  -12.3020    9.3570 O.3   153  THR153     -0.2208
     74  CG2      -41.0850  -10.7230    8.1220 C.3   153  THR153      0.0379
     75  N        -37.9730  -12.9930    8.5820 N.am  154  ILE154     -0.1977
     76  CA       -36.6010  -12.6630    8.2660 C.3   154  ILE154      0.1596
     77  C        -35.9910  -13.4840    7.0980 C.2   154  ILE154      0.2287
     78  O        -35.0390  -13.0350    6.4680 O.2   154  ILE154     -0.2864
     79  CB       -35.7570  -12.7520    9.5440 C.3   154  ILE154      0.0276
     80  CG1      -34.5290  -11.8960    9.4070 C.3   154  ILE154      0.0022
     81  CG2      -35.3920  -14.1910    9.8680 C.3   154  ILE154      0.0022
     82  CD1      -33.6780  -11.9330   10.6590 C.3   154  ILE154      0.0001
     83  N        -35.5240  -14.1380   17.8860 N.3   176  ASP176     -0.1239
     84  CA       -35.0070  -12.8180   17.7380 C.3   176  ASP176      0.1674
     85  C        -35.9750  -11.6690   17.9200 C.2   176  ASP176      0.2266
     86  O        -37.1530  -11.7800   17.6100 O.2   176  ASP176     -0.2867
     87  CB       -34.4130  -12.6710   16.3250 C.3   176  ASP176      0.1410
     88  CG       -35.4470  -12.1740   15.2740 C.2   176  ASP176      0.3668
     89  OD1      -36.1690  -13.0510   14.7240 O.co2 176  ASP176     -0.2456
     90  OD2      -35.5320  -10.9120   15.0280 O.co2 176  ASP176     -0.2456
     91  N        -35.8200   -7.7210   16.4330 N.3   178  LEU178     -0.1231
     92  CA       -35.1540   -6.7650   15.5560 C.3   178  LEU178      0.1693
     93  C        -33.9280   -7.3700   14.8460 C.2   178  LEU178      0.2592
     94  O        -33.0060   -6.6430   14.4440 O.2   178  LEU178     -0.2718
     95  CB       -34.7490   -5.5270   16.3350 C.3   178  LEU178      0.0284
     96  CG       -35.9280   -4.8530   17.0200 C.3   178  LEU178      0.0019
     97  CD1      -35.5240   -3.8380   18.0730 C.3   178  LEU178      0.0001
     98  CD2      -36.7750   -4.1810   15.9590 C.3   178  LEU178      0.0001
     99  N        -33.9340   -8.6900   14.6730 N.am  179  GLY179     -0.1957
    100  CA       -32.7990   -9.4080   14.0290 C.3   179  GLY179      0.1869
    101  C        -31.6690   -9.7930   14.9640 C.2   179  GLY179      0.2309
    102  O        -30.7210  -10.4020   14.5330 O.2   179  GLY179     -0.2863
    103  N        -43.7730  -20.1910   18.1450 N.3   221  LYS221     -0.1245
    104  CA       -43.0370  -19.0540   18.7140 C.3   221  LYS221      0.1561
    105  C        -42.9270  -19.1440   20.2230 C.2   221  LYS221      0.2260
    106  O        -42.2970  -18.2890   20.8480 O.2   221  LYS221     -0.2867
    107  CB       -43.6960  -17.7280   18.3280 C.3   221  LYS221      0.0271
    108  CG       -43.5690  -17.3730   16.8320 C.3   221  LYS221      0.0035
    109  CD       -43.9770  -15.9230   16.6390 C.3   221  LYS221      0.0206
    110  CE       -43.8450  -15.4510   15.2020 C.3   221  LYS221      0.1093
    111  NZ       -43.9210  -13.9540   15.1210 N.3   221  LYS221     -0.1314
@<TRIPOS>BOND
     1    78    77    2
     2    71    70    2
     3    30    31    1
     4    77    76    1
     5    66    65    2
     6    24    22   ar
     7    11    10   ar
     8    11     9   ar
     9    22    23   ar
    10    22    21    1
    11    70    69    1
    12    70    75   am
    13    10     8   ar
    14    34    31    1
    15    34    35    1
    16    31    32    1
    17    74    72    1
    18    21    20    1
    19    69    68    1
    20    69    72    1
    21    76    75    1
    22    76    79    1
    23    32    33    2
    24    65    68   am
    25    65    64    1
    26    63    64    1
    27     9     7   ar
    28    72    73    1
    29    37    35    1
    30     8     6   ar
    31    35    36    1
    32    64    67    1
    33    80    79    1
    34    80    82    1
    35    79    81    1
    36    57    56    2
    37    20    17    1
    38     7     6   ar
    39    17    16    1
    40    17    18    1
    41     6     5    1
    42    16    14   am
    43    14    15    2
    44    14    13    1
    45    13    12    1
    46    56    55    1
    47    12     3   am
    48    19    18    2
    49    18    25   am
    50     5     2    1
    51    58    55    1
    52    58    59    1
    53    55    54    1
    54     3     2    1
    55     3     4    2
    56     2     1    1
    57    62    60   am
    58    25    26    1
    59    60    59    1
    60    60    61    2
    61    26    27    1
    62    26    29    1
    63    27    28    2
    64   100    99    1
    65   100   101    1
    66    94    93    2
    67   102   101    2
    68    99    93   am
    69    89    88   ar
    70    93    92    1
    71    90    88   ar
    72   111   110    1
    73   110   109    1
    74    88    87    1
    75    51    52    1
    76    51    50    1
    77    92    95    1
    78    92    91    1
    79    98    96    1
    80    52    53    2
    81    87    84    1
    82    95    96    1
    83    50    44   am
    84    45    44    2
    85   109   108    1
    86   108   107    1
    87    44    43    1
    88    39    38    1
    89    39    40    1
    90    96    97    1
    91    42    40   am
    92    42    43    1
    93    40    41    2
    94    86    85    2
    95    84    83    1
    96    84    85    1
    97    43    46    1
    98   103   104    1
    99   107   104    1
   100   104   105    1
   101    46    48    1
   102    46    47    1
   103   105   106    2
   104    47    49    1
