@<TRIPOS>MOLECULE
tmp/4l50A00.pdb
 155 145 0 0 0
SMALL
GASTEIGER

@<TRIPOS>ATOM
      1  N        -39.9860   -4.7870   13.9530 N.3    55  PHE55      -0.1227
      2  CA       -40.0740   -5.3050   12.6100 C.3    55  PHE55       0.1736
      3  C        -41.0110   -6.5230   12.6630 C.2    55  PHE55       0.2596
      4  O        -41.1110   -7.2040   13.7000 O.2    55  PHE55      -0.2718
      5  CB       -38.6520   -5.7320   12.1870 C.3    55  PHE55       0.0547
      6  CG       -38.6130   -6.3170   10.8240 C.ar   55  PHE55      -0.0202
      7  CD1      -38.3420   -5.5260    9.7360 C.ar   55  PHE55      -0.0042
      8  CD2      -38.9500   -7.6440   10.6130 C.ar   55  PHE55      -0.0042
      9  CE1      -38.3420   -6.0410    8.4410 C.ar   55  PHE55      -0.0003
     10  CE2      -38.9450   -8.1880    9.3110 C.ar   55  PHE55      -0.0003
     11  CZ       -38.6480   -7.3790    8.2200 C.ar   55  PHE55      -0.0000
     12  N        -41.6950   -6.7960   11.5530 N.am   56  GLY56      -0.1942
     13  CA       -42.3760   -8.0580   11.3230 C.3    56  GLY56       0.2014
     14  C        -43.8710   -8.1020   11.2620 C.2    56  GLY56       0.2639
     15  O        -44.5220   -7.0720   11.2480 O.2    56  GLY56      -0.2714
     16  N        -44.4420   -9.3050   11.2400 N.am   57  GLU57      -0.1963
     17  CA       -45.8630   -9.3940   10.8710 C.3    57  GLU57       0.1733
     18  C        -46.7230   -8.9140   12.0230 C.2    57  GLU57       0.2616
     19  O        -47.6350   -8.1370   11.8230 O.2    57  GLU57      -0.2715
     20  CB       -46.3810  -10.8160   10.5600 C.3    57  GLU57       0.0429
     21  CG       -45.4700  -11.8500    9.9560 C.3    57  GLU57       0.1163
     22  CD       -45.1210  -11.6270    8.5000 C.2    57  GLU57       0.3649
     23  OE1      -45.8220  -10.8150    7.8260 O.co2  57  GLU57      -0.2457
     24  OE2      -44.1230  -12.2820    8.0570 O.co2  57  GLU57      -0.2457
     25  N        -46.4860   -9.4340   13.2310 N.am   58  ALA58      -0.1977
     26  CA       -47.3840   -9.0430   14.3520 C.3    58  ALA58       0.1597
     27  C        -47.2970   -7.5390   14.6790 C.2    58  ALA58       0.2287
     28  O        -48.3340   -6.9160   14.9900 O.2    58  ALA58      -0.2864
     29  CB       -47.0970   -9.8650   15.6150 C.3    58  ALA58       0.0319
     30  N        -35.6610   -0.4940   14.1460 N.3    81  SER81      -0.1217
     31  CA       -34.7330   -1.0850   13.1700 C.3    81  SER81       0.1889
     32  C        -34.5610   -0.2670   11.9220 C.2    81  SER81       0.2288
     33  O        -35.4230    0.5220   11.5260 O.2    81  SER81      -0.2866
     34  CB       -35.2060   -2.4910   12.7650 C.3    81  SER81       0.2089
     35  OG       -36.1280   -2.4110   11.7010 O.3    81  SER81      -0.2183
     36  N        -31.6490   -2.5320    7.0760 N.3   107  LEU107     -0.1245
     37  CA       -31.7930   -3.2670    8.3200 C.3   107  LEU107      0.1561
     38  C        -30.4900   -3.9420    8.6970 C.2   107  LEU107      0.2260
     39  O        -30.0960   -3.9400    9.8820 O.2   107  LEU107     -0.2867
     40  CB       -32.9000   -4.3020    8.2140 C.3   107  LEU107      0.0270
     41  CG       -33.3280   -4.9560    9.5210 C.3   107  LEU107      0.0019
     42  CD1      -34.8380   -5.1290    9.5340 C.3   107  LEU107      0.0001
     43  CD2      -32.6280   -6.2900    9.6800 C.3   107  LEU107      0.0001
     44  N        -42.0330   -7.7910   17.8220 N.3   140  GLY140     -0.1210
     45  CA       -42.3920   -9.1820   17.6600 C.3   140  GLY140      0.1956
     46  C        -41.2800  -10.0420   18.2170 C.2   140  GLY140      0.2612
     47  O        -40.2810   -9.5220   18.7210 O.2   140  GLY140     -0.2717
     48  N        -41.4860  -11.3680   18.2030 N.am  141  ILE141     -0.1965
     49  CA       -40.5010  -12.3250   18.6360 C.3   141  ILE141      0.1727
     50  C        -40.3970  -13.4910   17.6250 C.2   141  ILE141      0.2616
     51  O        -41.3970  -14.1160   17.2660 O.2   141  ILE141     -0.2715
     52  CB       -40.8050  -12.8900   20.0180 C.3   141  ILE141      0.0290
     53  CG1      -40.8320  -11.8030   21.0940 C.3   141  ILE141      0.0022
     54  CG2      -39.7700  -13.9270   20.4210 C.3   141  ILE141      0.0023
     55  CD1      -41.5330  -12.2650   22.3160 C.3   141  ILE141      0.0001
     56  N        -39.2000  -13.7200   17.1170 N.am  142  GLY142     -0.1955
     57  CA       -39.0010  -14.7660   16.1330 C.3   142  GLY142      0.1869
     58  C        -38.4400  -16.0020   16.8000 C.2   142  GLY142      0.2309
     59  O        -37.8580  -15.9320   17.9350 O.2   142  GLY142     -0.2863
     60  N        -39.2160  -22.0020   13.8780 N.3   146  GLN146     -0.1245
     61  CA       -40.1350  -21.7580   12.7820 C.3   146  GLN146      0.1566
     62  C        -39.4830  -22.1100   11.4410 C.2   146  GLN146      0.2260
     63  O        -40.1800  -22.1900   10.4370 O.2   146  GLN146     -0.2867
     64  CB       -40.5430  -20.2900   12.7330 C.3   146  GLN146      0.0367
     65  CG       -41.4070  -19.7870   13.8790 C.3   146  GLN146      0.0905
     66  CD       -41.6380  -18.3040   13.6920 C.2   146  GLN146      0.2608
     67  OE1      -40.8290  -17.4790   14.0370 O.2   146  GLN146     -0.2717
     68  NE2      -42.7420  -17.9810   13.1190 N.am  146  GLN146     -0.0878
     69  N        -40.2720  -15.0400    9.7090 N.3   151  THR151     -0.1203
     70  CA       -40.2470  -13.8070    8.9060 C.3   151  THR151      0.1994
     71  C        -38.8190  -13.4540    8.4870 C.2   151  THR151      0.2617
     72  O        -38.5830  -12.9520    7.4020 O.2   151  THR151     -0.2717
     73  CB       -40.8220  -12.6190    9.7070 C.3   151  THR151      0.1784
     74  OG1      -42.1100  -13.0090   10.2040 O.3   151  THR151     -0.2211
     75  CG2      -40.9500  -11.4250    8.8180 C.3   151  THR151      0.0376
     76  N        -37.8510  -13.7180    9.3490 N.am  152  ILE152     -0.1979
     77  CA       -36.4650  -13.3220    9.0630 C.3   152  ILE152      0.1595
     78  C        -35.9070  -14.0420    7.8090 C.2   152  ILE152      0.2287
     79  O        -35.0460  -13.4780    7.1310 O.2   152  ILE152     -0.2864
     80  CB       -35.5700  -13.4150   10.3200 C.3   152  ILE152      0.0276
     81  CG1      -34.2730  -12.6710   10.0970 C.3   152  ILE152      0.0022
     82  CG2      -35.2050  -14.8620   10.7470 C.3   152  ILE152      0.0022
     83  CD1      -33.4060  -12.6130   11.3440 C.3   152  ILE152      0.0001
     84  N        -33.4710  -11.7590    5.3390 N.3   157  TYR157     -0.1241
     85  CA       -32.4770  -11.0980    6.1540 C.3   157  TYR157      0.1605
     86  C        -31.4380  -12.0400    6.6530 C.2   157  TYR157      0.2264
     87  O        -30.3510  -11.5950    7.0180 O.2   157  TYR157     -0.2867
     88  CB       -33.1390  -10.2860    7.2930 C.3   157  TYR157      0.0534
     89  CG       -33.6470   -8.9640    6.7410 C.ar  157  TYR157     -0.0201
     90  CD1      -34.9960   -8.6270    6.7390 C.ar  157  TYR157     -0.0009
     91  CD2      -32.7590   -8.0910    6.1130 C.ar  157  TYR157     -0.0009
     92  CE1      -35.4530   -7.4450    6.1830 C.ar  157  TYR157      0.0417
     93  CE2      -33.2210   -6.9040    5.5680 C.ar  157  TYR157      0.0417
     94  CZ       -34.5500   -6.6010    5.6070 C.ar  157  TYR157      0.1957
     95  OH       -34.8750   -5.3990    5.0580 O.3   157  TYR157     -0.2866
     96  N        -35.2620  -14.5940   18.5470 N.3   174  ASP174     -0.1225
     97  CA       -34.6480  -13.3090   18.3250 C.3   174  ASP174      0.1805
     98  C        -35.6640  -12.2040   18.4930 C.2   174  ASP174      0.2598
     99  O        -36.8580  -12.4240   18.3120 O.2   174  ASP174     -0.2718
    100  CB       -34.1150  -13.1680   16.8910 C.3   174  ASP174      0.1424
    101  CG       -35.2330  -12.7210   15.9010 C.2   174  ASP174      0.3668
    102  OD1      -35.4100  -11.4680   15.7220 O.co2 174  ASP174     -0.2456
    103  OD2      -35.9860  -13.5910   15.3540 O.co2 174  ASP174     -0.2456
    104  N        -35.1640  -11.0170   18.8460 N.am  175  ILE175     -0.1966
    105  CA       -35.9250   -9.7780   18.7800 C.3   175  ILE175      0.1727
    106  C        -35.0110   -8.8510   17.9940 C.2   175  ILE175      0.2616
    107  O        -33.8680   -8.7430   18.3120 O.2   175  ILE175     -0.2715
    108  CB       -36.1790   -9.2220   20.2050 C.3   175  ILE175      0.0290
    109  CG1      -37.2230  -10.0740   20.9050 C.3   175  ILE175      0.0022
    110  CG2      -36.6380   -7.7720   20.1710 C.3   175  ILE175      0.0023
    111  CD1      -37.4410   -9.7330   22.3600 C.3   175  ILE175      0.0001
    112  N        -35.5620   -8.1490   17.0190 N.am  176  LEU176     -0.1963
    113  CA       -34.9000   -7.1650   16.1570 C.3   176  LEU176      0.1728
    114  C        -33.6500   -7.7090   15.4120 C.2   176  LEU176      0.2616
    115  O        -32.8260   -6.9160   14.9240 O.2   176  LEU176     -0.2715
    116  CB       -34.5950   -5.9080   16.9220 C.3   176  LEU176      0.0311
    117  CG       -35.7720   -5.1760   17.5890 C.3   176  LEU176      0.0022
    118  CD1      -35.2910   -4.1390   18.5870 C.3   176  LEU176      0.0001
    119  CD2      -36.5900   -4.4750   16.5890 C.3   176  LEU176      0.0001
    120  N        -33.5780   -9.0440   15.2540 N.am  177  GLY177     -0.1955
    121  CA       -32.4940   -9.7080   14.5510 C.3   177  GLY177      0.1869
    122  C        -31.4460  -10.2050   15.4980 C.2   177  GLY177      0.2309
    123  O        -30.4910  -10.8730   15.0840 O.2   177  GLY177     -0.2863
    124  N        -24.7260  -11.7530   12.1440 N.3   192  ILE192     -0.1245
    125  CA       -25.7160  -10.7470   11.8790 C.3   192  ILE192      0.1561
    126  C        -25.7420   -9.7280   12.9680 C.2   192  ILE192      0.2260
    127  O        -25.9780   -8.5710   12.6660 O.2   192  ILE192     -0.2867
    128  CB       -27.0990  -11.3220   11.5530 C.3   192  ILE192      0.0252
    129  CG1      -28.0650  -10.2070   11.2330 C.3   192  ILE192      0.0019
    130  CG2      -27.6730  -12.1830   12.6410 C.3   192  ILE192      0.0019
    131  CD1      -29.4950  -10.6770   11.0950 C.3   192  ILE192      0.0001
    132  N        -26.2750   -5.5150   12.0930 N.3   196  LEU196     -0.1245
    133  CA       -27.5340   -4.8220   12.2230 C.3   196  LEU196      0.1561
    134  C        -27.3380   -3.3110   12.5630 C.2   196  LEU196      0.2260
    135  O        -26.5260   -2.9490   13.4250 O.2   196  LEU196     -0.2867
    136  CB       -28.3920   -5.4670   13.3170 C.3   196  LEU196      0.0270
    137  CG       -28.9170   -6.8690   13.0290 C.3   196  LEU196      0.0019
    138  CD1      -29.3660   -7.5270   14.3460 C.3   196  LEU196      0.0001
    139  CD2      -30.0670   -6.8600   12.0280 C.3   196  LEU196      0.0001
    140  N        -45.4300   -8.9880   21.0680 N.3   213  VAL213     -0.1245
    141  CA       -46.6850   -9.5020   20.5360 C.3   213  VAL213      0.1561
    142  C        -46.3210  -10.6740   19.6690 C.2   213  VAL213      0.2260
    143  O        -45.6100  -10.5230   18.6880 O.2   213  VAL213     -0.2867
    144  CB       -47.5470   -8.4640   19.8210 C.3   213  VAL213      0.0252
    145  CG1      -46.8410   -7.7680   18.6990 C.3   213  VAL213      0.0019
    146  CG2      -48.7770   -9.1070   19.2450 C.3   213  VAL213      0.0019
    147  N        -43.3680  -20.8250   19.0970 N.3   219  LYS219     -0.1245
    148  CA       -42.6240  -19.6540   19.5630 C.3   219  LYS219      0.1561
    149  C        -42.4620  -19.6730   21.0680 C.2   219  LYS219      0.2260
    150  O        -41.7560  -18.8250   21.6080 O.2   219  LYS219     -0.2867
    151  CB       -43.2890  -18.3370   19.1270 C.3   219  LYS219      0.0271
    152  CG       -43.1410  -17.9940   17.6320 C.3   219  LYS219      0.0035
    153  CD       -43.5740  -16.5620   17.3780 C.3   219  LYS219      0.0206
    154  CE       -43.5570  -16.1780   15.9240 C.3   219  LYS219      0.1093
    155  NZ       -43.7010  -14.6860   15.7670 N.3   219  LYS219     -0.1314
@<TRIPOS>BOND
     1    95    94    1
     2    84    85    1
     3    93    94   ar
     4    93    91   ar
     5    94    92   ar
     6    91    89   ar
     7    85    86    1
     8    85    88    1
     9    92    90   ar
    10    86    87    2
    11    90    89   ar
    12    89    88    1
    13    36    37    1
    14    79    78    2
    15    72    71    2
    16    78    77    1
    17    23    22   ar
    18    24    22   ar
    19    40    37    1
    20    40    41    1
    21    11     9   ar
    22    11    10   ar
    23    37    38    1
    24     9     7   ar
    25    71    70    1
    26    71    76   am
    27    22    21    1
    28    38    39    2
    29    75    73    1
    30    70    73    1
    31    70    69    1
    32    77    76    1
    33    77    80    1
    34    10     8   ar
    35    41    42    1
    36    41    43    1
    37    73    74    1
    38     7     6   ar
    39    21    20    1
    40    81    80    1
    41    81    83    1
    42    80    82    1
    43    63    62    2
    44    20    17    1
    45     8     6   ar
    46     6     5    1
    47    17    16    1
    48    17    18    1
    49   131   129    1
    50   129   128    1
    51    16    14   am
    52    15    14    2
    53    14    13    1
    54    13    12    1
    55    62    61    1
    56    33    32    2
    57   128   125    1
    58   128   130    1
    59    12     3   am
    60    35    34    1
    61    19    18    2
    62   125   124    1
    63   125   126    1
    64    32    31    1
    65    18    25   am
    66   139   137    1
    67   132   133    1
    68     5     2    1
    69   133   134    1
    70   133   136    1
    71   134   135    2
    72     2     3    1
    73     2     1    1
    74     3     4    2
    75   127   126    2
    76    64    61    1
    77    64    65    1
    78    34    31    1
    79    61    60    1
    80   137   136    1
    81   137   138    1
    82    68    66   am
    83    31    30    1
    84    25    26    1
    85    66    65    1
    86    66    67    2
    87    26    27    1
    88    26    29    1
    89   121   120    1
    90   121   122    1
    91    27    28    2
    92   115   114    2
    93   123   122    2
    94   120   114   am
    95   103   101   ar
    96   114   113    1
    97   102   101   ar
    98   155   154    1
    99   101   100    1
   100   154   153    1
   101    57    58    1
   102    57    56    1
   103   113   116    1
   104   113   112    1
   105   119   117    1
   106    58    59    2
   107   100    97    1
   108   116   117    1
   109   112   106   am
   110    56    50   am
   111    51    50    2
   112   153   152    1
   113   117   118    1
   114    50    49    1
   115   152   151    1
   116    45    44    1
   117    45    46    1
   118   106   107    2
   119   106   105    1
   120    48    46   am
   121    48    49    1
   122    46    47    2
   123    99    98    2
   124    97    98    1
   125    97    96    1
   126    98   104   am
   127    49    52    1
   128   143   142    2
   129   145   144    1
   130   105   104    1
   131   105   108    1
   132   147   148    1
   133   151   148    1
   134   146   144    1
   135   148   149    1
   136   142   141    1
   137   144   141    1
   138    52    54    1
   139    52    53    1
   140   110   108    1
   141   108   109    1
   142   141   140    1
   143   109   111    1
   144   149   150    2
   145    53    55    1
