@<TRIPOS>MOLECULE
tmp/4l52A00.pdb
 174 164 0 0 0
SMALL
GASTEIGER

@<TRIPOS>ATOM
      1  N        -22.0900  -54.8710  -10.5410 N.3    15  GLU15      -0.1245
      2  CA       -21.8840  -55.6900  -11.7450 C.3    15  GLU15       0.1567
      3  C        -20.5300  -55.4860  -12.4440 C.2    15  GLU15       0.2260
      4  O        -19.9240  -54.4100  -12.3870 O.2    15  GLU15      -0.2867
      5  CB       -23.0360  -55.4980  -12.7510 C.3    15  GLU15       0.0388
      6  CG       -22.9780  -54.2380  -13.6230 C.3    15  GLU15       0.1160
      7  CD       -23.5190  -52.9820  -12.9480 C.2    15  GLU15       0.3649
      8  OE1      -23.5280  -52.9130  -11.7040 O.co2  15  GLU15      -0.2457
      9  OE2      -23.9260  -52.0480  -13.6740 O.co2  15  GLU15      -0.2457
     10  N        -17.9740  -54.8260  -15.3020 N.3    17  VAL17      -0.1231
     11  CA       -17.9720  -53.9260  -16.4400 C.3    17  VAL17       0.1696
     12  C        -16.7480  -54.1240  -17.3510 C.2    17  VAL17       0.2632
     13  O        -16.7410  -53.6240  -18.4750 O.2    17  VAL17      -0.2714
     14  CB       -18.0740  -52.4450  -15.9790 C.3    17  VAL17       0.0266
     15  CG1      -19.3930  -52.1970  -15.2650 C.3    17  VAL17       0.0020
     16  CG2      -16.9020  -52.0520  -15.0880 C.3    17  VAL17       0.0020
     17  N        -15.7310  -54.8530  -16.8860 N.am   18  GLY18      -0.1718
     18  CA       -14.5000  -55.0260  -17.6540 C.2    18  GLY18       0.1480
     19  C        -13.5820  -56.1350  -17.1730 C.2    18  GLY18       0.2820
     20  O        -13.7290  -56.6480  -16.0540 O.2    18  GLY18      -0.2669
     21  N        -12.6470  -56.5130  -18.0450 N.am   19  ARG19      -0.1929
     22  CA       -11.5820  -57.4700  -17.7330 C.3    19  ARG19       0.1732
     23  C        -10.3630  -57.1310  -18.5720 C.2    19  ARG19       0.2616
     24  O        -10.3950  -57.2640  -19.7910 O.2    19  ARG19      -0.2715
     25  CB       -12.0050  -58.9080  -18.0290 C.3    19  ARG19       0.0348
     26  CG       -12.8160  -59.5410  -16.9300 C.3    19  ARG19       0.0492
     27  CD       -12.7370  -61.0600  -16.9730 C.3    19  ARG19       0.2205
     28  NE       -13.6630  -61.6580  -16.0150 N.pl3  19  ARG19      -0.0865
     29  CZ       -14.9790  -61.7660  -16.1980 C.cat  19  ARG19       0.5346
     30  NH1      -15.7290  -62.3240  -15.2570 N.pl3  19  ARG19       0.1354
     31  NH2      -15.5580  -61.3200  -17.3120 N.pl3  19  ARG19       0.1354
     32  N         -9.2920  -56.6940  -17.9180 N.am   20  GLY20      -0.1955
     33  CA        -8.0690  -56.3080  -18.6170 C.3    20  GLY20       0.1869
     34  C         -7.1270  -57.4800  -18.8160 C.2    20  GLY20       0.2309
     35  O         -7.5670  -58.6200  -18.9750 O.2    20  GLY20      -0.2863
     36  N        -12.8790  -55.8630  -13.4870 N.3    25  VAL25      -0.1245
     37  CA       -13.2920  -54.5340  -13.0350 C.3    25  VAL25       0.1561
     38  C        -14.8000  -54.5000  -12.8190 C.2    25  VAL25       0.2260
     39  O        -15.5600  -55.0640  -13.6060 O.2    25  VAL25      -0.2867
     40  CB       -12.8860  -53.4510  -14.0350 C.3    25  VAL25       0.0252
     41  CG1      -13.1700  -52.0540  -13.4650 C.3    25  VAL25       0.0019
     42  CG2      -11.4080  -53.6000  -14.3930 C.3    25  VAL25       0.0019
     43  N        -15.0740  -47.3700   -9.9450 N.3    36  ALA36      -0.1245
     44  CA       -14.6680  -48.6260  -10.5620 C.3    36  ALA36       0.1562
     45  C        -13.5910  -49.2600   -9.6880 C.2    36  ALA36       0.2260
     46  O        -12.7450  -48.5530   -9.1500 O.2    36  ALA36      -0.2867
     47  CB       -14.1340  -48.3890  -11.9620 C.3    36  ALA36       0.0290
     48  N        -10.8710  -52.8500   -9.6220 N.3    38  LYS38      -0.1245
     49  CA       -10.4510  -54.1560  -10.1080 C.3    38  LYS38       0.1561
     50  C         -9.9480  -55.0200   -8.9500 C.2    38  LYS38       0.2260
     51  O         -9.3100  -54.5290   -8.0180 O.2    38  LYS38      -0.2867
     52  CB        -9.4540  -54.0660  -11.2760 C.3    38  LYS38       0.0271
     53  CG        -8.0600  -53.6350  -10.9460 C.3    38  LYS38       0.0035
     54  CD        -7.1740  -53.5850  -12.2000 C.3    38  LYS38       0.0206
     55  CE        -6.9220  -54.9600  -12.7860 C.3    38  LYS38       0.1093
     56  NZ        -5.6360  -55.0110  -13.5330 N.3    38  LYS38      -0.1314
     57  N          1.6130  -53.2580  -10.7010 N.3    52  GLU52      -0.1245
     58  CA         0.7500  -52.2250  -11.2720 C.3    52  GLU52       0.1567
     59  C          0.4680  -51.0730  -10.2920 C.2    52  GLU52       0.2260
     60  O          0.3810  -49.9230  -10.7130 O.2    52  GLU52      -0.2867
     61  CB        -0.5630  -52.8370  -11.7750 C.3    52  GLU52       0.0388
     62  CG        -1.4420  -51.8520  -12.5380 C.3    52  GLU52       0.1160
     63  CD        -2.6470  -52.4970  -13.2040 C.2    52  GLU52       0.3649
     64  OE1       -3.0040  -53.6390  -12.8250 O.co2  52  GLU52      -0.2457
     65  OE2       -3.2400  -51.8510  -14.1050 O.co2  52  GLU52      -0.2457
     66  N         -6.2320  -42.7100  -16.0780 N.3    65  VAL65      -0.1245
     67  CA        -7.3450  -42.9490  -15.1720 C.3    65  VAL65       0.1561
     68  C         -6.9540  -42.6520  -13.7170 C.2    65  VAL65       0.2260
     69  O         -5.9240  -43.1300  -13.2280 O.2    65  VAL65      -0.2867
     70  CB        -7.8840  -44.3810  -15.3410 C.3    65  VAL65       0.0252
     71  CG1       -6.8930  -45.4170  -14.8160 C.3    65  VAL65       0.0019
     72  CG2       -9.2330  -44.5200  -14.6850 C.3    65  VAL65       0.0019
     73  N        -10.7370  -46.8650   -8.7070 N.3    79  MET79      -0.1230
     74  CA       -10.6160  -45.8330   -9.7360 C.3    79  MET79       0.1702
     75  C        -11.8860  -45.0280   -9.9040 C.2    79  MET79       0.2592
     76  O        -12.9440  -45.3710   -9.3690 O.2    79  MET79      -0.2718
     77  CB       -10.3330  -46.4680  -11.0900 C.3    79  MET79       0.0401
     78  CG        -9.1340  -47.3680  -11.1120 C.3    79  MET79       0.0596
     79  SD        -9.2260  -48.4020  -12.5480 S.3    79  MET79      -0.1393
     80  CE       -10.5390  -49.5490  -12.1160 C.3    79  MET79       0.0692
     81  N        -11.7680  -43.9610  -10.6850 N.am   80  GLU80      -0.1966
     82  CA       -12.9230  -43.1910  -11.1170 C.3    80  GLU80       0.1733
     83  C        -13.7830  -44.0280  -12.0540 C.2    80  GLU80       0.2616
     84  O        -13.3060  -44.9600  -12.7040 O.2    80  GLU80      -0.2715
     85  CB       -12.4920  -41.8880  -11.8100 C.3    80  GLU80       0.0429
     86  CG       -11.6530  -42.0700  -13.0850 C.3    80  GLU80       0.1163
     87  CD       -11.2540  -40.7440  -13.7210 C.2    80  GLU80       0.3649
     88  OE1      -12.1510  -39.9560  -14.1010 O.co2  80  GLU80      -0.2457
     89  OE2      -10.0400  -40.4960  -13.8460 O.co2  80  GLU80      -0.2457
     90  N        -15.0610  -43.6850  -12.1080 N.am   81  TYR81      -0.1960
     91  CA       -16.0030  -44.4070  -12.9340 C.3    81  TYR81       0.1771
     92  C        -16.2180  -43.6960  -14.2740 C.2    81  TYR81       0.2619
     93  O        -16.8170  -42.6170  -14.3410 O.2    81  TYR81      -0.2715
     94  CB       -17.3260  -44.5500  -12.1990 C.3    81  TYR81       0.0574
     95  CG       -18.3050  -45.3740  -12.9630 C.ar   81  TYR81      -0.0198
     96  CD1      -18.0930  -46.7270  -13.1360 C.ar   81  TYR81      -0.0009
     97  CD2      -19.4270  -44.8040  -13.5330 C.ar   81  TYR81      -0.0009
     98  CE1      -18.9750  -47.4990  -13.8460 C.ar   81  TYR81       0.0417
     99  CE2      -20.3240  -45.5710  -14.2460 C.ar   81  TYR81       0.0417
    100  CZ       -20.0900  -46.9200  -14.3980 C.ar   81  TYR81       0.1957
    101  OH       -20.9700  -47.7030  -15.0980 O.3    81  TYR81      -0.2866
    102  N        -15.7160  -44.3050  -15.3400 N.am   82  ALA82      -0.1963
    103  CA       -15.9310  -43.8000  -16.6840 C.3    82  ALA82       0.1728
    104  C        -17.3700  -44.0820  -17.0700 C.2    82  ALA82       0.2616
    105  O        -17.7150  -45.2100  -17.4240 O.2    82  ALA82      -0.2715
    106  CB       -14.9840  -44.4570  -17.6500 C.3    82  ALA82       0.0334
    107  N        -18.2070  -43.0480  -16.9850 N.am   83  GLU83      -0.1963
    108  CA       -19.6480  -43.1780  -17.2560 C.3    83  GLU83       0.1733
    109  C        -19.8490  -43.7040  -18.6740 C.2    83  GLU83       0.2617
    110  O        -20.7540  -44.5040  -18.9220 O.2    83  GLU83      -0.2715
    111  CB       -20.3970  -41.8400  -17.1100 C.3    83  GLU83       0.0429
    112  CG       -19.8110  -40.8080  -16.1180 C.3    83  GLU83       0.1163
    113  CD       -18.7050  -39.9300  -16.7380 C.2    83  GLU83       0.3649
    114  OE1      -17.5450  -40.0510  -16.2850 O.co2  83  GLU83      -0.2457
    115  OE2      -18.9890  -39.1330  -17.6740 O.co2  83  GLU83      -0.2457
    116  N        -18.9900  -43.2470  -19.5920 N.am   84  GLY84      -0.1940
    117  CA       -19.0530  -43.6360  -21.0060 C.3    84  GLY84       0.2014
    118  C        -18.5370  -45.0370  -21.2650 C.2    84  GLY84       0.2639
    119  O        -18.8390  -45.6680  -22.2970 O.2    84  GLY84      -0.2714
    120  N        -17.7530  -45.5350  -20.3160 N.am   85  GLY85      -0.1939
    121  CA       -17.1520  -46.8390  -20.4520 C.3    85  GLY85       0.2014
    122  C        -16.1000  -46.7450  -21.5270 C.2    85  GLY85       0.2639
    123  O        -15.5150  -45.7030  -21.7420 O.2    85  GLY85      -0.2714
    124  N        -15.9100  -47.8520  -22.2100 N.am   86  SER86      -0.1949
    125  CA       -14.8120  -48.0820  -23.1270 C.3    86  SER86       0.1924
    126  C        -14.9440  -47.2740  -24.4130 C.2    86  SER86       0.2314
    127  O        -16.0560  -47.0900  -24.9120 O.2    86  SER86      -0.2863
    128  CB       -14.8650  -49.5650  -23.4670 C.3    86  SER86       0.2116
    129  OG       -13.9140  -49.9000  -24.4370 O.3    86  SER86      -0.2180
    130  N        -16.5310  -49.5380  -26.8110 N.3    89  ASN89      -0.1240
    131  CA       -17.9730  -49.5960  -26.7050 C.3    89  ASN89       0.1653
    132  C        -18.6390  -48.4360  -27.4510 C.2    89  ASN89       0.2266
    133  O        -19.6490  -48.6080  -28.0970 O.2    89  ASN89      -0.2867
    134  CB       -18.3830  -49.5680  -25.2450 C.3    89  ASN89       0.1155
    135  CG       -19.7860  -50.0620  -25.0350 C.2    89  ASN89       0.2627
    136  OD1      -20.1230  -51.1670  -25.4540 O.2    89  ASN89      -0.2716
    137  ND2      -20.6170  -49.2540  -24.3770 N.am   89  ASN89      -0.0877
    138  N        -10.5100  -50.8760  -26.1110 N.3   135  PRO135     -0.2102
    139  CA       -10.9850  -51.4590  -24.8410 C.3   135  PRO135      0.1504
    140  C        -10.3040  -50.9440  -23.5630 C.2   135  PRO135      0.2575
    141  O        -10.9070  -51.0260  -22.4950 O.2   135  PRO135     -0.2718
    142  CB       -10.7170  -52.9590  -25.0220 C.3   135  PRO135      0.0282
    143  CG       -10.8070  -53.1710  -26.4830 C.3   135  PRO135      0.0208
    144  CD       -10.1640  -51.9310  -27.0800 C.3   135  PRO135      0.0893
    145  N         -9.0720  -50.4360  -23.6850 N.am  136  ASN136     -0.1975
    146  CA        -8.3060  -49.8400  -22.5670 C.3   136  ASN136      0.1688
    147  C         -8.4400  -48.3280  -22.4670 C.2   136  ASN136      0.2292
    148  O         -7.8870  -47.7360  -21.5630 O.2   136  ASN136     -0.2864
    149  CB        -6.8030  -50.1370  -22.7230 C.3   136  ASN136      0.1181
    150  CG        -6.4790  -51.5930  -22.5600 C.2   136  ASN136      0.2629
    151  OD1       -7.2800  -52.3620  -22.0220 O.2   136  ASN136     -0.2716
    152  ND2       -5.2930  -51.9880  -23.0040 N.am  136  ASN136     -0.0877
    153  N        -10.7830  -45.2790  -21.8220 N.3   138  LEU138     -0.1245
    154  CA       -12.0440  -44.9130  -21.1870 C.3   138  LEU138      0.1561
    155  C        -12.3850  -43.4660  -21.4280 C.2   138  LEU138      0.2260
    156  O        -11.5010  -42.6370  -21.4760 O.2   138  LEU138     -0.2867
    157  CB       -11.9320  -45.0880  -19.6900 C.3   138  LEU138      0.0270
    158  CG       -11.5080  -46.4440  -19.1700 C.3   138  LEU138      0.0019
    159  CD1      -11.4670  -46.3340  -17.6690 C.3   138  LEU138      0.0001
    160  CD2      -12.4640  -47.5400  -19.6200 C.3   138  LEU138      0.0001
    161  N         -5.9460  -46.7210  -19.2440 N.3   149  CYS149     -0.1221
    162  CA        -5.8360  -47.6420  -18.1120 C.3   149  CYS149      0.1808
    163  C         -5.2260  -48.9750  -18.5600 C.2   149  CYS149      0.2601
    164  O         -4.9520  -49.1410  -19.7250 O.2   149  CYS149     -0.2717
    165  CB        -7.2130  -47.8490  -17.4970 C.3   149  CYS149      0.0970
    166  SG        -8.3760  -48.6120  -18.5990 S.3   149  CYS149     -0.0800
    167  N         -4.9810  -49.9030  -17.6370 N.am  150  ASP150     -0.1973
    168  CA        -4.5040  -51.2630  -17.9910 C.3   150  ASP150      0.1709
    169  C         -3.0970  -51.3070  -18.6170 C.2   150  ASP150      0.2293
    170  O         -2.7870  -52.1870  -19.4260 O.2   150  ASP150     -0.2864
    171  CB        -5.5130  -51.9250  -18.9500 C.3   150  ASP150      0.1436
    172  CG        -5.3960  -53.4420  -18.9870 C.2   150  ASP150      0.3671
    173  OD1       -5.0790  -54.0580  -17.9490 O.co2 150  ASP150     -0.2456
    174  OD2       -5.6290  -54.0150  -20.0710 O.co2 150  ASP150     -0.2456
@<TRIPOS>BOND
     1   133   132    2
     2   132   131    1
     3   144   143    1
     4   144   138    1
     5   130   131    1
     6   131   134    1
     7   143   142    1
     8   138   139    1
     9   136   135    2
    10   134   135    1
    11   135   137   am
    12   142   139    1
    13   127   126    2
    14   139   140    1
    15   129   128    1
    16   126   125    1
    17   145   140   am
    18   145   146    1
    19   140   141    2
    20   128   125    1
    21   125   124    1
    22   152   150   am
    23   149   146    1
    24   149   150    1
    25   146   147    1
    26   150   151    2
    27   147   148    2
    28   119   118    2
    29   124   122   am
    30   153   154    1
    31   123   122    2
    32   122   121    1
    33   156   155    2
    34   155   154    1
    35   118   117    1
    36   118   120   am
    37   154   157    1
    38   117   116    1
    39   121   120    1
    40   174   172   ar
    41    24    23    2
    42   164   163    2
    43   157   158    1
    44   160   158    1
    45   116   109   am
    46   170   169    2
    47   161   162    1
    48   158   159    1
    49   172   171    1
    50   172   173   ar
    51    35    34    2
    52   171   168    1
    53   110   109    2
    54    34    33    1
    55   109   108    1
    56    33    32    1
    57   169   168    1
    58   166   165    1
    59    23    32   am
    60    23    22    1
    61   163   162    1
    62   163   167   am
    63    13    12    2
    64   162   165    1
    65    21    22    1
    66    21    19   am
    67    25    22    1
    68    25    26    1
    69   168   167    1
    70   115   113   ar
    71    18    19    1
    72    18    17    2
    73   106   103    1
    74   105   104    2
    75    12    17    1
    76    12    11    1
    77    31    29    1
    78   108   111    1
    79   108   107    1
    80    19    20    2
    81   111   112    1
    82   104   107   am
    83   104   103    1
    84    27    26    1
    85    27    28    1
    86   113   114   ar
    87   113   112    1
    88   103   102    1
    89    11    14    1
    90    11    10    1
    91    29    28    2
    92    29    30    1
    93    66    67    1
    94    14    15    1
    95    14    16    1
    96    70    67    1
    97    70    71    1
    98    70    72    1
    99   102    92   am
   100    67    68    1
   101   101   100    1
   102   100    99   ar
   103   100    98   ar
   104    42    40    1
   105    93    92    2
   106    92    91    1
   107    99    97   ar
   108    65    63   ar
   109    88    87   ar
   110    40    41    1
   111    40    37    1
   112    98    96   ar
   113    89    87   ar
   114    87    86    1
   115    68    69    2
   116     9     7   ar
   117     6     7    1
   118     6     5    1
   119    39    38    2
   120    97    95   ar
   121    56    55    1
   122    36    37    1
   123    63    64   ar
   124    63    62    1
   125    96    95   ar
   126    86    85    1
   127    37    38    1
   128    95    94    1
   129     7     8   ar
   130    91    94    1
   131    91    90    1
   132    55    54    1
   133     5     2    1
   134    84    83    2
   135    79    80    1
   136    79    78    1
   137    62    61    1
   138     3     4    2
   139     3     2    1
   140    54    53    1
   141    90    83   am
   142    83    82    1
   143    47    44    1
   144    85    82    1
   145    61    58    1
   146     2     1    1
   147    52    53    1
   148    52    49    1
   149    58    57    1
   150    58    59    1
   151    82    81    1
   152    78    77    1
   153    77    74    1
   154    60    59    2
   155    81    75   am
   156    44    43    1
   157    44    45    1
   158    49    48    1
   159    49    50    1
   160    75    74    1
   161    75    76    2
   162    74    73    1
   163    45    46    2
   164    50    51    2
