@<TRIPOS>MOLECULE
tmp/4l53A00.pdb
 183 172 0 0 0
SMALL
GASTEIGER

@<TRIPOS>ATOM
      1  N        -22.5130  -54.0520   -9.8180 N.3    15  GLU15      -0.1245
      2  CA       -22.3230  -55.0310  -10.9030 C.3    15  GLU15       0.1567
      3  C        -20.9220  -55.0040  -11.5280 C.2    15  GLU15       0.2260
      4  O        -20.2610  -53.9620  -11.5510 O.2    15  GLU15      -0.2867
      5  CB       -23.3940  -54.8480  -11.9980 C.3    15  GLU15       0.0388
      6  CG       -23.3210  -53.5430  -12.7990 C.3    15  GLU15       0.1160
      7  CD       -24.5380  -53.3510  -13.7090 C.2    15  GLU15       0.3649
      8  OE1      -25.0820  -54.3500  -14.2280 O.co2  15  GLU15      -0.2457
      9  OE2      -24.9420  -52.1850  -13.9060 O.co2  15  GLU15      -0.2457
     10  N        -18.4150  -54.8650  -14.5770 N.3    17  VAL17      -0.1231
     11  CA       -18.5520  -54.0320  -15.7800 C.3    17  VAL17       0.1692
     12  C        -17.3470  -54.0770  -16.7540 C.2    17  VAL17       0.2593
     13  O        -17.2860  -53.2800  -17.6940 O.2    17  VAL17      -0.2718
     14  CB       -18.8700  -52.5660  -15.3480 C.3    17  VAL17       0.0266
     15  CG1      -17.6020  -51.7950  -14.9860 C.3    17  VAL17       0.0020
     16  CG2      -19.6640  -51.8390  -16.4210 C.3    17  VAL17       0.0020
     17  N        -16.4180  -55.0140  -16.5640 N.am   18  GLY18      -0.1942
     18  CA       -15.1980  -55.0690  -17.3810 C.3    18  GLY18       0.2014
     19  C        -14.1290  -56.0120  -16.8460 C.2    18  GLY18       0.2639
     20  O        -14.1690  -56.4170  -15.6780 O.2    18  GLY18      -0.2714
     21  N        -13.1640  -56.3450  -17.7060 N.am   19  ARG19      -0.1963
     22  CA       -12.1380  -57.3490  -17.3980 C.3    19  ARG19       0.1729
     23  C        -10.8480  -57.0840  -18.1850 C.2    19  ARG19       0.2616
     24  O        -10.8160  -57.2430  -19.4110 O.2    19  ARG19      -0.2715
     25  CB       -12.6850  -58.7440  -17.7140 C.3    19  ARG19       0.0348
     26  CG       -11.9390  -59.8810  -17.0450 C.3    19  ARG19       0.0492
     27  CD       -12.5540  -61.2290  -17.4110 C.3    19  ARG19       0.2205
     28  NE       -13.9510  -61.3510  -16.9780 N.pl3  19  ARG19      -0.0865
     29  CZ       -14.3640  -61.5930  -15.7290 C.cat  19  ARG19       0.5346
     30  NH1      -13.4990  -61.7480  -14.7230 N.pl3  19  ARG19       0.1354
     31  NH2      -15.6700  -61.6800  -15.4810 N.pl3  19  ARG19       0.1354
     32  N         -9.7930  -56.6790  -17.4720 N.am   20  GLY20      -0.1955
     33  CA        -8.5140  -56.3070  -18.0880 C.3    20  GLY20       0.1869
     34  C         -7.5750  -57.4780  -18.3390 C.2    20  GLY20       0.2309
     35  O         -8.0120  -58.6280  -18.4380 O.2    20  GLY20      -0.2863
     36  N        -12.9160  -55.7300  -13.1720 N.3    25  VAL25      -0.1245
     37  CA       -13.3380  -54.3690  -12.8220 C.3    25  VAL25       0.1561
     38  C        -14.8520  -54.3200  -12.6110 C.2    25  VAL25       0.2260
     39  O        -15.6060  -54.8670  -13.4170 O.2    25  VAL25      -0.2867
     40  CB       -12.9350  -53.3520  -13.9170 C.3    25  VAL25       0.0252
     41  CG1      -13.3210  -51.9210  -13.5050 C.3    25  VAL25       0.0019
     42  CG2      -11.4340  -53.4470  -14.2060 C.3    25  VAL25       0.0019
     43  N        -18.3650  -51.7610  -11.0560 N.3    27  LYS27      -0.1245
     44  CA       -18.9710  -50.5180  -10.5480 C.3    27  LYS27       0.1561
     45  C        -19.1490  -50.6170   -9.0320 C.2    27  LYS27       0.2260
     46  O        -19.3800  -51.7090   -8.5040 O.2    27  LYS27      -0.2867
     47  CB       -20.3320  -50.2660  -11.2090 C.3    27  LYS27       0.0271
     48  CG       -20.9730  -48.9150  -10.8770 C.3    27  LYS27       0.0035
     49  CD       -22.1640  -48.6330  -11.7580 C.3    27  LYS27       0.0206
     50  CE       -22.7860  -47.2830  -11.4410 C.3    27  LYS27       0.1093
     51  NZ       -23.9580  -46.9890  -12.3100 N.3    27  LYS27      -0.1314
     52  N        -15.1780  -46.9240   -9.7160 N.3    36  ALA36      -0.1245
     53  CA       -14.8730  -48.2440  -10.2820 C.3    36  ALA36       0.1562
     54  C        -13.7500  -48.8920   -9.4700 C.2    36  ALA36       0.2260
     55  O        -12.6940  -48.2840   -9.2930 O.2    36  ALA36      -0.2867
     56  CB       -14.4610  -48.1130  -11.7330 C.3    36  ALA36       0.0290
     57  N        -11.2790  -52.5420   -8.8010 N.3    38  LYS38      -0.1245
     58  CA       -10.6450  -53.6190   -9.5550 C.3    38  LYS38       0.1561
     59  C        -10.0340  -54.6430   -8.5950 C.2    38  LYS38       0.2260
     60  O         -8.9200  -54.4540   -8.1140 O.2    38  LYS38      -0.2867
     61  CB        -9.5750  -53.0330  -10.4810 C.3    38  LYS38       0.0271
     62  CG        -8.8690  -54.0450  -11.3850 C.3    38  LYS38       0.0035
     63  CD        -7.7040  -53.3950  -12.1230 C.3    38  LYS38       0.0206
     64  CE        -6.9540  -54.3920  -12.9970 C.3    38  LYS38       0.1093
     65  NZ        -5.9450  -53.7240  -13.8720 N.3    38  LYS38      -0.1314
     66  N          1.5190  -52.7580  -10.7510 N.3    52  GLU52      -0.1245
     67  CA         0.5440  -51.7910  -11.2780 C.3    52  GLU52       0.1567
     68  C          0.2460  -50.6790  -10.2690 C.2    52  GLU52       0.2260
     69  O          0.1390  -49.5080  -10.6490 O.2    52  GLU52      -0.2867
     70  CB        -0.7650  -52.5000  -11.6680 C.3    52  GLU52       0.0388
     71  CG        -1.8090  -51.6150  -12.3600 C.3    52  GLU52       0.1160
     72  CD        -2.9750  -52.3910  -12.9500 C.2    52  GLU52       0.3649
     73  OE1       -3.3460  -53.4450  -12.3890 O.co2  52  GLU52      -0.2457
     74  OE2       -3.5170  -51.9510  -13.9860 O.co2  52  GLU52      -0.2457
     75  N         -6.4620  -42.4390  -16.0530 N.3    65  VAL65      -0.1245
     76  CA        -7.4670  -42.6540  -14.9980 C.3    65  VAL65       0.1561
     77  C         -6.9640  -42.2270  -13.6270 C.2    65  VAL65       0.2260
     78  O         -5.8810  -42.6240  -13.2150 O.2    65  VAL65      -0.2867
     79  CB        -7.9250  -44.1310  -14.8810 C.3    65  VAL65       0.0252
     80  CG1       -8.8880  -44.4750  -15.9930 C.3    65  VAL65       0.0019
     81  CG2       -6.7250  -45.0870  -14.8520 C.3    65  VAL65       0.0019
     82  N        -10.7580  -46.5320   -8.4980 N.3    79  MET79      -0.1230
     83  CA       -10.5920  -45.5940   -9.6130 C.3    79  MET79       0.1702
     84  C        -11.8140  -44.7310   -9.7980 C.2    79  MET79       0.2592
     85  O        -12.8590  -44.9880   -9.1990 O.2    79  MET79      -0.2718
     86  CB       -10.3880  -46.3650  -10.9070 C.3    79  MET79       0.0401
     87  CG        -9.1200  -47.1550  -10.9550 C.3    79  MET79       0.0596
     88  SD        -9.1480  -48.2250  -12.3830 S.3    79  MET79      -0.1393
     89  CE       -10.2790  -49.4990  -11.8070 C.3    79  MET79       0.0692
     90  N        -11.6760  -43.7170  -10.6510 N.am   80  GLU80      -0.1966
     91  CA       -12.8110  -42.8910  -11.0560 C.3    80  GLU80       0.1733
     92  C        -13.7470  -43.7050  -11.9340 C.2    80  GLU80       0.2616
     93  O        -13.2900  -44.5250  -12.7310 O.2    80  GLU80      -0.2715
     94  CB       -12.3580  -41.6100  -11.7730 C.3    80  GLU80       0.0429
     95  CG       -11.6430  -41.8020  -13.1070 C.3    80  GLU80       0.1163
     96  CD       -11.2090  -40.4820  -13.7290 C.2    80  GLU80       0.3649
     97  OE1      -12.0650  -39.5840  -13.9100 O.co2  80  GLU80      -0.2457
     98  OE2      -10.0070  -40.3450  -14.0440 O.co2  80  GLU80      -0.2457
     99  N        -15.0520  -43.4970  -11.7650 N.am   81  TYR81      -0.1960
    100  CA       -16.0380  -44.1120  -12.6420 C.3    81  TYR81       0.1771
    101  C        -16.0760  -43.3220  -13.9440 C.2    81  TYR81       0.2619
    102  O        -16.5110  -42.1700  -13.9710 O.2    81  TYR81      -0.2715
    103  CB       -17.4260  -44.1520  -12.0000 C.3    81  TYR81       0.0574
    104  CG       -18.4290  -44.9430  -12.8130 C.ar   81  TYR81      -0.0198
    105  CD1      -18.3220  -46.3280  -12.9250 C.ar   81  TYR81      -0.0009
    106  CD2      -19.4820  -44.3130  -13.4710 C.ar   81  TYR81      -0.0009
    107  CE1      -19.2390  -47.0680  -13.6700 C.ar   81  TYR81       0.0417
    108  CE2      -20.4060  -45.0450  -14.2240 C.ar   81  TYR81       0.0417
    109  CZ       -20.2760  -46.4190  -14.3190 C.ar   81  TYR81       0.1957
    110  OH       -21.1810  -47.1450  -15.0560 O.3    81  TYR81      -0.2866
    111  N        -15.5850  -43.9390  -15.0150 N.am   82  ALA82      -0.1963
    112  CA       -15.6760  -43.3550  -16.3410 C.3    82  ALA82       0.1728
    113  C        -17.1170  -43.4950  -16.7930 C.2    82  ALA82       0.2616
    114  O        -17.5400  -44.5810  -17.1870 O.2    82  ALA82      -0.2715
    115  CB       -14.7350  -44.0440  -17.3050 C.3    82  ALA82       0.0334
    116  N        -17.8530  -42.3850  -16.7120 N.am   83  GLU83      -0.1963
    117  CA       -19.2920  -42.3220  -17.0490 C.3    83  GLU83       0.1733
    118  C        -19.5780  -42.9660  -18.4100 C.2    83  GLU83       0.2617
    119  O        -20.4410  -43.8420  -18.5320 O.2    83  GLU83      -0.2715
    120  CB       -19.7850  -40.8610  -17.1220 C.3    83  GLU83       0.0429
    121  CG       -19.4800  -39.9470  -15.9130 C.3    83  GLU83       0.1163
    122  CD       -18.7950  -38.6370  -16.3270 C.2    83  GLU83       0.3649
    123  OE1      -17.7550  -38.2920  -15.7190 O.co2  83  GLU83      -0.2457
    124  OE2      -19.2860  -37.9670  -17.2690 O.co2  83  GLU83      -0.2457
    125  N        -18.8160  -42.5290  -19.4140 N.am   84  GLY84      -0.1940
    126  CA       -19.0390  -42.9070  -20.8070 C.3    84  GLY84       0.2014
    127  C        -18.6490  -44.3110  -21.2440 C.2    84  GLY84       0.2639
    128  O        -18.8800  -44.6630  -22.4020 O.2    84  GLY84      -0.2714
    129  N        -18.0700  -45.1170  -20.3460 N.am   85  GLY85      -0.1939
    130  CA       -17.6220  -46.4800  -20.6900 C.3    85  GLY85       0.2014
    131  C        -16.3580  -46.4620  -21.5380 C.2    85  GLY85       0.2639
    132  O        -15.6750  -45.4470  -21.5990 O.2    85  GLY85      -0.2714
    133  N        -16.0490  -47.5790  -22.1920 N.am   86  SER86      -0.1949
    134  CA       -14.8500  -47.6730  -23.0360 C.3    86  SER86       0.1924
    135  C        -15.0850  -47.0400  -24.4050 C.2    86  SER86       0.2314
    136  O        -16.2200  -46.9470  -24.8600 O.2    86  SER86      -0.2863
    137  CB       -14.4320  -49.1330  -23.2280 C.3    86  SER86       0.2116
    138  OG       -15.2810  -49.7910  -24.1540 O.3    86  SER86      -0.2180
    139  N        -16.7430  -49.5910  -26.7730 N.3    89  ASN89      -0.1240
    140  CA       -18.1990  -49.6540  -26.6470 C.3    89  ASN89       0.1653
    141  C        -18.9250  -48.4760  -27.3360 C.2    89  ASN89       0.2266
    142  O        -20.0170  -48.6490  -27.8660 O.2    89  ASN89      -0.2867
    143  CB       -18.5820  -49.7510  -25.1640 C.3    89  ASN89       0.1155
    144  CG       -20.0560  -50.0610  -24.9540 C.2    89  ASN89       0.2627
    145  OD1      -20.5640  -51.0800  -25.4290 O.2    89  ASN89      -0.2716
    146  ND2      -20.7490  -49.1840  -24.2340 N.am   89  ASN89      -0.0877
    147  N        -10.6140  -50.8060  -26.0410 N.3   135  PRO135     -0.2102
    148  CA       -11.1700  -51.3020  -24.7690 C.3   135  PRO135      0.1504
    149  C        -10.4880  -50.7960  -23.4850 C.2   135  PRO135      0.2575
    150  O        -11.0790  -50.9070  -22.4100 O.2   135  PRO135     -0.2718
    151  CB       -11.0030  -52.8180  -24.8880 C.3   135  PRO135      0.0282
    152  CG       -11.1070  -53.0810  -26.3360 C.3   135  PRO135      0.0208
    153  CD       -10.3880  -51.9170  -26.9840 C.3   135  PRO135      0.0893
    154  N         -9.2640  -50.2720  -23.6040 N.am  136  ASN136     -0.1975
    155  CA        -8.5160  -49.6760  -22.4810 C.3   136  ASN136      0.1688
    156  C         -8.5490  -48.1410  -22.4570 C.2   136  ASN136      0.2292
    157  O         -7.8850  -47.5250  -21.6240 O.2   136  ASN136     -0.2864
    158  CB        -7.0500  -50.1330  -22.5370 C.3   136  ASN136      0.1181
    159  CG        -6.8940  -51.6380  -22.4190 C.2   136  ASN136      0.2629
    160  OD1       -7.6880  -52.3180  -21.7490 O.2   136  ASN136     -0.2716
    161  ND2       -5.8560  -52.1710  -23.0610 N.am  136  ASN136     -0.0877
    162  N        -10.9680  -45.1230  -21.7860 N.3   138  LEU138     -0.1245
    163  CA       -12.2490  -44.7310  -21.1950 C.3   138  LEU138      0.1561
    164  C        -12.5890  -43.2760  -21.5420 C.2   138  LEU138      0.2260
    165  O        -11.6950  -42.4740  -21.7770 O.2   138  LEU138     -0.2867
    166  CB       -12.2010  -44.8930  -19.6860 C.3   138  LEU138      0.0270
    167  CG       -11.7470  -46.2510  -19.1440 C.3   138  LEU138      0.0019
    168  CD1      -11.5570  -46.1470  -17.6320 C.3   138  LEU138      0.0001
    169  CD2      -12.7300  -47.3720  -19.5150 C.3   138  LEU138      0.0001
    170  N         -6.1380  -46.4840  -19.3380 N.3   149  CYS149     -0.1221
    171  CA        -6.0530  -47.3650  -18.1650 C.3   149  CYS149      0.1808
    172  C         -5.3970  -48.7000  -18.5260 C.2   149  CYS149      0.2601
    173  O         -4.9950  -48.9020  -19.6750 O.2   149  CYS149     -0.2717
    174  CB        -7.4390  -47.5830  -17.5700 C.3   149  CYS149      0.0970
    175  SG        -8.5430  -48.4790  -18.6420 S.3   149  CYS149     -0.0800
    176  N         -5.2560  -49.5780  -17.5310 N.am  150  ASP150     -0.1973
    177  CA        -4.7160  -50.9370  -17.7080 C.3   150  ASP150      0.1709
    178  C         -3.2990  -50.9650  -18.3000 C.2   150  ASP150      0.2293
    179  O         -2.9550  -51.8530  -19.0880 O.2   150  ASP150     -0.2864
    180  CB        -5.6790  -51.7730  -18.5720 C.3   150  ASP150      0.1436
    181  CG        -5.4760  -53.2850  -18.4140 C.2   150  ASP150      0.3671
    182  OD1       -4.8040  -53.7320  -17.4520 O.co2 150  ASP150     -0.2456
    183  OD2       -6.0050  -54.0270  -19.2710 O.co2 150  ASP150     -0.2456
@<TRIPOS>BOND
     1   142   141    2
     2   141   140    1
     3   153   152    1
     4   153   147    1
     5   139   140    1
     6   140   143    1
     7   152   151    1
     8   147   148    1
     9   145   144    2
    10   143   144    1
    11   144   146   am
    12   151   148    1
    13   136   135    2
    14   148   149    1
    15   135   134    1
    16   138   137    1
    17   154   149   am
    18   154   155    1
    19   149   150    2
    20   137   134    1
    21   161   159   am
    22   134   133    1
    23   158   155    1
    24   158   159    1
    25   155   156    1
    26   156   157    2
    27   159   160    2
    28   128   127    2
    29   133   131   am
    30   162   163    1
    31   165   164    2
    32   132   131    2
    33   164   163    1
    34   131   130    1
    35   127   126    1
    36   127   129   am
    37   163   166    1
    38   126   125    1
    39   130   129    1
    40   166   167    1
    41   173   172    2
    42   169   167    1
    43   125   118   am
    44    24    23    2
    45   170   171    1
    46   183   181   ar
    47   167   168    1
    48   179   178    2
    49   175   174    1
    50   180   181    1
    51   180   177    1
    52   119   118    2
    53   172   171    1
    54   172   176   am
    55    35    34    2
    56   181   182   ar
    57   118   117    1
    58    34    33    1
    59   178   177    1
    60    23    32   am
    61    23    22    1
    62   171   174    1
    63    33    32    1
    64    25    22    1
    65    25    26    1
    66   177   176    1
    67    21    22    1
    68    21    19   am
    69    13    12    2
    70    27    26    1
    71    27    28    1
    72    18    19    1
    73    18    17    1
    74   115   112    1
    75   124   122   ar
    76   114   113    2
    77   120   117    1
    78   120   121    1
    79   117   116    1
    80    28    29    2
    81    19    20    2
    82   113   116   am
    83   113   112    1
    84    12    17   am
    85    12    11    1
    86    16    14    1
    87   112   111    1
    88   122   121    1
    89   122   123   ar
    90    75    76    1
    91    80    79    1
    92    11    14    1
    93    11    10    1
    94    29    31    1
    95    29    30    1
    96    14    15    1
    97   110   109    1
    98   111   101   am
    99    76    79    1
   100    76    77    1
   101    79    81    1
   102   109   108   ar
   103   109   107   ar
   104     8     7   ar
   105   108   106   ar
   106    42    40    1
   107    98    96   ar
   108    74    72   ar
   109   102   101    2
   110   101   100    1
   111    40    41    1
   112    40    37    1
   113    97    96   ar
   114     9     7   ar
   115    65    64    1
   116    96    95    1
   117     7     6    1
   118   107   105   ar
   119    77    78    2
   120   106   104   ar
   121    39    38    2
   122    36    37    1
   123    95    94    1
   124    64    63    1
   125    72    73   ar
   126    72    71    1
   127   105   104   ar
   128    37    38    1
   129   104   103    1
   130     6     5    1
   131    93    92    2
   132   100   103    1
   133   100    99    1
   134    88    89    1
   135    88    87    1
   136    71    70    1
   137    51    50    1
   138    63    62    1
   139     5     2    1
   140    92    99   am
   141    92    91    1
   142    94    91    1
   143    49    50    1
   144    49    48    1
   145    56    53    1
   146    70    67    1
   147     4     3    2
   148     3     2    1
   149    62    61    1
   150    67    66    1
   151    67    68    1
   152    47    48    1
   153    47    44    1
   154    91    90    1
   155    43    44    1
   156    87    86    1
   157    86    83    1
   158     2     1    1
   159    90    84   am
   160    69    68    2
   161    44    45    1
   162    61    58    1
   163    53    52    1
   164    53    54    1
   165    84    83    1
   166    84    85    2
   167    83    82    1
   168    58    57    1
   169    58    59    1
   170    54    55    2
   171    45    46    2
   172    59    60    2
