@<TRIPOS>MOLECULE
tmp/4l58A00.pdb
 142 141 0 0 0
SMALL
GASTEIGER

@<TRIPOS>ATOM
      1  N          4.8560   -1.6170   21.6900 N.3     1  ASP1       -0.1225
      2  CA         5.6690   -2.2450   20.6040 C.3     1  ASP1        0.1805
      3  C          5.0460   -3.5340   20.0630 C.2     1  ASP1        0.2598
      4  O          5.7440   -4.3810   19.5070 O.2     1  ASP1       -0.2718
      5  CB         7.0930   -2.5150   21.1020 C.3     1  ASP1        0.1424
      6  CG         7.1170   -3.2540   22.4250 C.2     1  ASP1        0.3668
      7  OD1        6.0260   -3.5130   22.9720 O.co2   1  ASP1       -0.2456
      8  OD2        8.2210   -3.5590   22.9270 O.co2   1  ASP1       -0.2456
      9  N          3.7310   -3.6670   20.2150 N.am    2  VAL2       -0.1966
     10  CA         3.0200   -4.8570   19.7650 C.3     2  VAL2        0.1727
     11  C          2.1690   -4.5570   18.5400 C.2     2  VAL2        0.2616
     12  O          1.3920   -3.6050   18.5270 O.2     2  VAL2       -0.2715
     13  CB         2.0850   -5.3970   20.8590 C.3     2  VAL2        0.0290
     14  CG1        1.3350   -6.6260   20.3600 C.3     2  VAL2        0.0023
     15  CG2        2.8630   -5.7090   22.1220 C.3     2  VAL2        0.0023
     16  N          2.3180   -5.3880   17.5160 N.am    3  THR3       -0.1951
     17  CA         1.4580   -5.3290   16.3410 C.3     3  THR3        0.1897
     18  C          0.4830   -6.4990   16.3670 C.2     3  THR3        0.2313
     19  O          0.8870   -7.6560   16.5030 O.2     3  THR3       -0.2863
     20  CB         2.2840   -5.3750   15.0420 C.3     3  THR3        0.1794
     21  OG1        3.0330   -4.1600   14.9120 O.3     3  THR3       -0.2208
     22  CG2        1.3910   -5.5500   13.8210 C.3     3  THR3        0.0378
     23  N          2.8540   -8.9850   10.6010 N.3    10  THR10      -0.1203
     24  CA         3.5440   -8.2750   11.6680 C.3    10  THR10       0.1994
     25  C          4.4420   -7.1530   11.1520 C.2    10  THR10       0.2618
     26  O          5.0010   -6.3980   11.9440 O.2    10  THR10      -0.2717
     27  CB         4.3810   -9.2470   12.5170 C.3    10  THR10       0.1784
     28  OG1        5.3400   -9.9180   11.6860 O.3    10  THR10      -0.2211
     29  CG2        3.4780  -10.2770   13.1670 C.3    10  THR10       0.0376
     30  N          4.5790   -7.0360    9.8350 N.am   11  HIS11      -0.1961
     31  CA         5.3800   -5.9570    9.2630 C.3    11  HIS11       0.1787
     32  C          4.6780   -4.6170    9.4260 C.2    11  HIS11       0.2620
     33  O          3.4780   -4.5560    9.6800 O.2    11  HIS11      -0.2715
     34  CB         5.6660   -6.2040    7.7800 C.3    11  HIS11       0.0785
     35  CG         4.4370   -6.2830    6.9310 C.ar   11  HIS11       0.0821
     36  ND1        3.8470   -7.4810    6.5880 N.ar   11  HIS11      -0.2267
     37  CD2        3.6870   -5.3160    6.3530 C.ar   11  HIS11       0.1154
     38  CE1        2.7850   -7.2460    5.8380 C.ar   11  HIS11       0.1986
     39  NE2        2.6640   -5.9410    5.6830 N.ar   11  HIS11      -0.2212
     40  N          5.4550   -3.5510    9.2800 N.am   12  ASP12      -0.1971
     41  CA         4.9520   -2.1850    9.2860 C.3    12  ASP12       0.1709
     42  C          4.7480   -1.7590    7.8340 C.2    12  ASP12       0.2293
     43  O          5.6900   -1.7880    7.0470 O.2    12  ASP12      -0.2864
     44  CB         5.9890   -1.2910    9.9720 C.3    12  ASP12       0.1436
     45  CG         5.5210    0.1380   10.1600 C.2    12  ASP12       0.3671
     46  OD1        4.5370    0.5620    9.5200 O.co2  12  ASP12      -0.2456
     47  OD2        6.1730    0.8470   10.9560 O.co2  12  ASP12      -0.2456
     48  N          3.7040    1.2530    6.6840 N.3    14  GLY14      -0.1210
     49  CA         3.8600    2.6750    6.4300 C.3    14  GLY14       0.1956
     50  C          2.7450    3.5740    6.9390 C.2    14  GLY14       0.2612
     51  O          2.8960    4.7940    6.9410 O.2    14  GLY14      -0.2717
     52  N          1.6220    2.9930    7.3550 N.am   15  TYR15      -0.1962
     53  CA         0.5620    3.7790    7.9850 C.3    15  TYR15       0.1771
     54  C         -0.2470    2.9290    8.9610 C.2    15  TYR15       0.2619
     55  O         -1.1530    2.1840    8.5700 O.2    15  TYR15      -0.2715
     56  CB        -0.3490    4.4290    6.9400 C.3    15  TYR15       0.0574
     57  CG        -0.9090    5.7680    7.3810 C.ar   15  TYR15      -0.0198
     58  CD1       -1.3460    5.9690    8.6870 C.ar   15  TYR15      -0.0009
     59  CD2       -0.9860    6.8360    6.4950 C.ar   15  TYR15      -0.0009
     60  CE1       -1.8580    7.1940    9.0930 C.ar   15  TYR15       0.0417
     61  CE2       -1.4880    8.0640    6.8900 C.ar   15  TYR15       0.0417
     62  CZ        -1.9210    8.2370    8.1910 C.ar   15  TYR15       0.1957
     63  OH        -2.4290    9.4520    8.5890 O.3    15  TYR15      -0.2866
     64  N          0.0940    3.0570   10.2380 N.am   16  MET16      -0.1963
     65  CA        -0.4970    2.2340   11.2780 C.3    16  MET16       0.1736
     66  C         -1.1280    3.0970   12.3590 C.2    16  MET16       0.2616
     67  O         -0.8480    4.2910   12.4620 O.2    16  MET16      -0.2715
     68  CB         0.5680    1.3130   11.8700 C.3    16  MET16       0.0427
     69  CG         1.1580    0.3640   10.8300 C.3    16  MET16       0.0599
     70  SD         2.2080   -0.9450   11.4830 S.3    16  MET16      -0.1393
     71  CE         0.9780   -1.9560   12.3050 C.3    16  MET16       0.0692
     72  N         -1.9820    2.4770   13.1620 N.am   17  ILE17      -0.1963
     73  CA        -2.7430    3.1900   14.1730 C.3    17  ILE17       0.1727
     74  C         -2.7480    2.3290   15.4320 C.2    17  ILE17       0.2616
     75  O         -2.7240    1.1010   15.3510 O.2    17  ILE17      -0.2715
     76  CB        -4.1680    3.4990   13.6490 C.3    17  ILE17       0.0290
     77  CG1       -4.9420    4.4030   14.6070 C.3    17  ILE17       0.0022
     78  CG2       -4.9390    2.2120   13.3740 C.3    17  ILE17       0.0023
     79  CD1       -6.1320    5.0660   13.9380 C.3    17  ILE17       0.0001
     80  N         -2.7530    2.9820   16.5890 N.am   18  CYS18      -0.1968
     81  CA        -2.5760    2.2980   17.8630 C.3    18  CYS18       0.1712
     82  C         -3.8610    2.3190   18.6840 C.2    18  CYS18       0.2296
     83  O         -4.4830    3.3750   18.8470 O.2    18  CYS18      -0.2864
     84  CB        -1.4500    2.9760   18.6480 C.3    18  CYS18       0.0983
     85  SG        -0.9530    2.1160   20.1500 S.3    18  CYS18      -0.0798
     86  N         -6.1770    2.7280   21.6460 N.3    20  ASP20      -0.1239
     87  CA        -6.0670    3.5570   22.8340 C.3    20  ASP20       0.1674
     88  C         -6.2510    2.7710   24.1250 C.2    20  ASP20       0.2266
     89  O         -5.8250    3.2190   25.1890 O.2    20  ASP20      -0.2867
     90  CB        -7.0590    4.7130   22.7570 C.3    20  ASP20       0.1410
     91  CG        -6.5900    5.8070   21.8230 C.2    20  ASP20       0.3668
     92  OD1       -5.3680    6.0630   21.7820 O.co2  20  ASP20      -0.2456
     93  OD2       -7.4290    6.4080   21.1270 O.co2  20  ASP20      -0.2456
     94  N         -0.8470   -2.1970   17.5770 N.3    25  TRP25      -0.1241
     95  CA        -0.8090   -1.4320   16.3460 C.3    25  TRP25       0.1605
     96  C         -1.4580   -2.2230   15.2320 C.2    25  TRP25       0.2264
     97  O         -1.3110   -3.4410   15.1510 O.2    25  TRP25      -0.2867
     98  CB         0.6320   -1.1110   15.9690 C.3    25  TRP25       0.0550
     99  CG         1.2590   -0.1140   16.8680 C.ar   25  TRP25       0.0003
    100  CD1        1.9240   -0.3620   18.0290 C.ar   25  TRP25       0.0946
    101  CD2        1.2780    1.3020   16.6830 C.ar   25  TRP25       0.0152
    102  NE1        2.3600    0.8190   18.5850 N.ar   25  TRP25      -0.2442
    103  CE2        1.9780    1.8550   17.7730 C.ar   25  TRP25       0.0810
    104  CE3        0.7740    2.1570   15.6990 C.ar   25  TRP25       0.0012
    105  CZ2        2.1860    3.2250   17.9070 C.ar   25  TRP25       0.0191
    106  CZ3        0.9840    3.5140   15.8300 C.ar   25  TRP25       0.0001
    107  CH2        1.6790    4.0360   16.9270 C.ar   25  TRP25       0.0015
    108  N         -8.8420   10.3330   10.1720 N.3    38  ILE38      -0.1231
    109  CA        -8.3840    9.6300   11.3640 C.3    38  ILE38       0.1678
    110  C         -9.1900   10.1120   12.5630 C.2    38  ILE38       0.2434
    111  O         -9.2920   11.3160   12.7920 O.2    38  ILE38      -0.2733
    112  CB        -6.8880    9.8660   11.6450 C.3    38  ILE38       0.0265
    113  CG1       -6.0350    9.4960   10.4250 C.3    38  ILE38       0.0019
    114  CG2       -6.4530    9.0650   12.8640 C.3    38  ILE38       0.0020
    115  CD1       -5.9920    8.0140   10.1180 C.3    38  ILE38       0.0001
    116  N         -9.7740    9.1780   13.3290 N.am   39  PRO39      -0.2718
    117  CA       -10.5850    9.5550   14.4910 C.3    39  PRO39       0.1535
    118  C         -9.7310   10.0540   15.6560 C.2    39  PRO39       0.2598
    119  O         -8.5450    9.7450   15.7200 O.2    39  PRO39      -0.2715
    120  CB       -11.2810    8.2440   14.8610 C.3    39  PRO39       0.0310
    121  CG       -10.3240    7.1950   14.4310 C.3    39  PRO39       0.0237
    122  CD        -9.7250    7.7150   13.1530 C.3    39  PRO39       0.0939
    123  N        -10.3290   10.8200   16.5630 N.am   40  ASP40      -0.1972
    124  CA        -9.6090   11.3080   17.7340 C.3    40  ASP40       0.1709
    125  C         -9.2080   10.1520   18.6350 C.2    40  ASP40       0.2293
    126  O         -8.0770   10.0910   19.1210 O.2    40  ASP40      -0.2864
    127  CB       -10.4700   12.2960   18.5160 C.3    40  ASP40       0.1436
    128  CG       -10.4670   13.6800   17.9060 C.2    40  ASP40       0.3671
    129  OD1       -9.6990   13.9120   16.9470 O.co2  40  ASP40      -0.2456
    130  OD2      -11.2210   14.5410   18.4040 O.co2  40  ASP40      -0.2456
    131  N         -9.1790    5.8620   18.9690 N.3    42  TYR42      -0.1241
    132  CA        -9.2530    4.6440   18.1730 C.3    42  TYR42       0.1605
    133  C         -9.1610    3.4050   19.0420 C.2    42  TYR42       0.2264
    134  O         -8.2670    3.2920   19.8760 O.2    42  TYR42      -0.2867
    135  CB        -8.1440    4.5860   17.1210 C.3    42  TYR42       0.0534
    136  CG        -8.1710    3.2770   16.3660 C.ar   42  TYR42      -0.0201
    137  CD1       -9.0710    3.0740   15.3360 C.ar   42  TYR42      -0.0009
    138  CD2       -7.3290    2.2320   16.7090 C.ar   42  TYR42      -0.0009
    139  CE1       -9.1270    1.8790   14.6560 C.ar   42  TYR42       0.0417
    140  CE2       -7.3760    1.0190   16.0290 C.ar   42  TYR42       0.0417
    141  CZ        -8.2830    0.8550   15.0030 C.ar   42  TYR42       0.1957
    142  OH        -8.3570   -0.3330   14.3070 O.3    42  TYR42      -0.2866
@<TRIPOS>BOND
     1    39    38   ar
     2    39    37   ar
     3    38    36   ar
     4    37    35   ar
     5    49    48    1
     6    49    50    1
     7    59    61   ar
     8    59    57   ar
     9    36    35   ar
    10    61    62   ar
    11    35    34    1
    12    50    51    2
    13    50    52   am
    14    56    57    1
    15    56    53    1
    16    43    42    2
    17    52    53    1
    18    57    58   ar
    19    34    31    1
    20    42    41    1
    21    53    54    1
    22    62    63    1
    23    62    60   ar
    24    55    54    2
    25    58    60   ar
    26    54    64   am
    27    31    32    1
    28    31    30    1
    29    40    41    1
    30    40    32   am
    31    41    44    1
    32    32    33    2
    33    46    45   ar
    34    30    25   am
    35    44    45    1
    36   115   113    1
    37    45    47   ar
    38   108   109    1
    39    64    65    1
    40   113   112    1
    41    23    24    1
    42    69    70    1
    43    69    68    1
    44    25    24    1
    45    25    26    2
    46    65    68    1
    47    65    66    1
    48   109   112    1
    49   109   110    1
    50    70    71    1
    51   112   114    1
    52    24    27    1
    53    28    27    1
    54    66    67    2
    55    66    72   am
    56    27    29    1
    57   110   111    2
    58   110   116   am
    59   122   116    1
    60   122   121    1
    61    72    73    1
    62   116   117    1
    63    78    76    1
    64    76    73    1
    65    76    77    1
    66    22    20    1
    67    79    77    1
    68    73    74    1
    69   142   141    1
    70   121   120    1
    71   117   120    1
    72   117   118    1
    73   139   141   ar
    74   139   137   ar
    75    21    20    1
    76   141   140   ar
    77    20    17    1
    78    97    96    2
    79    96    95    1
    80   137   136   ar
    81    75    74    2
    82    74    80   am
    83   118   119    2
    84   118   123   am
    85   104   106   ar
    86   104   101   ar
    87   106   107   ar
    88    98    95    1
    89    98    99    1
    90   140   138   ar
    91    17    18    1
    92    17    16    1
    93    95    94    1
    94   136   138   ar
    95   136   135    1
    96    18    19    2
    97   123   124    1
    98    80    81    1
    99   101    99   ar
   100   101   103   ar
   101    99   100   ar
   102   107   105   ar
   103   129   128   ar
   104   135   132    1
   105    16    11   am
   106   124   127    1
   107   124   125    1
   108   103   105   ar
   109   103   102   ar
   110    81    84    1
   111    81    82    1
   112   128   130   ar
   113   128   127    1
   114   100   102   ar
   115   132   131    1
   116   132   133    1
   117    12    11    2
   118    11    10    1
   119   125   126    2
   120    84    85    1
   121    82    83    2
   122   133   134    2
   123     4     3    2
   124    10     9    1
   125    10    13    1
   126     3     9   am
   127     3     2    1
   128    14    13    1
   129     2     5    1
   130     2     1    1
   131    13    15    1
   132     5     6    1
   133    93    91   ar
   134    86    87    1
   135    92    91   ar
   136    91    90    1
   137     6     8   ar
   138     6     7   ar
   139    90    87    1
   140    87    88    1
   141    88    89    2
