@<TRIPOS>MOLECULE
tmp/4l59A00.pdb
 94 90 0 0 0
SMALL
GASTEIGER

@<TRIPOS>ATOM
      1  N         22.6430  141.0390    4.4040 N.3    43  ASP43      -0.1239
      2  CA        23.5350  140.8290    5.5490 C.3    43  ASP43       0.1674
      3  C         22.8040  139.9710    6.5700 C.2    43  ASP43       0.2266
      4  O         21.8300  140.4500    7.1500 O.2    43  ASP43      -0.2867
      5  CB        23.8350  142.1960    6.1740 C.3    43  ASP43       0.1410
      6  CG        24.8370  142.1310    7.3170 C.2    43  ASP43       0.3668
      7  OD1       25.0980  141.0370    7.8640 O.co2  43  ASP43      -0.2456
      8  OD2       25.3770  143.2120    7.6410 O.co2  43  ASP43      -0.2456
      9  N         23.1940  139.4980    9.6380 N.3    45  GLU45      -0.1231
     10  CA        23.0600  140.1090   10.9660 C.3    45  GLU45       0.1699
     11  C         22.3060  141.4260   10.9060 C.2    45  GLU45       0.2592
     12  O         21.9720  142.0020   11.9290 O.2    45  GLU45      -0.2718
     13  CB        24.4540  140.2990   11.5950 C.3    45  GLU45       0.0402
     14  CG        25.2860  138.9990   11.6980 C.3    45  GLU45       0.1161
     15  CD        24.7080  137.9390   12.6700 C.2    45  GLU45       0.3649
     16  OE1       24.0420  138.3240   13.6680 O.co2  45  GLU45      -0.2457
     17  OE2       24.9360  136.7120   12.4600 O.co2  45  GLU45      -0.2457
     18  N         22.0280  141.8930    9.6920 N.am   46  HIS46      -0.1976
     19  CA        21.2980  143.1420    9.4660 C.3    46  HIS46       0.1656
     20  C         20.4230  142.9530    8.2390 C.2    46  HIS46       0.2291
     21  O         20.6770  143.5270    7.1780 O.2    46  HIS46      -0.2864
     22  CB        22.2840  144.2890    9.2470 C.3    46  HIS46       0.0771
     23  CG        23.2480  144.4300   10.3680 C.ar   46  HIS46       0.0820
     24  ND1       22.9530  145.1400   11.5100 N.ar   46  HIS46      -0.2267
     25  CD2       24.4650  143.8780   10.5690 C.ar   46  HIS46       0.1154
     26  CE1       23.9550  145.0320   12.3580 C.ar   46  HIS46       0.1986
     27  NE2       24.8870  144.2760   11.8100 N.ar   46  HIS46      -0.2212
     28  N         19.3940  145.0290    5.1460 N.3    49  VAL49      -0.1245
     29  CA        20.4370  145.6870    4.3770 C.3    49  VAL49       0.1561
     30  C         20.9630  144.7910    3.2680 C.2    49  VAL49       0.2260
     31  O         21.4290  143.6700    3.5220 O.2    49  VAL49      -0.2867
     32  CB        21.6350  146.0270    5.2840 C.3    49  VAL49       0.0252
     33  CG1       22.6690  146.8580    4.5320 C.3    49  VAL49       0.0019
     34  CG2       21.1520  146.7720    6.5290 C.3    49  VAL49       0.0019
     35  N         23.9480  144.2570    0.5640 N.3    51  CYS51      -0.1235
     36  CA        25.3470  144.5920    0.5150 C.3    51  CYS51       0.1677
     37  C         26.0430  144.1150   -0.7630 C.2    51  CYS51       0.2270
     38  O         25.5200  143.2940   -1.5130 O.2    51  CYS51      -0.2867
     39  CB        26.0420  143.9480    1.7220 C.3    51  CYS51       0.0956
     40  SG        25.3750  144.5630    3.2740 S.3    51  CYS51      -0.0801
     41  N         32.0850  140.4830    2.5230 N.3    67  PHE67      -0.1241
     42  CA        31.5310  141.8380    2.3670 C.3    67  PHE67       0.1605
     43  C         32.6800  142.7510    1.9470 C.2    67  PHE67       0.2264
     44  O         33.5680  142.9880    2.7460 O.2    67  PHE67      -0.2867
     45  CB        30.9550  142.3810    3.6590 C.3    67  PHE67       0.0534
     46  CG        29.7070  141.7030    4.1290 C.ar   67  PHE67      -0.0203
     47  CD1       28.4660  142.1370    3.7070 C.ar   67  PHE67      -0.0042
     48  CD2       29.7750  140.6630    5.0590 C.ar   67  PHE67      -0.0042
     49  CE1       27.3060  141.5310    4.1710 C.ar   67  PHE67      -0.0003
     50  CE2       28.6290  140.0590    5.5320 C.ar   67  PHE67      -0.0003
     51  CZ        27.3840  140.4950    5.0840 C.ar   67  PHE67      -0.0000
     52  N         35.1620  145.0210    4.2040 N.3    70  TYR70      -0.1241
     53  CA        35.0350  144.7110    5.6140 C.3    70  TYR70       0.1605
     54  C         35.9470  143.5700    5.9410 C.2    70  TYR70       0.2264
     55  O         36.4360  142.8910    5.0560 O.2    70  TYR70      -0.2867
     56  CB        33.6040  144.3470    5.9550 C.3    70  TYR70       0.0534
     57  CG        32.6280  145.4900    5.8580 C.ar   70  TYR70      -0.0201
     58  CD1       32.3010  146.2470    6.9820 C.ar   70  TYR70      -0.0009
     59  CD2       32.0170  145.8040    4.6700 C.ar   70  TYR70      -0.0009
     60  CE1       31.4060  147.2990    6.9080 C.ar   70  TYR70       0.0417
     61  CE2       31.1020  146.8570    4.5870 C.ar   70  TYR70       0.0417
     62  CZ        30.8090  147.6010    5.7160 C.ar   70  TYR70       0.1957
     63  OH        29.9020  148.6280    5.6720 O.3    70  TYR70      -0.2866
     64  N         33.5380  138.6930    9.0640 N.3    74  TYR74      -0.1241
     65  CA        32.1300  138.7090    8.6880 C.3    74  TYR74       0.1605
     66  C         31.7560  137.7260    7.5700 C.2    74  TYR74       0.2264
     67  O         30.5700  137.6370    7.2220 O.2    74  TYR74      -0.2867
     68  CB        31.7370  140.1130    8.2460 C.3    74  TYR74       0.0534
     69  CG        31.8670  141.1610    9.3390 C.ar   74  TYR74      -0.0201
     70  CD1       30.9630  141.2080   10.4010 C.ar   74  TYR74      -0.0009
     71  CD2       32.8830  142.1090    9.3090 C.ar   74  TYR74      -0.0009
     72  CE1       31.0700  142.1660   11.3930 C.ar   74  TYR74       0.0417
     73  CE2       32.9910  143.0720   10.2960 C.ar   74  TYR74       0.0417
     74  CZ        32.0940  143.0830   11.3390 C.ar   74  TYR74       0.1957
     75  OH        32.2120  144.0360   12.3140 O.3    74  TYR74      -0.2866
     76  N         23.8430  148.9320   -0.0860 N.3    99  HIS99      -0.1241
     77  CA        24.8510  149.4550    0.7920 C.3    99  HIS99       0.1621
     78  C         26.1890  149.2740    0.0910 C.2    99  HIS99       0.2264
     79  O         26.5490  148.1590   -0.2580 O.2    99  HIS99      -0.2867
     80  CB        24.8670  148.7000    2.1300 C.3    99  HIS99       0.0745
     81  CG        25.8120  149.2830    3.1360 C.ar   99  HIS99       0.0817
     82  ND1       25.4610  150.3180    3.9830 N.ar   99  HIS99      -0.2268
     83  CD2       27.1000  148.9860    3.4240 C.ar   99  HIS99       0.1154
     84  CE1       26.4910  150.6360    4.7420 C.ar   99  HIS99       0.1986
     85  NE2       27.5000  149.8440    4.4230 N.ar   99  HIS99      -0.2212
     86  N         16.9160  147.8250   13.8120 N.3   174  GLU174     -0.1245
     87  CA        16.9580  146.9920   12.6140 C.3   174  GLU174      0.1567
     88  C         17.6000  145.6130   12.7720 C.2   174  GLU174      0.2260
     89  O         17.2500  144.6970   12.0590 O.2   174  GLU174     -0.2867
     90  CB        17.7270  147.7390   11.5290 C.3   174  GLU174      0.0388
     91  CG        19.1720  148.1130   11.9250 C.3   174  GLU174      0.1160
     92  CD        20.2270  147.0350   11.6740 C.2   174  GLU174      0.3649
     93  OE1       20.0120  146.0690   10.8910 O.co2 174  GLU174     -0.2457
     94  OE2       21.3200  147.1600   12.2720 O.co2 174  GLU174     -0.2457
@<TRIPOS>BOND
     1    38    37    2
     2    37    36    1
     3    79    78    2
     4    76    77    1
     5    78    77    1
     6    36    35    1
     7    36    39    1
     8    77    80    1
     9    39    40    1
    10    43    42    1
    11    43    44    2
    12    80    81    1
    13    42    41    1
    14    42    45    1
    15    81    83   ar
    16    81    82   ar
    17    30    31    2
    18    30    29    1
    19    83    85   ar
    20    45    46    1
    21    47    46   ar
    22    47    49   ar
    23    82    84   ar
    24    46    48   ar
    25    49    51   ar
    26    52    53    1
    27    29    28    1
    28    29    32    1
    29     1     2    1
    30    85    84   ar
    31    33    32    1
    32    61    59   ar
    33    61    62   ar
    34    59    57   ar
    35    55    54    2
    36    48    50   ar
    37    51    50   ar
    38    32    34    1
    39     2     5    1
    40     2     3    1
    41    53    54    1
    42    53    56    1
    43    63    62    1
    44    62    60   ar
    45    57    56    1
    46    57    58   ar
    47     5     6    1
    48     3     4    2
    49    60    58   ar
    50    21    20    2
    51    67    66    2
    52     6     8   ar
    53     6     7   ar
    54    66    65    1
    55    20    19    1
    56    68    65    1
    57    68    69    1
    58    65    64    1
    59    22    19    1
    60    22    23    1
    61    71    69   ar
    62    71    73   ar
    63    69    70   ar
    64    19    18    1
    65     9    10    1
    66    18    11   am
    67    73    74   ar
    68    23    25   ar
    69    23    24   ar
    70    70    72   ar
    71    25    27   ar
    72    93    92   ar
    73    11    10    1
    74    11    12    2
    75    10    13    1
    76    74    72   ar
    77    74    75    1
    78    24    26   ar
    79    90    91    1
    80    90    87    1
    81    13    14    1
    82    92    91    1
    83    92    94   ar
    84    14    15    1
    85    27    26   ar
    86    89    88    2
    87    17    15   ar
    88    87    88    1
    89    87    86    1
    90    15    16   ar
