@<TRIPOS>MOLECULE
tmp/4l5aF00.pdb
 136 131 0 0 0
SMALL
GASTEIGER

@<TRIPOS>ATOM
      1  N         44.5650   11.5320   36.1240 N.3    10  SER10      -0.1217
      2  CA        43.1880   11.1830   35.7860 C.3    10  SER10       0.1889
      3  C         43.0130   11.1170   34.2720 C.2    10  SER10       0.2288
      4  O         43.5680   11.9340   33.5400 O.2    10  SER10      -0.2866
      5  CB        42.2010   12.1920   36.3790 C.3    10  SER10       0.2089
      6  OG        42.2480   12.1870   37.7950 O.3    10  SER10      -0.2183
      7  N         47.7150    7.3100   40.1910 N.3    53  HIS53      -0.1241
      8  CA        46.7510    6.8870   41.2010 C.3    53  HIS53       0.1621
      9  C         46.5210    5.3760   41.2170 C.2    53  HIS53       0.2264
     10  O         45.6880    4.8800   41.9780 O.2    53  HIS53      -0.2867
     11  CB        45.4140    7.6110   40.9900 C.3    53  HIS53       0.0745
     12  CG        45.5310    9.1030   40.9740 C.ar   53  HIS53       0.0817
     13  ND1       45.3960    9.8730   42.1100 N.ar   53  HIS53      -0.2268
     14  CD2       45.7720    9.9680   39.9610 C.ar   53  HIS53       0.1154
     15  CE1       45.5490   11.1470   41.7980 C.ar   53  HIS53       0.1986
     16  NE2       45.7770   11.2330   40.4990 N.ar   53  HIS53      -0.2212
     17  N         42.4440    3.7740   40.3050 N.3    57  HIS57      -0.1241
     18  CA        42.3620    5.1190   40.8780 C.3    57  HIS57       0.1621
     19  C         41.9120    5.0620   42.3360 C.2    57  HIS57       0.2264
     20  O         40.9540    5.7220   42.7280 O.2    57  HIS57      -0.2867
     21  CB        41.4300    6.0190   40.0560 C.3    57  HIS57       0.0745
     22  CG        41.6970    7.4840   40.2280 C.ar   57  HIS57       0.0817
     23  ND1       42.1140    8.2900   39.1910 N.ar   57  HIS57      -0.2268
     24  CD2       41.6140    8.2850   41.3170 C.ar   57  HIS57       0.1154
     25  CE1       42.2720    9.5260   39.6320 C.ar   57  HIS57       0.1986
     26  NE2       41.9770    9.5490   40.9190 N.ar   57  HIS57      -0.2212
     27  N         45.2920   11.9170   45.9700 N.3    61  PRO61      -0.2116
     28  CA        46.4680   12.7700   45.7410 C.3    61  PRO61       0.1372
     29  C         47.4290   12.8800   46.9320 C.2    61  PRO61       0.2244
     30  O         48.6400   12.9410   46.7200 O.2    61  PRO61      -0.2868
     31  CB        45.8420   14.1320   45.4350 C.3    61  PRO61       0.0268
     32  CG        44.5620   13.7840   44.7610 C.3    61  PRO61       0.0207
     33  CD        44.0570   12.5520   45.4780 C.3    61  PRO61       0.0892
     34  N         45.0590   16.7760   35.8230 N.3    86  ALA86      -0.1231
     35  CA        43.7140   17.3380   35.7570 C.3    86  ALA86       0.1694
     36  C         43.6190   18.5190   36.7150 C.2    86  ALA86       0.2592
     37  O         44.2080   18.5000   37.7970 O.2    86  ALA86      -0.2718
     38  CB        42.6660   16.2830   36.0940 C.3    86  ALA86       0.0304
     39  N         42.8830   19.5500   36.3170 N.am   87  CYS87      -0.1956
     40  CA        42.8400   20.7700   37.1070 C.3    87  CYS87       0.1843
     41  C         41.5730   21.5730   36.8730 C.2    87  CYS87       0.2626
     42  O         40.8250   21.3190   35.9290 O.2    87  CYS87      -0.2714
     43  CB        44.0540   21.6410   36.7790 C.3    87  CYS87       0.0997
     44  SG        43.9810   22.3940   35.1390 S.3    87  CYS87      -0.0797
     45  N         41.3410   22.5470   37.7470 N.am   88  GLY88      -0.1954
     46  CA        40.2630   23.5020   37.5680 C.3    88  GLY88       0.1869
     47  C         40.8180   24.8770   37.2410 C.2    88  GLY88       0.2309
     48  O         41.8650   25.2670   37.7540 O.2    88  GLY88      -0.2863
     49  N         46.7550   22.1770   45.9090 N.3   180  ILE180     -0.1245
     50  CA        46.1600   21.9810   47.2240 C.3   180  ILE180      0.1561
     51  C         46.2470   20.5070   47.5910 C.2   180  ILE180      0.2260
     52  O         46.4380   19.6560   46.7230 O.2   180  ILE180     -0.2867
     53  CB        44.6910   22.4510   47.2840 C.3   180  ILE180      0.0252
     54  CG1       43.8220   21.6430   46.3180 C.3   180  ILE180      0.0019
     55  CG2       44.5880   23.9470   46.9950 C.3   180  ILE180      0.0019
     56  CD1       42.3760   22.0930   46.2830 C.3   180  ILE180      0.0001
     57  N         41.5310   15.7880   49.9850 N.3   183  PRO183     -0.2116
     58  CA        40.8330   15.3910   48.7570 C.3   183  PRO183      0.1372
     59  C         39.6800   16.3060   48.3380 C.2   183  PRO183      0.2244
     60  O         39.2130   16.1840   47.2080 O.2   183  PRO183     -0.2868
     61  CB        40.2970   14.0010   49.1070 C.3   183  PRO183      0.0268
     62  CG        40.0640   14.0660   50.5770 C.3   183  PRO183      0.0207
     63  CD        41.1810   14.9150   51.1200 C.3   183  PRO183      0.0892
     64  N         37.4660   19.6310   47.1600 N.3   185  PHE185     -0.1227
     65  CA        37.6700   20.7650   46.2730 C.3   185  PHE185      0.1736
     66  C         37.6550   22.0510   47.0900 C.2   185  PHE185      0.2596
     67  O         37.2840   22.0470   48.2640 O.2   185  PHE185     -0.2718
     68  CB        36.6020   20.8090   45.1810 C.3   185  PHE185      0.0547
     69  CG        36.6820   19.6650   44.2130 C.ar  185  PHE185     -0.0202
     70  CD1       37.7190   19.5890   43.2990 C.ar  185  PHE185     -0.0042
     71  CD2       35.7150   18.6670   44.2130 C.ar  185  PHE185     -0.0042
     72  CE1       37.8000   18.5400   42.4060 C.ar  185  PHE185     -0.0003
     73  CE2       35.7860   17.6120   43.3210 C.ar  185  PHE185     -0.0003
     74  CZ        36.8310   17.5480   42.4150 C.ar  185  PHE185     -0.0000
     75  N         38.0610   23.1500   46.4690 N.am  186  SER186     -0.1952
     76  CA        38.1680   24.4160   47.1780 C.3   186  SER186      0.1924
     77  C         36.7950   24.9940   47.5020 C.2   186  SER186      0.2314
     78  O         35.8010   24.6730   46.8500 O.2   186  SER186     -0.2863
     79  CB        38.9650   25.4250   46.3470 C.3   186  SER186      0.2116
     80  OG        40.1960   24.8700   45.9160 O.3   186  SER186     -0.2180
     81  N         43.9980   25.2690   39.4820 N.3   202  VAL202     -0.1231
     82  CA        44.0780   24.6070   40.7740 C.3   202  VAL202      0.1692
     83  C         44.0730   23.0880   40.5720 C.2   202  VAL202      0.2592
     84  O         43.2960   22.5610   39.7720 O.2   202  VAL202     -0.2718
     85  CB        42.9270   25.0580   41.7080 C.3   202  VAL202      0.0266
     86  CG1       41.5730   24.8220   41.0530 C.3   202  VAL202      0.0020
     87  CG2       43.0140   24.3580   43.0620 C.3   202  VAL202      0.0020
     88  N         44.9510   22.3910   41.2880 N.am  203  ASN203     -0.1960
     89  CA        45.1580   20.9600   41.0780 C.3   203  ASN203      0.1819
     90  C         45.7060   20.3110   42.3540 C.2   203  ASN203      0.2621
     91  O         46.1210   21.0140   43.2710 O.2   203  ASN203     -0.2715
     92  CB        46.0650   20.7600   39.8530 C.3   203  ASN203      0.1195
     93  CG        47.0030   19.5760   39.9840 C.2   203  ASN203      0.2630
     94  OD1       48.1080   19.7020   40.5120 O.2   203  ASN203     -0.2716
     95  ND2       46.5710   18.4200   39.4890 N.am  203  ASN203     -0.0877
     96  N         45.6860   18.9820   42.4350 N.am  204  MET204     -0.1963
     97  CA        46.1040   18.3020   43.6600 C.3   204  MET204      0.1736
     98  C         47.3670   17.4520   43.5400 C.2   204  MET204      0.2617
     99  O         47.7990   16.8550   44.5240 O.2   204  MET204     -0.2715
    100  CB        44.9750   17.4120   44.1810 C.3   204  MET204      0.0427
    101  CG        43.6860   18.1390   44.5010 C.3   204  MET204      0.0599
    102  SD        42.3990   16.9850   45.0120 S.3   204  MET204     -0.1393
    103  CE        41.0170   18.1120   45.1980 C.3   204  MET204      0.0692
    104  N         47.9630   17.3850   42.3530 N.am  205  THR205     -0.1951
    105  CA        48.9780   16.3610   42.1080 C.3   205  THR205      0.1897
    106  C         50.3450   16.8420   41.6090 C.2   205  THR205      0.2313
    107  O         51.3000   16.0610   41.5790 O.2   205  THR205     -0.2863
    108  CB        48.4470   15.2920   41.1300 C.3   205  THR205      0.1794
    109  OG1       48.0110   15.9260   39.9230 O.3   205  THR205     -0.2208
    110  CG2       47.2760   14.5330   41.7480 C.3   205  THR205      0.0378
    111  N         39.5650   20.5780   33.3600 N.3   227  THR227     -0.1218
    112  CA        38.3350   19.7980   33.3730 C.3   227  THR227      0.1862
    113  C         37.1290   20.7190   33.4680 C.2   227  THR227      0.2287
    114  O         36.0980   20.4720   32.8430 O.2   227  THR227     -0.2866
    115  CB        38.3130   18.7970   34.5440 C.3   227  THR227      0.1770
    116  OG1       38.3550   19.5080   35.7880 O.3   227  THR227     -0.2211
    117  CG2       39.5060   17.8610   34.4650 C.3   227  THR227      0.0375
    118  N         35.9370   25.0500   35.1780 N.3   229  PHE229     -0.1227
    119  CA        36.2930   26.1990   35.9920 C.3   229  PHE229      0.1736
    120  C         36.2160   25.7970   37.4560 C.2   229  PHE229      0.2595
    121  O         35.3730   24.9850   37.8380 O.2   229  PHE229     -0.2718
    122  CB        35.3430   27.3700   35.7380 C.3   229  PHE229      0.0547
    123  CG        35.4720   27.9760   34.3730 C.ar  229  PHE229     -0.0202
    124  CD1       36.5420   28.7980   34.0640 C.ar  229  PHE229     -0.0042
    125  CD2       34.5110   27.7400   33.4030 C.ar  229  PHE229     -0.0042
    126  CE1       36.6610   29.3640   32.8070 C.ar  229  PHE229     -0.0003
    127  CE2       34.6180   28.3040   32.1450 C.ar  229  PHE229     -0.0003
    128  CZ        35.6960   29.1160   31.8450 C.ar  229  PHE229     -0.0000
    129  N         37.0930   26.3640   38.2760 N.am  230  ASP230     -0.1974
    130  CA        36.9830   26.1950   39.7170 C.3   230  ASP230      0.1709
    131  C         35.7440   26.9630   40.1720 C.2   230  ASP230      0.2293
    132  O         35.1330   27.6830   39.3820 O.2   230  ASP230     -0.2864
    133  CB        38.2370   26.7100   40.4250 C.3   230  ASP230      0.1436
    134  CG        38.4270   26.0970   41.8020 C.2   230  ASP230      0.3671
    135  OD1       38.0940   24.9050   41.9800 O.co2 230  ASP230     -0.2456
    136  OD2       38.9190   26.8070   42.7050 O.co2 230  ASP230     -0.2456
@<TRIPOS>BOND
     1   128   127   ar
     2   128   126   ar
     3   127   125   ar
     4   126   124   ar
     5   114   113    2
     6   111   112    1
     7   112   113    1
     8   112   115    1
     9   125   123   ar
    10     4     3    2
    11   124   123   ar
    12     3     2    1
    13   123   122    1
    14   117   115    1
    15   115   116    1
    16    44    43    1
    17   118   119    1
    18   122   119    1
    19    35    34    1
    20    35    38    1
    21    35    36    1
    22     2     1    1
    23     2     5    1
    24    42    41    2
    25   119   120    1
    26    39    36   am
    27    39    40    1
    28     5     6    1
    29    36    37    2
    30    43    40    1
    31    41    40    1
    32    41    45   am
    33    47    46    1
    34    47    48    2
    35   120   121    2
    36   120   129   am
    37    46    45    1
    38   129   130    1
    39    23    25   ar
    40    23    22   ar
    41   132   131    2
    42    81    82    1
    43    95    93   am
    44    25    26   ar
    45   130   131    1
    46   130   133    1
    47    84    83    2
    48    92    93    1
    49    92    89    1
    50   109   108    1
    51    14    16   ar
    52    14    12   ar
    53    93    94    2
    54    21    22    1
    55    21    18    1
    56     7     8    1
    57    22    24   ar
    58    17    18    1
    59   133   134    1
    60    16    15   ar
    61    83    82    1
    62    83    88   am
    63    82    85    1
    64    18    19    1
    65    26    24   ar
    66    12    11    1
    67    12    13   ar
    68    11     8    1
    69    86    85    1
    70    89    88    1
    71    89    90    1
    72   108   110    1
    73   108   105    1
    74     8     9    1
    75     9    10    2
    76   107   106    2
    77   106   105    1
    78    85    87    1
    79    15    13   ar
    80   134   135   ar
    81   134   136   ar
    82   105   104    1
    83    19    20    2
    84   104    98   am
    85    90    96   am
    86    90    91    2
    87    72    74   ar
    88    72    70   ar
    89    74    73   ar
    90    96    97    1
    91    70    69   ar
    92    73    71   ar
    93    98    97    1
    94    98    99    2
    95    97   100    1
    96   100   101    1
    97    69    71   ar
    98    69    68    1
    99   101   102    1
   100    32    31    1
   101    32    33    1
   102   102   103    1
   103    68    65    1
   104    31    28    1
   105    33    27    1
   106    28    27    1
   107    28    29    1
   108    49    50    1
   109    80    79    1
   110    65    66    1
   111    65    64    1
   112    56    54    1
   113    54    53    1
   114    79    76    1
   115    75    66   am
   116    75    76    1
   117    30    29    2
   118    52    51    2
   119    78    77    2
   120    55    53    1
   121    66    67    2
   122    76    77    1
   123    60    59    2
   124    50    53    1
   125    50    51    1
   126    59    58    1
   127    58    61    1
   128    58    57    1
   129    61    62    1
   130    57    63    1
   131    62    63    1
