@<TRIPOS>MOLECULE
tmp/4l5bA00.pdb
 197 183 0 0 0
SMALL
GASTEIGER

@<TRIPOS>ATOM
      1  N        -27.0610   17.7520    2.5190 N.3    11  ILE11      -0.1245
      2  CA       -27.5470   18.5920    1.4330 C.3    11  ILE11       0.1561
      3  C        -27.6640   19.9930    2.0340 C.2    11  ILE11       0.2260
      4  O        -28.2460   20.1750    3.1090 O.2    11  ILE11      -0.2867
      5  CB       -28.9080   18.0930    0.8980 C.3    11  ILE11       0.0252
      6  CG1      -28.7890   16.6550    0.3400 C.3    11  ILE11       0.0019
      7  CG2      -29.4640   19.0620   -0.1460 C.3    11  ILE11       0.0019
      8  CD1      -30.1210   15.9900   -0.0070 C.3    11  ILE11       0.0001
      9  N        -18.3290   17.6990   -6.5320 N.3    34  GLU34      -0.1245
     10  CA       -19.1620   16.5050   -6.6970 C.3    34  GLU34       0.1567
     11  C        -19.9630   16.6530   -7.9900 C.2    34  GLU34       0.2260
     12  O        -20.6310   17.6600   -8.2020 O.2    34  GLU34      -0.2867
     13  CB       -20.1320   16.4040   -5.5400 C.3    34  GLU34       0.0388
     14  CG       -21.1250   15.2620   -5.6570 C.3    34  GLU34       0.1160
     15  CD       -21.9510   15.1330   -4.4060 C.2    34  GLU34       0.3649
     16  OE1      -21.5120   14.3870   -3.5320 O.co2  34  GLU34      -0.2457
     17  OE2      -23.0140   15.7860   -4.3060 O.co2  34  GLU34      -0.2457
     18  N        -22.7120   15.1990   -8.9020 N.3    36  VAL36      -0.1245
     19  CA       -24.1580   15.3520   -8.7210 C.3    36  VAL36       0.1561
     20  C        -24.5550   16.8440   -8.7480 C.2    36  VAL36       0.2260
     21  O        -25.5560   17.2270   -9.3840 O.2    36  VAL36      -0.2867
     22  CB       -24.6940   14.6840   -7.4210 C.3    36  VAL36       0.0252
     23  CG1      -26.2160   14.8730   -7.3250 C.3    36  VAL36       0.0019
     24  CG2      -24.3900   13.2030   -7.4150 C.3    36  VAL36       0.0019
     25  N        -26.9730   19.4340  -11.1500 N.3    40  SER40      -0.1217
     26  CA       -28.0540   20.3360  -10.6860 C.3    40  SER40       0.1889
     27  C        -27.7000   21.7830  -11.0120 C.2    40  SER40       0.2288
     28  O        -27.5710   22.6070  -10.1070 O.2    40  SER40      -0.2866
     29  CB       -28.3040   20.2250   -9.1640 C.3    40  SER40       0.2089
     30  OG       -27.8970   18.9820   -8.6220 O.3    40  SER40      -0.2183
     31  N        -30.7010   12.4550  -12.8450 N.3    53  LEU53      -0.1245
     32  CA       -31.1290   13.1760  -11.6300 C.3    53  LEU53       0.1561
     33  C        -32.6140   13.5010  -11.6950 C.2    53  LEU53       0.2260
     34  O        -33.3650   13.2980  -10.7380 O.2    53  LEU53      -0.2867
     35  CB       -30.3000   14.4420  -11.3890 C.3    53  LEU53       0.0270
     36  CG       -30.5890   15.1590  -10.0540 C.3    53  LEU53       0.0019
     37  CD1      -30.7490   14.2250   -8.8690 C.3    53  LEU53       0.0001
     38  CD2      -29.5130   16.2060   -9.7830 C.3    53  LEU53       0.0001
     39  N        -34.4570   10.1960  -11.0920 N.3    56  MET56      -0.1230
     40  CA       -34.3100    9.8690   -9.6630 C.3    56  MET56       0.1702
     41  C        -35.3020   10.6830   -8.7800 C.2    56  MET56       0.2592
     42  O        -35.8420   10.1580   -7.8000 O.2    56  MET56      -0.2718
     43  CB       -32.8410   10.1170   -9.2820 C.3    56  MET56       0.0401
     44  CG       -32.4880   10.0360   -7.7940 C.3    56  MET56       0.0596
     45  SD       -32.6870    8.4050   -7.0670 S.3    56  MET56      -0.1393
     46  CE       -32.2070    8.7460   -5.3830 C.3    56  MET56       0.0692
     47  N        -35.5160   11.9530   -9.1240 N.am   57  TYR57      -0.1976
     48  CA       -36.5370   12.8110   -8.4670 C.3    57  TYR57       0.1639
     49  C        -37.9480   12.2390   -8.6680 C.2    57  TYR57       0.2290
     50  O        -38.6280   11.8830   -7.7020 O.2    57  TYR57      -0.2864
     51  CB       -36.4190   14.2590   -8.9540 C.3    57  TYR57       0.0560
     52  CG       -35.5060   15.0930   -8.0800 C.ar   57  TYR57      -0.0198
     53  CD1      -35.7670   15.2280   -6.7190 C.ar   57  TYR57      -0.0009
     54  CD2      -34.3800   15.7390   -8.6060 C.ar   57  TYR57      -0.0009
     55  CE1      -34.9480   15.9910   -5.9000 C.ar   57  TYR57       0.0417
     56  CE2      -33.5460   16.5030   -7.7880 C.ar   57  TYR57       0.0417
     57  CZ       -33.8620   16.6320   -6.4330 C.ar   57  TYR57       0.1957
     58  OH       -33.0700   17.3710   -5.6170 O.3    57  TYR57      -0.2866
     59  N        -37.7820    7.6160   -7.4200 N.3    60  PRO60      -0.2116
     60  CA       -36.5310    7.0880   -6.8430 C.3    60  PRO60       0.1372
     61  C        -36.4100    5.5650   -6.7950 C.2    60  PRO60       0.2244
     62  O        -35.3030    5.0360   -6.9530 O.2    60  PRO60      -0.2868
     63  CB       -36.5340    7.6330   -5.4080 C.3    60  PRO60       0.0268
     64  CG       -37.8330    8.3560   -5.2230 C.3    60  PRO60       0.0207
     65  CD       -38.3480    8.6950   -6.5870 C.3    60  PRO60       0.0892
     66  N        -28.7300    5.8210  -10.9200 N.3    67  PHE67      -0.1227
     67  CA       -28.1870    7.0690  -10.3790 C.3    67  PHE67       0.1736
     68  C        -26.9510    6.8560   -9.4980 C.2    67  PHE67       0.2595
     69  O        -25.9330    7.5540   -9.6970 O.2    67  PHE67      -0.2718
     70  CB       -29.3020    7.8820   -9.6600 C.3    67  PHE67       0.0547
     71  CG       -28.7970    8.9940   -8.7600 C.ar   67  PHE67      -0.0202
     72  CD1      -28.1760   10.1310   -9.2820 C.ar   67  PHE67      -0.0042
     73  CD2      -28.9670    8.9120   -7.3820 C.ar   67  PHE67      -0.0042
     74  CE1      -27.7320   11.1770   -8.4460 C.ar   67  PHE67      -0.0003
     75  CE2      -28.5370    9.9460   -6.5440 C.ar   67  PHE67      -0.0003
     76  CZ       -27.9090   11.0680   -7.0700 C.ar   67  PHE67      -0.0000
     77  N        -27.0210    5.9170   -8.5440 N.am   68  GLN68      -0.1979
     78  CA       -25.9210    5.6840   -7.5940 C.3    68  GLN68       0.1601
     79  C        -24.6520    5.1730   -8.2720 C.2    68  GLN68       0.2287
     80  O        -23.5530    5.6850   -8.0170 O.2    68  GLN68      -0.2864
     81  CB       -26.2960    4.7570   -6.4390 C.3    68  GLN68       0.0394
     82  CG       -27.2290    5.3940   -5.4040 C.3    68  GLN68       0.0908
     83  CD       -26.6320    6.6160   -4.7110 C.2    68  GLN68       0.2608
     84  OE1      -25.5350    6.5590   -4.1540 O.2    68  GLN68      -0.2717
     85  NE2      -27.3500    7.7200   -4.7450 N.am   68  GLN68      -0.0878
     86  N        -23.4150    8.2650  -10.3870 N.3    71  ALA71      -0.1245
     87  CA       -22.7810    9.2750   -9.5250 C.3    71  ALA71       0.1562
     88  C        -21.3960    8.8290   -9.0200 C.2    71  ALA71       0.2260
     89  O        -20.4570    9.6320   -9.0070 O.2    71  ALA71      -0.2867
     90  CB       -23.6940    9.6560   -8.3840 C.3    71  ALA71       0.0290
     91  N        -17.8670   10.5510   -9.9680 N.3    75  ARG75      -0.1245
     92  CA       -16.9520   10.9980   -8.9130 C.3    75  ARG75       0.1563
     93  C        -15.5370   10.3750   -8.9900 C.2    75  ARG75       0.2260
     94  O        -14.5320   11.0700   -8.7870 O.2    75  ARG75      -0.2867
     95  CB       -17.5640   10.7360   -7.5300 C.3    75  ARG75       0.0307
     96  CG       -16.6620   11.2640   -6.4150 C.3    75  ARG75       0.0489
     97  CD       -17.0390   10.6370   -5.0670 C.3    75  ARG75       0.2205
     98  NE       -18.4190   10.8990   -4.6610 N.pl3  75  ARG75      -0.0865
     99  CZ       -18.9200   12.1000   -4.3650 C.cat  75  ARG75       0.5346
    100  NH1      -20.1800   12.1970   -3.9940 N.pl3  75  ARG75       0.1354
    101  NH2      -18.1890   13.2120   -4.4880 N.pl3  75  ARG75       0.1354
    102  N        -17.3220   15.5820   -0.9760 N.3    99  ARG99      -0.1245
    103  CA       -17.7840   14.2210   -0.7620 C.3    99  ARG99       0.1563
    104  C        -16.8910   13.1700   -1.4400 C.2    99  ARG99       0.2260
    105  O        -15.8600   13.4730   -2.0450 O.2    99  ARG99      -0.2867
    106  CB       -19.2510   14.0400   -1.1300 C.3    99  ARG99       0.0307
    107  CG       -20.1980   14.8520   -0.2730 C.3    99  ARG99       0.0489
    108  CD       -21.5570   14.2030   -0.3140 C.3    99  ARG99       0.2205
    109  NE       -22.6060   14.8860    0.4550 N.pl3  99  ARG99      -0.0865
    110  CZ       -23.6870   15.4740   -0.0680 C.cat  99  ARG99       0.5346
    111  NH1      -23.8840   15.5310   -1.3880 N.pl3  99  ARG99       0.1354
    112  NH2      -24.5830   16.0230    0.7390 N.pl3  99  ARG99       0.1354
    113  N        -20.9490    8.1210   -1.0110 N.3   104  ASP104     -0.1239
    114  CA       -21.7840    7.4960   -2.0330 C.3   104  ASP104      0.1674
    115  C        -22.4320    6.1930   -1.5250 C.2   104  ASP104      0.2266
    116  O        -23.6380    6.0180   -1.6570 O.2   104  ASP104     -0.2867
    117  CB       -20.9740    7.2350   -3.3090 C.3   104  ASP104      0.1410
    118  CG       -20.5350    8.5070   -4.0040 C.2   104  ASP104      0.3668
    119  OD1      -21.2480    9.5540   -3.9420 O.co2 104  ASP104     -0.2456
    120  OD2      -19.4730    8.4470   -4.6820 O.co2 104  ASP104     -0.2456
    121  N        -25.4760    7.6270    1.1870 N.3   108  PHE108     -0.1241
    122  CA       -26.5920    7.8560    0.2800 C.3   108  PHE108      0.1605
    123  C        -27.1620    6.5530   -0.3150 C.2   108  PHE108      0.2264
    124  O        -28.3780    6.3740   -0.3600 O.2   108  PHE108     -0.2867
    125  CB       -26.2160    8.8500   -0.8140 C.3   108  PHE108      0.0534
    126  CG       -25.9410   10.2240   -0.2910 C.ar  108  PHE108     -0.0203
    127  CD1      -24.6450   10.6350   -0.0460 C.ar  108  PHE108     -0.0042
    128  CD2      -26.9920   11.0870    0.0140 C.ar  108  PHE108     -0.0042
    129  CE1      -24.3840   11.8900    0.4820 C.ar  108  PHE108     -0.0003
    130  CE2      -26.7410   12.3540    0.5220 C.ar  108  PHE108     -0.0003
    131  CZ       -25.4350   12.7520    0.7660 C.ar  108  PHE108     -0.0000
    132  N        -28.7280    4.5090    2.5370 N.3   111  ASN111     -0.1225
    133  CA       -30.0150    5.1020    2.9040 C.3   111  ASN111      0.1785
    134  C        -31.1150    4.8400    1.8770 C.2   111  ASN111      0.2597
    135  O        -32.2890    4.7530    2.2300 O.2   111  ASN111     -0.2718
    136  CB       -29.9170    6.6100    3.1810 C.3   111  ASN111      0.1169
    137  CG       -31.2470    7.2090    3.6300 C.2   111  ASN111      0.2627
    138  OD1      -31.8660    7.9970    2.9080 O.2   111  ASN111     -0.2716
    139  ND2      -31.7180    6.7950    4.8030 N.am  111  ASN111     -0.0877
    140  N        -30.7310    4.7170    0.6090 N.am  112  LEU112     -0.1980
    141  CA       -31.6890    4.3700   -0.4270 C.3   112  LEU112      0.1596
    142  C        -32.1120    2.9110   -0.2550 C.2   112  LEU112      0.2287
    143  O        -33.2470    2.5780   -0.5380 O.2   112  LEU112     -0.2864
    144  CB       -31.1320    4.6530   -1.8270 C.3   112  LEU112      0.0297
    145  CG       -31.0690    6.1650   -2.0930 C.3   112  LEU112      0.0022
    146  CD1      -30.2010    6.4960   -3.3100 C.3   112  LEU112      0.0001
    147  CD2      -32.4590    6.7630   -2.2250 C.3   112  LEU112      0.0001
    148  N        -34.6130    2.7970    2.8360 N.3   115  SER115     -0.1217
    149  CA       -35.9220    3.3850    2.6400 C.3   115  SER115      0.1889
    150  C        -36.5660    2.6980    1.4530 C.2   115  SER115      0.2288
    151  O        -37.5540    3.1710    0.9020 O.2   115  SER115     -0.2866
    152  CB       -35.8250    4.8990    2.4490 C.3   115  SER115      0.2089
    153  OG       -35.7440    5.2080    1.0730 O.3   115  SER115     -0.2183
    154  N        -35.8100    1.9850   -1.7110 N.3   117  SER117     -0.1217
    155  CA       -35.6850    2.4650   -3.0980 C.3   117  SER117      0.1889
    156  C        -34.7620    1.5770   -3.9310 C.2   117  SER117      0.2288
    157  O        -34.7400    1.6730   -5.1420 O.2   117  SER117     -0.2866
    158  CB       -35.0870    3.8740   -3.1220 C.3   117  SER117      0.2089
    159  OG       -36.1010    4.8560   -3.0710 O.3   117  SER117     -0.2183
    160  N        -36.1140   22.2320   -8.5860 N.3   167  GLU167     -0.1231
    161  CA       -36.1020   20.7890   -8.4590 C.3   167  GLU167      0.1699
    162  C        -35.9810   20.3560   -6.9900 C.2   167  GLU167      0.2592
    163  O        -36.5150   19.3240   -6.6150 O.2   167  GLU167     -0.2718
    164  CB       -34.9960   20.1700   -9.3360 C.3   167  GLU167      0.0402
    165  CG       -33.6830   20.9470   -9.3770 C.3   167  GLU167      0.1161
    166  CD       -32.5240   20.2360   -8.6810 C.2   167  GLU167      0.3649
    167  OE1      -31.5190   20.9040   -8.3570 O.co2 167  GLU167     -0.2457
    168  OE2      -32.5970   19.0070   -8.4690 O.co2 167  GLU167     -0.2457
    169  N        -35.3250   21.1670   -6.1620 N.am  168  GLU168     -0.1979
    170  CA       -35.0070   20.7790   -4.7710 C.3   168  GLU168      0.1602
    171  C        -35.9900   21.1940   -3.6450 C.2   168  GLU168      0.2287
    172  O        -35.7980   20.8060   -2.4870 O.2   168  GLU168     -0.2864
    173  CB       -33.6030   21.2890   -4.3970 C.3   168  GLU168      0.0415
    174  CG       -32.4310   20.4750   -4.9400 C.3   168  GLU168      0.1163
    175  CD       -31.1210   20.7960   -4.2350 C.2   168  GLU168      0.3649
    176  OE1      -30.9580   21.9290   -3.7280 O.co2 168  GLU168     -0.2457
    177  OE2      -30.2400   19.9140   -4.1710 O.co2 168  GLU168     -0.2457
    178  N        -37.7920   18.4820   -1.3340 N.3   171  ILE171     -0.1245
    179  CA       -37.0350   17.6140   -0.4150 C.3   171  ILE171      0.1561
    180  C        -37.4310   17.9610    1.0290 C.2   171  ILE171      0.2260
    181  O        -37.2810   19.1050    1.4550 O.2   171  ILE171     -0.2867
    182  CB       -35.4960   17.6510   -0.6590 C.3   171  ILE171      0.0252
    183  CG1      -35.1660   17.5160   -2.1660 C.3   171  ILE171      0.0019
    184  CG2      -34.7940   16.5480    0.1250 C.3   171  ILE171      0.0019
    185  CD1      -33.6860   17.5560   -2.5260 C.3   171  ILE171      0.0001
    186  N        -36.2240   13.6130    5.4000 N.3   175  TYR175     -0.1241
    187  CA       -35.1200   13.0940    4.5550 C.3   175  TYR175      0.1605
    188  C        -33.7720   13.7080    4.9820 C.2   175  TYR175      0.2264
    189  O        -32.7910   12.9800    5.1900 O.2   175  TYR175     -0.2867
    190  CB       -35.4010   13.3440    3.0760 C.3   175  TYR175      0.0534
    191  CG       -34.4330   12.6600    2.1280 C.ar  175  TYR175     -0.0201
    192  CD1      -34.2960   11.2790    2.1310 C.ar  175  TYR175     -0.0009
    193  CD2      -33.6670   13.3970    1.2170 C.ar  175  TYR175     -0.0009
    194  CE1      -33.4310   10.6420    1.2670 C.ar  175  TYR175      0.0417
    195  CE2      -32.8040   12.7660    0.3340 C.ar  175  TYR175      0.0417
    196  CZ       -32.6890   11.3830    0.3690 C.ar  175  TYR175      0.1957
    197  OH       -31.8370   10.7070   -0.4900 O.3   175  TYR175     -0.2866
@<TRIPOS>BOND
     1    31    32    1
     2    33    32    1
     3    33    34    2
     4    32    35    1
     5    35    36    1
     6    25    26    1
     7    39    40    1
     8    27    26    1
     9    27    28    2
    10    66    67    1
    11    26    29    1
    12    86    87    1
    13    67    70    1
    14    67    68    1
    15    36    38    1
    16    36    37    1
    17    91    92    1
    18    69    68    2
    19    40    43    1
    20    40    41    1
    21    70    71    1
    22    87    88    1
    23    87    90    1
    24    68    77   am
    25    21    20    2
    26   165   164    1
    27   165   166    1
    28   164   161    1
    29    43    44    1
    30    72    71   ar
    31    72    74   ar
    32    29    30    1
    33    47    41   am
    34    47    48    1
    35    88    89    2
    36    93    92    1
    37    93    94    2
    38    51    48    1
    39    51    52    1
    40    92    95    1
    41    18    19    1
    42    41    42    2
    43    71    73   ar
    44    20    19    1
    45    19    22    1
    46   166   168   ar
    47   166   167   ar
    48    49    48    1
    49    49    50    2
    50    54    52   ar
    51    54    56   ar
    52   160   161    1
    53    77    78    1
    54   161   162    1
    55    74    76   ar
    56    79    80    2
    57    79    78    1
    58    12    11    2
    59    52    53   ar
    60    11    10    1
    61    44    45    1
    62    56    57   ar
    63    78    81    1
    64    95    96    1
    65    22    24    1
    66    22    23    1
    67    59    60    1
    68    59    65    1
    69    73    75   ar
    70    76    75   ar
    71    45    46    1
    72   162   163    2
    73   162   169   am
    74    62    61    2
    75    60    61    1
    76    60    63    1
    77    53    55   ar
    78    10     9    1
    79    10    13    1
    80    65    64    1
    81    81    82    1
    82    57    55   ar
    83    57    58    1
    84    96    97    1
    85   169   170    1
    86    14    13    1
    87    14    15    1
    88    63    64    1
    89    82    83    1
    90   157   156    2
    91    97    98    1
    92   174   173    1
    93   174   175    1
    94   170   173    1
    95   170   171    1
    96    85    83   am
    97    83    84    2
    98   120   118   ar
    99    98    99    2
   100   101    99    1
   101    15    17   ar
   102    15    16   ar
   103    99   100    1
   104   175   177   ar
   105   175   176   ar
   106   118   119   ar
   107   118   117    1
   108   156   155    1
   109   171   172    2
   110   146   145    1
   111   117   114    1
   112   158   155    1
   113   158   159    1
   114   155   154    1
   115   185   183    1
   116   147   145    1
   117   183   182    1
   118   145   144    1
   119   105   104    2
   120   114   115    1
   121   114   113    1
   122   144   141    1
   123   116   115    2
   124   104   103    1
   125   111   110    1
   126   178   179    1
   127   106   103    1
   128   106   107    1
   129   102   103    1
   130   125   126    1
   131   125   122    1
   132   182   179    1
   133   182   184    1
   134   143   142    2
   135   197   196    1
   136   141   142    1
   137   141   140    1
   138   179   180    1
   139   124   123    2
   140   123   122    1
   141   108   107    1
   142   108   109    1
   143   126   127   ar
   144   126   128   ar
   145     7     5    1
   146   110   109    2
   147   110   112    1
   148   127   129   ar
   149     8     6    1
   150   128   130   ar
   151   122   121    1
   152   195   196   ar
   153   195   193   ar
   154     6     5    1
   155   196   194   ar
   156   129   131   ar
   157   130   131   ar
   158   140   134   am
   159     5     2    1
   160   151   150    2
   161   180   181    2
   162   153   152    1
   163   193   191   ar
   164   194   192   ar
   165     2     3    1
   166     2     1    1
   167   150   149    1
   168   134   135    2
   169   134   133    1
   170     3     4    2
   171   191   192   ar
   172   191   190    1
   173   152   149    1
   174   132   133    1
   175   149   148    1
   176   133   136    1
   177   138   137    2
   178   190   187    1
   179   136   137    1
   180   137   139   am
   181   187   188    1
   182   187   186    1
   183   188   189    2
