@<TRIPOS>MOLECULE
tmp/4l5jD00.pdb
 129 122 0 0 0
SMALL
GASTEIGER

@<TRIPOS>ATOM
      1  N         40.7890   42.2340  -19.2320 N.3    90  GLY90      -0.1225
      2  CA        39.4370   41.6980  -19.1940 C.3    90  GLY90       0.1811
      3  C         38.8420   41.6430  -17.7970 C.2    90  GLY90       0.2280
      4  O         37.6270   41.7300  -17.6260 O.2    90  GLY90      -0.2866
      5  N         31.5420   34.7650  -26.3940 N.3   115  PHE115     -0.1227
      6  CA        32.7090   34.2950  -25.6470 C.3   115  PHE115      0.1736
      7  C         33.8160   35.3260  -25.5130 C.2   115  PHE115      0.2596
      8  O         33.6870   36.4530  -25.9840 O.2   115  PHE115     -0.2718
      9  CB        33.2800   33.0260  -26.2750 C.3   115  PHE115      0.0547
     10  CG        33.5540   33.1490  -27.7350 C.ar  115  PHE115     -0.0202
     11  CD1       32.5160   33.0480  -28.6590 C.ar  115  PHE115     -0.0042
     12  CD2       34.8490   33.3850  -28.1940 C.ar  115  PHE115     -0.0042
     13  CE1       32.7620   33.1830  -30.0330 C.ar  115  PHE115     -0.0003
     14  CE2       35.1110   33.5220  -29.5580 C.ar  115  PHE115     -0.0003
     15  CZ        34.0660   33.4210  -30.4810 C.ar  115  PHE115     -0.0000
     16  N         34.9010   34.9270  -24.8500 N.am  116  GLY116     -0.1942
     17  CA        36.0250   35.8200  -24.6400 C.3   116  GLY116      0.2014
     18  C         36.2400   36.1510  -23.1710 C.2   116  GLY116      0.2639
     19  O         35.3340   36.0020  -22.3520 O.2   116  GLY116     -0.2714
     20  N         37.4440   36.6120  -22.8420 N.am  117  GLU117     -0.1963
     21  CA        37.7960   36.9640  -21.4730 C.3   117  GLU117      0.1733
     22  C         36.9890   38.1330  -20.9470 C.2   117  GLU117      0.2616
     23  O         36.5820   38.1420  -19.7850 O.2   117  GLU117     -0.2715
     24  CB        39.2810   37.3120  -21.3810 C.3   117  GLU117      0.0429
     25  CG        40.1630   36.1750  -20.8770 C.3   117  GLU117      0.1163
     26  CD        41.6240   36.5870  -20.7170 C.2   117  GLU117      0.3649
     27  OE1       41.9040   37.5250  -19.9290 O.co2 117  GLU117     -0.2457
     28  OE2       42.4880   35.9660  -21.3830 O.co2 117  GLU117     -0.2457
     29  N         36.7720   39.1230  -21.8070 N.am  118  ALA118     -0.1977
     30  CA        36.0270   40.3120  -21.4360 C.3   118  ALA118      0.1597
     31  C         34.6330   39.9400  -20.9750 C.2   118  ALA118      0.2287
     32  O         34.2380   40.2680  -19.8620 O.2   118  ALA118     -0.2864
     33  CB        35.9520   41.2530  -22.6050 C.3   118  ALA118      0.0319
     34  N         29.1010   41.4060  -25.8000 N.3   199  VAL199     -0.1231
     35  CA        30.1050   40.6200  -26.5130 C.3   199  VAL199      0.1692
     36  C         31.4770   41.2620  -26.4430 C.2   199  VAL199      0.2593
     37  O         31.6250   42.3890  -25.9700 O.2   199  VAL199     -0.2718
     38  CB        29.7320   40.4270  -27.9930 C.3   199  VAL199      0.0266
     39  CG1       28.3480   39.8630  -28.0920 C.3   199  VAL199      0.0020
     40  CG2       29.8040   41.7360  -28.7280 C.3   199  VAL199      0.0020
     41  N         32.4920   40.5350  -26.8850 N.am  200  GLY200     -0.1942
     42  CA        33.8190   41.1160  -26.8800 C.3   200  GLY200      0.2014
     43  C         34.1240   41.6580  -28.2660 C.2   200  GLY200      0.2639
     44  O         33.2360   41.7700  -29.1110 O.2   200  GLY200     -0.2714
     45  N         35.3800   42.0070  -28.5050 N.am  201  ILE201     -0.1963
     46  CA        35.7960   42.5090  -29.8140 C.3   201  ILE201      0.1727
     47  C         37.2550   42.1420  -30.0360 C.2   201  ILE201      0.2616
     48  O         38.1350   42.5150  -29.2500 O.2   201  ILE201     -0.2715
     49  CB        35.6490   44.0460  -29.9410 C.3   201  ILE201      0.0290
     50  CG1       34.1780   44.4440  -29.8540 C.3   201  ILE201      0.0022
     51  CG2       36.2000   44.5080  -31.2760 C.3   201  ILE201      0.0023
     52  CD1       33.9600   45.9280  -29.6980 C.3   201  ILE201      0.0001
     53  N         37.4980   41.3810  -31.0950 N.am  202  GLY202     -0.1955
     54  CA        38.8510   40.9810  -31.4130 C.3   202  GLY202      0.1869
     55  C         39.3930   41.9680  -32.4180 C.2   202  GLY202      0.2309
     56  O         38.6250   42.5760  -33.1660 O.2   202  GLY202     -0.2863
     57  N         45.9710   42.2440  -32.8850 N.3   206  GLN206     -0.1245
     58  CA        46.3630   41.4330  -31.7270 C.3   206  GLN206      0.1566
     59  C         47.2970   40.2630  -32.0830 C.2   206  GLN206      0.2260
     60  O         47.8850   39.6290  -31.1960 O.2   206  GLN206     -0.2867
     61  CB        45.1150   40.8790  -31.0060 C.3   206  GLN206      0.0367
     62  CG        44.3320   41.8760  -30.1260 C.3   206  GLN206      0.0905
     63  CD        43.1760   41.2120  -29.3630 C.2   206  GLN206      0.2608
     64  OE1       42.1850   40.7740  -29.9590 O.2   206  GLN206     -0.2717
     65  NE2       43.3100   41.1290  -28.0420 N.am  206  GLN206     -0.0878
     66  N         42.0830   36.0830  -28.6910 N.3   211  THR211     -0.1203
     67  CA        41.4150   34.8910  -28.1800 C.3   211  THR211      0.1994
     68  C         40.9710   34.0140  -29.3430 C.2   211  THR211      0.2617
     69  O         40.9390   32.7920  -29.2360 O.2   211  THR211     -0.2717
     70  CB        40.1920   35.2540  -27.3210 C.3   211  THR211      0.1784
     71  OG1       40.4170   36.5170  -26.6840 O.3   211  THR211     -0.2211
     72  CG2       39.9690   34.1910  -26.2450 C.3   211  THR211      0.0376
     73  N         40.6490   34.6540  -30.4600 N.am  212  ILE212     -0.1979
     74  CA        40.2070   33.9600  -31.6690 C.3   212  ILE212      0.1595
     75  C         41.2010   32.8900  -32.1320 C.2   212  ILE212      0.2287
     76  O         40.8110   31.8130  -32.5840 O.2   212  ILE212     -0.2864
     77  CB        40.0410   34.9370  -32.8510 C.3   212  ILE212      0.0276
     78  CG1       39.3490   36.2300  -32.3980 C.3   212  ILE212      0.0022
     79  CG2       39.2610   34.2550  -33.9590 C.3   212  ILE212      0.0022
     80  CD1       40.1950   37.1540  -31.4960 C.3   212  ILE212      0.0001
     81  N         36.8860   41.8150  -35.1220 N.3   234  ASP234     -0.1225
     82  CA        35.7410   40.9130  -35.2540 C.3   234  ASP234      0.1805
     83  C         34.8240   40.8570  -34.0380 C.2   234  ASP234      0.2598
     84  O         35.1400   41.3900  -32.9720 O.2   234  ASP234     -0.2718
     85  CB        36.2320   39.4870  -35.5730 C.3   234  ASP234      0.1424
     86  CG        36.7650   38.7320  -34.3330 C.2   234  ASP234      0.3668
     87  OD1       36.0110   37.9070  -33.7600 O.co2 234  ASP234     -0.2456
     88  OD2       37.9360   38.9580  -33.9350 O.co2 234  ASP234     -0.2456
     89  N         33.6790   40.2060  -34.2310 N.am  235  ILE235     -0.1966
     90  CA        32.6870   39.9890  -33.1840 C.3   235  ILE235      0.1727
     91  C         32.0410   38.6390  -33.4570 C.2   235  ILE235      0.2616
     92  O         31.3610   38.4650  -34.4620 O.2   235  ILE235     -0.2715
     93  CB        31.5790   41.0600  -33.1840 C.3   235  ILE235      0.0290
     94  CG1       32.1370   42.4000  -32.7110 C.3   235  ILE235      0.0022
     95  CG2       30.4500   40.6310  -32.2650 C.3   235  ILE235      0.0023
     96  CD1       31.1490   43.5350  -32.7960 C.3   235  ILE235      0.0001
     97  N         32.2760   37.6850  -32.5640 N.am  236  LEU236     -0.1963
     98  CA        31.7160   36.3450  -32.6810 C.3   236  LEU236      0.1728
     99  C         32.2010   35.6070  -33.9270 C.2   236  LEU236      0.2616
    100  O         31.6020   34.6020  -34.3500 O.2   236  LEU236     -0.2715
    101  CB        30.1850   36.4210  -32.6610 C.3   236  LEU236      0.0311
    102  CG        29.6100   36.9920  -31.3600 C.3   236  LEU236      0.0022
    103  CD1       28.1210   37.2180  -31.4970 C.3   236  LEU236      0.0001
    104  CD2       29.9140   36.0390  -30.2130 C.3   236  LEU236      0.0001
    105  N         33.2910   36.1060  -34.5070 N.am  237  GLY237     -0.1955
    106  CA        33.8520   35.4730  -35.6870 C.3   237  GLY237      0.1869
    107  C         33.6750   36.2540  -36.9740 C.2   237  GLY237      0.2309
    108  O         34.4010   36.0320  -37.9450 O.2   237  GLY237     -0.2863
    109  N         32.2950   45.0660  -24.6840 N.3   273  VAL273     -0.1231
    110  CA        33.2890   45.3280  -23.6450 C.3   273  VAL273      0.1692
    111  C         34.6770   44.9330  -24.1720 C.2   273  VAL273      0.2591
    112  O         34.9600   43.7590  -24.4250 O.2   273  VAL273     -0.2718
    113  CB        32.9510   44.5580  -22.3490 C.3   273  VAL273      0.0266
    114  CG1       32.7100   43.1030  -22.6610 C.3   273  VAL273      0.0020
    115  CG2       34.0650   44.7160  -21.3490 C.3   273  VAL273      0.0020
    116  N         35.5290   45.9340  -24.3660 N.am  274  ALA274     -0.1980
    117  CA        36.8660   45.7030  -24.8930 C.3   274  ALA274      0.1597
    118  C         37.8420   46.7950  -24.4800 C.2   274  ALA274      0.2287
    119  O         37.4780   47.9700  -24.3740 O.2   274  ALA274     -0.2864
    120  CB        36.8120   45.6100  -26.4070 C.3   274  ALA274      0.0319
    121  N         43.1180   47.7260  -29.8800 N.3   279  LYS279     -0.1245
    122  CA        41.7480   47.4300  -30.2850 C.3   279  LYS279      0.1561
    123  C         41.0240   48.7200  -30.6620 C.2   279  LYS279      0.2260
    124  O         39.9810   48.6810  -31.3220 O.2   279  LYS279     -0.2867
    125  CB        40.9700   46.7400  -29.1550 C.3   279  LYS279      0.0271
    126  CG        41.4560   45.3490  -28.7830 C.3   279  LYS279      0.0035
    127  CD        40.4580   44.6470  -27.8690 C.3   279  LYS279      0.0206
    128  CE        40.9110   43.2380  -27.5470 C.3   279  LYS279      0.1093
    129  NZ        39.8430   42.4070  -26.9500 N.3   279  LYS279     -0.1314
@<TRIPOS>BOND
     1   108   107    2
     2   107   106    1
     3   106   105    1
     4    85    82    1
     5    85    86    1
     6    82    81    1
     7    82    83    1
     8   105    99   am
     9    92    91    2
    10   100    99    2
    11    86    88   ar
    12    86    87   ar
    13    89    83   am
    14    89    90    1
    15    83    84    2
    16    79    77    1
    17    99    98    1
    18    91    90    1
    19    91    97   am
    20    90    93    1
    21    93    94    1
    22    93    95    1
    23    56    55    2
    24    57    58    1
    25    77    78    1
    26    77    74    1
    27    96    94    1
    28    98   101    1
    29    98    97    1
    30   101   102    1
    31    76    75    2
    32    55    54    1
    33    78    80    1
    34    75    74    1
    35    59    58    1
    36    59    60    2
    37    58    61    1
    38    74    73    1
    39   103   102    1
    40    54    53    1
    41   102   104    1
    42   124   123    2
    43    51    49    1
    44    53    47   am
    45    61    62    1
    46   123   122    1
    47    15    13   ar
    48    15    14   ar
    49    73    68   am
    50   122   121    1
    51   122   125    1
    52    62    63    1
    53    47    46    1
    54    47    48    2
    55    13    11   ar
    56    64    63    2
    57    49    50    1
    58    49    46    1
    59    50    52    1
    60    46    45    1
    61    14    12   ar
    62    63    65   am
    63    68    69    2
    64    68    67    1
    65   125   126    1
    66    44    43    2
    67   126   127    1
    68    40    38    1
    69    66    67    1
    70    11    10   ar
    71    45    43   am
    72    43    42    1
    73    12    10   ar
    74    67    70    1
    75    39    38    1
    76    38    35    1
    77   127   128    1
    78    10     9    1
    79   128   129    1
    80    70    71    1
    81    70    72    1
    82    41    42    1
    83    41    36   am
    84    35    36    1
    85    35    34    1
    86    36    37    2
    87   120   117    1
    88     5     6    1
    89     9     6    1
    90     8     7    2
    91     6     7    1
    92     7    16   am
    93   117   118    1
    94   117   116    1
    95    16    17    1
    96   109   110    1
    97    17    18    1
    98   118   119    2
    99   112   111    2
   100   116   111   am
   101   111   110    1
   102   110   113    1
   103    18    20   am
   104    18    19    2
   105    20    21    1
   106   114   113    1
   107    33    30    1
   108   113   115    1
   109    29    30    1
   110    29    22   am
   111    21    24    1
   112    21    22    1
   113    30    31    1
   114    28    26   ar
   115    24    25    1
   116    31    32    2
   117    22    23    2
   118    25    26    1
   119    26    27   ar
   120     1     2    1
   121     2     3    1
   122     3     4    2
