@<TRIPOS>MOLECULE
tmp/4l5mA00.pdb
 129 125 0 0 0
SMALL
GASTEIGER

@<TRIPOS>ATOM
      1  N         11.7220    1.7150   54.0500 N.3    95  LEU95      -0.1245
      2  CA        11.8540    0.2650   53.9470 C.3    95  LEU95       0.1561
      3  C         11.7300   -0.2520   52.5090 C.2    95  LEU95       0.2260
      4  O         12.1840   -1.3520   52.2190 O.2    95  LEU95      -0.2867
      5  CB        10.8530   -0.4430   54.8650 C.3    95  LEU95       0.0270
      6  CG        11.0200   -0.1800   56.3670 C.3    95  LEU95       0.0019
      7  CD1        9.8840   -0.8160   57.1530 C.3    95  LEU95       0.0001
      8  CD2       12.3610   -0.6750   56.8830 C.3    95  LEU95       0.0001
      9  N         15.5950   -0.1580   50.1460 N.3    98  PHE98      -0.1227
     10  CA        16.6740   -1.1540   50.2910 C.3    98  PHE98       0.1736
     11  C         16.1470   -2.3620   51.0880 C.2    98  PHE98       0.2595
     12  O         15.0710   -2.2790   51.6730 O.2    98  PHE98      -0.2718
     13  CB        17.8700   -0.5400   51.0290 C.3    98  PHE98       0.0547
     14  CG        17.6190   -0.3350   52.4930 C.ar   98  PHE98      -0.0202
     15  CD1       17.9970   -1.2990   53.4220 C.ar   98  PHE98      -0.0042
     16  CD2       16.9560    0.7910   52.9370 C.ar   98  PHE98      -0.0042
     17  CE1       17.7290   -1.1260   54.7690 C.ar   98  PHE98      -0.0003
     18  CE2       16.6890    0.9700   54.2770 C.ar   98  PHE98      -0.0003
     19  CZ        17.0760    0.0130   55.1970 C.ar   98  PHE98      -0.0000
     20  N         16.9050   -3.4630   51.1280 N.am   99  ARG99      -0.1966
     21  CA        16.5890   -4.6370   51.9810 C.3    99  ARG99       0.1729
     22  C         17.8360   -5.0560   52.7850 C.2    99  ARG99       0.2616
     23  O         18.9180   -4.8520   52.2920 O.2    99  ARG99      -0.2715
     24  CB        16.1350   -5.7930   51.0800 C.3    99  ARG99       0.0348
     25  CG        15.7230   -7.0630   51.8100 C.3    99  ARG99       0.0492
     26  CD        15.1830   -8.1060   50.8420 C.3    99  ARG99       0.2205
     27  NE        15.0370   -9.4310   51.4520 N.pl3  99  ARG99      -0.0865
     28  CZ        13.8950   -9.9670   51.8870 C.cat  99  ARG99       0.5346
     29  NH1       12.7410   -9.3100   51.7980 N.pl3  99  ARG99       0.1354
     30  NH2       13.9020  -11.1880   52.4170 N.pl3  99  ARG99       0.1354
     31  N         17.7050   -5.6500   53.9870 N.am  100  LEU100     -0.1964
     32  CA        18.8890   -6.1810   54.7420 C.3   100  LEU100      0.1713
     33  C         18.6260   -7.1070   55.9600 C.2   100  LEU100      0.2458
     34  O         19.0960   -6.8230   57.0870 O.2   100  LEU100     -0.2730
     35  CB        19.8130   -5.0340   55.2160 C.3   100  LEU100      0.0310
     36  CG        21.3250   -5.3120   55.3090 C.3   100  LEU100      0.0022
     37  CD1       22.0000   -4.4520   56.3560 C.3   100  LEU100      0.0001
     38  CD2       21.6880   -6.7640   55.5470 C.3   100  LEU100      0.0001
     39  N         17.9600   -8.2550   55.7410 N.am  101  PRO101     -0.2727
     40  CA        17.5460   -9.0690   56.9020 C.3   101  PRO101      0.1402
     41  C         18.6900   -9.6150   57.7900 C.2   101  PRO101      0.2269
     42  O         19.8510   -9.7110   57.3540 O.2   101  PRO101     -0.2865
     43  CB        16.7620  -10.2220   56.2530 C.3   101  PRO101      0.0296
     44  CG        17.3000  -10.3170   54.8700 C.3   101  PRO101      0.0237
     45  CD        17.6090   -8.9030   54.4630 C.3   101  PRO101      0.0939
     46  N         21.3810   -3.1850   60.8170 N.3   107  ILE107     -0.1245
     47  CA        20.0050   -2.6790   60.8400 C.3   107  ILE107      0.1561
     48  C         19.8650   -1.6000   61.9100 C.2   107  ILE107      0.2260
     49  O         19.1940   -0.5860   61.6880 O.2   107  ILE107     -0.2867
     50  CB        18.9970   -3.8250   61.0460 C.3   107  ILE107      0.0252
     51  CG1       19.0570   -4.7310   59.8010 C.3   107  ILE107      0.0019
     52  CG2       17.6070   -3.2830   61.3540 C.3   107  ILE107      0.0019
     53  CD1       17.8240   -5.5230   59.4800 C.3   107  ILE107      0.0001
     54  N         21.1070    1.6100   60.5510 N.3   110  MET110     -0.1230
     55  CA        20.1790    2.1170   59.5490 C.3   110  MET110      0.1702
     56  C         18.9190    2.6980   60.1830 C.2   110  MET110      0.2592
     57  O         18.4500    3.7670   59.7840 O.2   110  MET110     -0.2718
     58  CB        19.8470    1.0360   58.5340 C.3   110  MET110      0.0401
     59  CG        21.0560    0.6770   57.6970 C.3   110  MET110      0.0596
     60  SD        20.8560   -0.8130   56.7390 S.3   110  MET110     -0.1393
     61  CE        22.3140   -0.7620   55.7310 C.3   110  MET110      0.0692
     62  N         18.3830    2.0070   61.1790 N.am  111  MET111     -0.1979
     63  CA        17.1580    2.4620   61.8250 C.3   111  MET111      0.1605
     64  C         17.3920    3.6380   62.7790 C.2   111  MET111      0.2287
     65  O         16.5190    4.4890   62.9500 O.2   111  MET111     -0.2864
     66  CB        16.4550    1.3030   62.5110 C.3   111  MET111      0.0413
     67  CG        15.8910    0.2900   61.5310 C.3   111  MET111      0.0598
     68  SD        14.6640    0.9740   60.4180 S.3   111  MET111     -0.1393
     69  CE        13.3580    1.3130   61.5890 C.3   111  MET111      0.0692
     70  N         10.3270   -0.0140   65.4210 N.3   137  PHE137     -0.1241
     71  CA        10.3740   -1.4670   65.4870 C.3   137  PHE137      0.1605
     72  C          9.0470   -2.0590   65.9530 C.2   137  PHE137      0.2264
     73  O          8.6730   -3.1520   65.5300 O.2   137  PHE137     -0.2867
     74  CB        11.5290   -1.9400   66.3570 C.3   137  PHE137      0.0534
     75  CG        12.8530   -1.8900   65.6620 C.ar  137  PHE137     -0.0203
     76  CD1       13.1680   -2.8340   64.6920 C.ar  137  PHE137     -0.0042
     77  CD2       13.7760   -0.8880   65.9460 C.ar  137  PHE137     -0.0042
     78  CE1       14.3770   -2.7920   64.0350 C.ar  137  PHE137     -0.0003
     79  CE2       14.9890   -0.8450   65.2820 C.ar  137  PHE137     -0.0003
     80  CZ        15.2890   -1.8000   64.3310 C.ar  137  PHE137     -0.0000
     81  N          7.0480   -2.3130   62.8370 N.3   140  ILE140     -0.1245
     82  CA         7.5430   -3.4090   62.0060 C.3   140  ILE140      0.1561
     83  C          7.0710   -4.7330   62.5720 C.2   140  ILE140      0.2260
     84  O          6.6450   -5.6010   61.8230 O.2   140  ILE140     -0.2867
     85  CB         9.0800   -3.3960   61.8890 C.3   140  ILE140      0.0252
     86  CG1        9.5250   -2.1730   61.0880 C.3   140  ILE140      0.0019
     87  CG2        9.6000   -4.6790   61.2340 C.3   140  ILE140      0.0019
     88  CD1       11.0020   -1.8750   61.1590 C.3   140  ILE140      0.0001
     89  N          3.3210   -5.1370   61.9580 N.3   143  ASN143     -0.1225
     90  CA         3.0860   -5.5590   60.5830 C.3   143  ASN143      0.1785
     91  C          3.1900   -7.0820   60.4240 C.2   143  ASN143      0.2597
     92  O          2.3150   -7.7210   59.8400 O.2   143  ASN143     -0.2718
     93  CB         4.0720   -4.8610   59.6640 C.3   143  ASN143      0.1169
     94  CG         3.9040   -5.2750   58.2360 C.2   143  ASN143      0.2627
     95  OD1        4.6890   -6.0590   57.7040 O.2   143  ASN143     -0.2716
     96  ND2        2.8510   -4.7910   57.6170 N.am  143  ASN143     -0.0877
     97  N          4.2580   -7.6550   60.9640 N.am  144  THR144     -0.1953
     98  CA         4.4480   -9.1050   60.9420 C.3   144  THR144      0.1897
     99  C          3.3470   -9.8400   61.7270 C.2   144  THR144      0.2313
    100  O          2.7760  -10.8050   61.2280 O.2   144  THR144     -0.2863
    101  CB         5.8450   -9.4750   61.4660 C.3   144  THR144      0.1794
    102  OG1        6.8310   -8.8780   60.6170 O.3   144  THR144     -0.2208
    103  CG2        6.0600  -10.9850   61.4950 C.3   144  THR144      0.0378
    104  N          3.1110   -3.3890   55.0730 N.3   190  PHE190     -0.1241
    105  CA         4.3170   -2.8680   54.4500 C.3   190  PHE190      0.1605
    106  C          4.5900   -3.6120   53.1610 C.2   190  PHE190      0.2264
    107  O          4.5070   -4.8410   53.1150 O.2   190  PHE190     -0.2867
    108  CB         5.5380   -3.0340   55.3530 C.3   190  PHE190      0.0534
    109  CG         5.6650   -1.9910   56.4220 C.ar  190  PHE190     -0.0203
    110  CD1        5.5670   -0.6410   56.1180 C.ar  190  PHE190     -0.0042
    111  CD2        5.9360   -2.3570   57.7340 C.ar  190  PHE190     -0.0042
    112  CE1        5.7110    0.3230   57.1080 C.ar  190  PHE190     -0.0003
    113  CE2        6.0810   -1.3980   58.7200 C.ar  190  PHE190     -0.0003
    114  CZ         5.9580   -0.0570   58.4060 C.ar  190  PHE190     -0.0000
    115  N          7.3980   -4.8050   51.2040 N.3   192  ILE192     -0.1231
    116  CA         8.7900   -5.1070   51.5330 C.3   192  ILE192      0.1678
    117  C          9.4640   -5.6280   50.2700 C.2   192  ILE192      0.2434
    118  O          8.9070   -6.4940   49.5960 O.2   192  ILE192     -0.2733
    119  CB         8.8810   -6.1440   52.6770 C.3   192  ILE192      0.0265
    120  CG1        8.2170   -5.5990   53.9550 C.3   192  ILE192      0.0019
    121  CG2       10.3260   -6.5440   52.9420 C.3   192  ILE192      0.0020
    122  CD1        8.8410   -4.3310   54.5130 C.3   192  ILE192      0.0001
    123  N         10.6510   -5.0920   49.9270 N.am  193  PRO193     -0.2729
    124  CA        11.3420   -5.6010   48.7450 C.3   193  PRO193      0.1401
    125  C         11.6180   -7.0930   48.8720 C.2   193  PRO193      0.2269
    126  O         12.0380   -7.5510   49.9330 O.2   193  PRO193     -0.2865
    127  CB        12.6610   -4.8120   48.7300 C.3   193  PRO193      0.0296
    128  CG        12.3830   -3.5790   49.5070 C.3   193  PRO193      0.0237
    129  CD        11.3830   -3.9740   50.5530 C.3   193  PRO193      0.0939
@<TRIPOS>BOND
     1   127   124    1
     2   127   128    1
     3   124   125    1
     4   124   123    1
     5   125   126    2
     6   128   129    1
     7   118   117    2
     8   123   117   am
     9   123   129    1
    10     9    10    1
    11   117   116    1
    12    10    13    1
    13    10    11    1
    14    26    27    1
    15    26    25    1
    16    13    14    1
    17    24    25    1
    18    24    21    1
    19    11    20   am
    20    11    12    2
    21    20    21    1
    22   115   116    1
    23    27    28    2
    24   116   119    1
    25    29    28    1
    26    28    30    1
    27    21    22    1
    28     4     3    2
    29    23    22    2
    30    14    16   ar
    31    14    15   ar
    32     3     2    1
    33   119   121    1
    34   119   120    1
    35    22    31   am
    36    16    18   ar
    37   107   106    2
    38   106   105    1
    39    15    17   ar
    40     2     1    1
    41     2     5    1
    42   120   122    1
    43    31    32    1
    44    18    19   ar
    45   105   104    1
    46   105   108    1
    47    45    44    1
    48    45    39    1
    49    32    35    1
    50    32    33    1
    51    17    19   ar
    52     5     6    1
    53    44    43    1
    54    35    36    1
    55    36    38    1
    56    36    37    1
    57   108   109    1
    58    61    60    1
    59    39    33   am
    60    39    40    1
    61    33    34    2
    62   110   109   ar
    63   110   112   ar
    64    43    40    1
    65     6     8    1
    66     6     7    1
    67   109   111   ar
    68    60    59    1
    69    40    41    1
    70   112   114   ar
    71    42    41    2
    72    96    94   am
    73    59    58    1
    74    95    94    2
    75   111   113   ar
    76    94    93    1
    77   114   113   ar
    78    58    55    1
    79    53    51    1
    80    55    56    1
    81    55    54    1
    82    93    90    1
    83    57    56    2
    84    51    50    1
    85    92    91    2
    86    56    62   am
    87    68    67    1
    88    68    69    1
    89    91    90    1
    90    91    97   am
    91    90    89    1
    92   102   101    1
    93    46    47    1
    94    47    50    1
    95    47    48    1
    96    98    97    1
    97    98   101    1
    98    98    99    1
    99    50    52    1
   100    86    88    1
   101    86    85    1
   102    62    63    1
   103   100    99    2
   104    87    85    1
   105   101   103    1
   106    67    66    1
   107    49    48    2
   108    84    83    2
   109    63    66    1
   110    63    64    1
   111    85    82    1
   112    82    83    1
   113    82    81    1
   114    64    65    2
   115    78    80   ar
   116    78    76   ar
   117    80    79   ar
   118    76    75   ar
   119    79    77   ar
   120    70    71    1
   121    71    72    1
   122    71    74    1
   123    73    72    2
   124    75    77   ar
   125    75    74    1
