@<TRIPOS>MOLECULE
tmp/4l61A00.pdb
 107 100 0 0 0
SMALL
GASTEIGER

@<TRIPOS>ATOM
      1  N         57.0940    2.2600  -21.2470 N.3   437  ILE437     -0.1231
      2  CA        56.1820    1.3920  -20.5490 C.3   437  ILE437      0.1692
      3  C         55.2240    0.6870  -21.4700 C.2   437  ILE437      0.2593
      4  O         54.6640   -0.3270  -21.0930 O.2   437  ILE437     -0.2718
      5  CB        55.4050    2.1910  -19.4700 C.3   437  ILE437      0.0266
      6  CG1       56.3730    2.9540  -18.5440 C.3   437  ILE437      0.0019
      7  CG2       54.4810    1.2580  -18.6550 C.3   437  ILE437      0.0020
      8  CD1       57.3800    2.0970  -17.8180 C.3   437  ILE437      0.0001
      9  N         54.9740    1.2180  -22.6580 N.am  438  GLY438     -0.1942
     10  CA        54.2580    0.4590  -23.6710 C.3   438  GLY438      0.2014
     11  C         53.4380    1.1780  -24.7230 C.2   438  GLY438      0.2639
     12  O         53.5570    0.8700  -25.9420 O.2   438  GLY438     -0.2714
     13  N         52.5520    2.0620  -24.2620 N.am  439  SER439     -0.1949
     14  CA        51.5640    2.6630  -25.1500 C.3   439  SER439      0.1924
     15  C         52.1130    3.9550  -25.6780 C.2   439  SER439      0.2314
     16  O         52.8440    4.6490  -24.9740 O.2   439  SER439     -0.2863
     17  CB        50.2290    2.9210  -24.4220 C.3   439  SER439      0.2116
     18  OG        50.4260    3.7160  -23.2600 O.3   439  SER439     -0.2180
     19  N         50.9590   -0.8070  -28.5850 N.3   489  GLU489     -0.1245
     20  CA        49.6290   -1.3410  -28.2480 C.3   489  GLU489      0.1567
     21  C         48.4070   -0.7740  -29.0640 C.2   489  GLU489      0.2260
     22  O         47.2520   -0.7370  -28.5680 O.2   489  GLU489     -0.2867
     23  CB        49.4000   -1.1860  -26.7370 C.3   489  GLU489      0.0388
     24  CG        50.4480   -1.9150  -25.8950 C.3   489  GLU489      0.1160
     25  CD        50.4110   -1.5590  -24.4250 C.2   489  GLU489      0.3649
     26  OE1       49.3320   -1.3570  -23.8960 O.co2 489  GLU489     -0.2457
     27  OE2       51.4640   -1.5380  -23.7680 O.co2 489  GLU489     -0.2457
     28  N         43.0940   -2.5890  -21.2310 N.3   495  MET495     -0.1245
     29  CA        44.1630   -3.5310  -20.8830 C.3   495  MET495      0.1570
     30  C         43.6290   -4.8200  -20.2510 C.2   495  MET495      0.2261
     31  O         44.3590   -5.7870  -20.0820 O.2   495  MET495     -0.2867
     32  CB        45.2700   -2.8580  -20.0840 C.3   495  MET495      0.0387
     33  CG        44.8730   -2.4090  -18.7010 C.3   495  MET495      0.0595
     34  SD        46.2310   -1.3920  -18.0600 S.3   495  MET495     -0.1393
     35  CE        47.4640   -2.6600  -17.7650 C.3   495  MET495      0.0692
     36  N         54.0430   -7.6270  -23.9510 N.3   556  MET556     -0.1245
     37  CA        53.2510   -6.7990  -23.0650 C.3   556  MET556      0.1570
     38  C         51.9800   -7.5200  -22.6400 C.2   556  MET556      0.2261
     39  O         51.0930   -7.8060  -23.4750 O.2   556  MET556     -0.2867
     40  CB        52.8850   -5.4760  -23.7410 C.3   556  MET556      0.0387
     41  CG        52.3050   -4.4440  -22.7570 C.3   556  MET556      0.0595
     42  SD        53.6280   -3.8650  -21.6930 S.3   556  MET556     -0.1393
     43  CE        54.9470   -3.5040  -22.8650 C.3   556  MET556      0.0692
     44  N         39.8500   -5.9490  -11.9280 N.3   566  TRP566     -0.1241
     45  CA        39.0800   -5.0620  -12.8190 C.3   566  TRP566      0.1605
     46  C         37.9590   -5.8580  -13.5230 C.2   566  TRP566      0.2264
     47  O         37.2670   -5.3410  -14.3830 O.2   566  TRP566     -0.2867
     48  CB        39.9920   -4.3200  -13.8140 C.3   566  TRP566      0.0550
     49  CG        40.8440   -3.2320  -13.1470 C.ar  566  TRP566      0.0003
     50  CD1       40.7440   -2.8320  -11.8460 C.ar  566  TRP566      0.0946
     51  CD2       41.8560   -2.3800  -13.7360 C.ar  566  TRP566      0.0152
     52  NE1       41.5840   -1.8180  -11.5890 N.ar  566  TRP566     -0.2442
     53  CE2       42.3140   -1.5300  -12.7140 C.ar  566  TRP566      0.0810
     54  CE3       42.4200   -2.2680  -15.0130 C.ar  566  TRP566      0.0012
     55  CZ2       43.3450   -0.5750  -12.9090 C.ar  566  TRP566      0.0191
     56  CZ3       43.4460   -1.3420  -15.2340 C.ar  566  TRP566      0.0001
     57  CH2       43.9030   -0.4970  -14.1800 C.ar  566  TRP566      0.0015
     58  N         52.1580   -6.0710  -16.4540 N.3   604  ASP604     -0.1239
     59  CA        51.6730   -4.7760  -15.8920 C.3   604  ASP604      0.1674
     60  C         50.6800   -5.1670  -14.7940 C.2   604  ASP604      0.2266
     61  O         49.7420   -5.9620  -15.0810 O.2   604  ASP604     -0.2867
     62  CB        50.8570   -4.0290  -16.9720 C.3   604  ASP604      0.1410
     63  CG        51.6970   -3.3820  -18.0780 C.2   604  ASP604      0.3668
     64  OD1       52.8200   -2.9490  -17.8020 O.co2 604  ASP604     -0.2456
     65  OD2       51.1940   -3.2100  -19.2440 O.co2 604  ASP604     -0.2456
     66  N         48.7060   -2.8660  -12.4090 N.3   606  PRO606     -0.2116
     67  CA        48.3320   -1.5780  -11.8340 C.3   606  PRO606      0.1372
     68  C         47.3450   -1.6900  -10.6970 C.2   606  PRO606      0.2244
     69  O         47.2740   -0.7730   -9.8820 O.2   606  PRO606     -0.2868
     70  CB        47.6850   -0.8080  -13.0330 C.3   606  PRO606      0.0268
     71  CG        47.1980   -1.8750  -13.9760 C.3   606  PRO606      0.0207
     72  CD        48.2730   -2.9740  -13.8290 C.3   606  PRO606      0.0892
     73  N         55.7710   -3.8690  -14.2820 N.3   647  HIS647     -0.1241
     74  CA        55.4300   -2.4740  -14.1700 C.3   647  HIS647      0.1621
     75  C         54.2960   -2.2470  -13.1630 C.2   647  HIS647      0.2264
     76  O         53.3100   -3.0040  -13.1480 O.2   647  HIS647     -0.2867
     77  CB        55.0310   -1.8830  -15.5190 C.3   647  HIS647      0.0745
     78  CG        54.5780   -0.4700  -15.3940 C.ar  647  HIS647      0.0817
     79  ND1       55.4460    0.5480  -15.0840 N.ar  647  HIS647     -0.2268
     80  CD2       53.3440    0.0810  -15.4240 C.ar  647  HIS647      0.1154
     81  CE1       54.7740    1.6770  -14.9640 C.ar  647  HIS647      0.1986
     82  NE2       53.5010    1.4190  -15.1530 N.ar  647  HIS647     -0.2212
     83  N         51.9680    1.0020  -11.2600 N.3   649  CYS649     -0.1235
     84  CA        51.4640    2.3580  -11.2070 C.3   649  CYS649      0.1677
     85  C         51.5520    2.9480   -9.7950 C.2   649  CYS649      0.2270
     86  O         51.6640    4.1300   -9.6590 O.2   649  CYS649     -0.2867
     87  CB        50.0400    2.4010  -11.7980 C.3   649  CYS649      0.0956
     88  SG        50.0750    1.6940  -13.4620 S.3   649  CYS649     -0.0801
     89  N         54.5030    6.0360  -16.6090 N.3   728  CYS728     -0.1221
     90  CA        53.5810    5.0410  -17.1980 C.3   728  CYS728      0.1808
     91  C         53.6170    5.2630  -18.7210 C.2   728  CYS728      0.2601
     92  O         54.4840    5.9950  -19.2500 O.2   728  CYS728     -0.2717
     93  CB        52.1190    5.1640  -16.6210 C.3   728  CYS728      0.0970
     94  SG        51.2140    3.5790  -16.4080 S.3   728  CYS728     -0.0800
     95  N         52.6910    4.6130  -19.4150 N.am  729  GLY729     -0.1957
     96  CA        52.5520    4.7010  -20.8690 C.3   729  GLY729      0.1869
     97  C         52.0620    6.0800  -21.2900 C.2   729  GLY729      0.2309
     98  O         51.6830    6.8630  -20.4570 O.2   729  GLY729     -0.2863
     99  N         49.8350    6.6720  -24.0170 N.3   731  LYS731     -0.1245
    100  CA        48.5530    6.5900  -24.7100 C.3   731  LYS731      0.1561
    101  C         47.8330    7.9000  -24.7930 C.2   731  LYS731      0.2260
    102  O         47.2480    8.2280  -25.8360 O.2   731  LYS731     -0.2867
    103  CB        47.6250    5.5810  -23.9860 C.3   731  LYS731      0.0271
    104  CG        46.6260    4.8950  -24.9120 C.3   731  LYS731      0.0035
    105  CD        46.2040    3.5140  -24.4020 C.3   731  LYS731      0.0206
    106  CE        45.1690    2.8180  -25.2890 C.3   731  LYS731      0.1093
    107  NZ        44.8070    1.4620  -24.8040 N.3   731  LYS731     -0.1314
@<TRIPOS>BOND
     1    21    22    2
     2    21    20    1
     3    19    20    1
     4    20    23    1
     5    23    24    1
     6    12    11    2
     7    24    25    1
     8   102   101    2
     9    15    14    1
    10    15    16    2
    11   106   107    1
    12   106   105    1
    13    14    17    1
    14    14    13    1
    15   104   105    1
    16   104   103    1
    17   101   100    1
    18    11    13   am
    19    11    10    1
    20   100    99    1
    21   100   103    1
    22    25    26   ar
    23    25    27   ar
    24    17    18    1
    25    36    37    1
    26    40    37    1
    27    40    41    1
    28    10     9    1
    29    39    38    2
    30    37    38    1
    31    43    42    1
    32    41    42    1
    33     9     3   am
    34     3     4    2
    35     3     2    1
    36    97    96    1
    37    97    98    2
    38     1     2    1
    39    28    29    1
    40    29    30    1
    41    29    32    1
    42    96    95    1
    43     2     5    1
    44    30    31    2
    45    32    33    1
    46     5     7    1
    47     5     6    1
    48    95    91   am
    49    92    91    2
    50    65    63   ar
    51    91    90    1
    52    33    34    1
    53     6     8    1
    54    63    64   ar
    55    63    62    1
    56    34    35    1
    57    90    93    1
    58    90    89    1
    59    62    59    1
    60    93    94    1
    61    58    59    1
    62    59    60    1
    63    77    78    1
    64    77    74    1
    65    80    78   ar
    66    80    82   ar
    67    78    79   ar
    68    56    54   ar
    69    56    57   ar
    70    82    81   ar
    71    79    81   ar
    72    61    60    2
    73    54    51   ar
    74    47    46    2
    75    73    74    1
    76    57    55   ar
    77    74    75    1
    78    71    72    1
    79    71    70    1
    80    72    66    1
    81    48    49    1
    82    48    45    1
    83    51    49   ar
    84    51    53   ar
    85    46    45    1
    86    88    87    1
    87    75    76    2
    88    49    50   ar
    89    70    67    1
    90    55    53   ar
    91    45    44    1
    92    53    52   ar
    93    66    67    1
    94    50    52   ar
    95    67    68    1
    96    87    84    1
    97    83    84    1
    98    84    85    1
    99    68    69    2
   100    85    86    2
