@<TRIPOS>MOLECULE
tmp/4l6aA00.pdb
 95 96 0 0 0
SMALL
GASTEIGER

@<TRIPOS>ATOM
      1  N          6.3480   34.2220   20.4460 N.3    46  ARG46      -0.1231
      2  CA         5.8220   33.2620   21.4060 C.3    46  ARG46       0.1694
      3  C          6.9190   32.3010   21.8330 C.2    46  ARG46       0.2592
      4  O          7.6950   31.7930   20.9990 O.2    46  ARG46      -0.2718
      5  CB         4.6650   32.4610   20.8390 C.3    46  ARG46       0.0321
      6  CG         3.3500   33.2050   20.9170 C.3    46  ARG46       0.0489
      7  CD         2.7260   33.1970   22.3130 C.3    46  ARG46       0.2205
      8  NE         2.2770   31.8570   22.6200 N.pl3  46  ARG46      -0.0865
      9  CZ         2.8310   31.0250   23.4880 C.cat  46  ARG46       0.5346
     10  NH1        3.7900   31.4080   24.3280 N.pl3  46  ARG46       0.1354
     11  NH2        2.3950   29.7690   23.5160 N.pl3  46  ARG46       0.1354
     12  N          7.0130   32.1170   23.1370 N.am   47  ARG47      -0.1966
     13  CA         7.9640   31.1880   23.7170 C.3    47  ARG47       0.1729
     14  C          7.3180   30.5150   24.9180 C.2    47  ARG47       0.2617
     15  O          6.6780   31.1400   25.7640 O.2    47  ARG47      -0.2715
     16  CB         9.2470   31.8990   24.1610 C.3    47  ARG47       0.0348
     17  CG        10.0500   32.6200   23.0740 C.3    47  ARG47       0.0492
     18  CD        10.7270   31.6860   22.0580 C.3    47  ARG47       0.2205
     19  NE        11.6060   32.4880   21.1910 N.pl3  47  ARG47      -0.0865
     20  CZ        11.1940   33.2280   20.1610 C.cat  47  ARG47       0.5346
     21  NH1        9.9310   33.2550   19.7940 N.pl3  47  ARG47       0.1354
     22  NH2       12.0580   33.9580   19.4830 N.pl3  47  ARG47       0.1354
     23  N          7.4340   29.1950   24.8990 N.am   48  GLY48      -0.1940
     24  CA         6.8910   28.3340   25.9700 C.3    48  GLY48       0.2014
     25  C          5.4420   27.9740   25.7000 C.2    48  GLY48       0.2638
     26  O          4.7000   28.7130   25.0640 O.2    48  GLY48      -0.2714
     27  N          5.0490   26.7830   26.1660 N.am   49  PHE49      -0.1973
     28  CA         3.7840   26.1980   25.8510 C.3    49  PHE49       0.1639
     29  C          2.6080   27.0100   26.3940 C.2    49  PHE49       0.2290
     30  O          1.5560   27.0700   25.7600 O.2    49  PHE49      -0.2864
     31  CB         3.7160   24.7570   26.3760 C.3    49  PHE49       0.0560
     32  CG         2.4920   24.0090   25.9780 C.ar   49  PHE49      -0.0200
     33  CD1        2.2640   23.6100   24.6580 C.ar   49  PHE49      -0.0042
     34  CD2        1.5210   23.7040   26.8930 C.ar   49  PHE49      -0.0042
     35  CE1        1.1420   22.9250   24.3240 C.ar   49  PHE49      -0.0003
     36  CE2        0.4140   22.9880   26.5690 C.ar   49  PHE49      -0.0003
     37  CZ         0.2160   22.5920   25.2640 C.ar   49  PHE49      -0.0000
     38  N          6.0230   20.3190   24.0070 N.3   152  PRO152     -0.2116
     39  CA         7.3150   19.6260   24.0680 C.3   152  PRO152      0.1372
     40  C          7.4410   18.5750   25.1290 C.2   152  PRO152      0.2244
     41  O          8.0540   17.5300   24.8540 O.2   152  PRO152     -0.2868
     42  CB         8.3110   20.7530   24.3480 C.3   152  PRO152      0.0268
     43  CG         7.6590   21.9780   23.8150 C.3   152  PRO152      0.0207
     44  CD         6.1710   21.7760   24.1270 C.3   152  PRO152      0.0892
     45  N          4.5550   27.9610   16.6740 N.3   171  CYS171     -0.1221
     46  CA         5.3390   29.1480   16.9260 C.3   171  CYS171      0.1808
     47  C          6.0670   29.0660   18.2530 C.2   171  CYS171      0.2601
     48  O          7.1980   29.5190   18.3630 O.2   171  CYS171     -0.2717
     49  CB         4.4300   30.3890   16.8540 C.3   171  CYS171      0.0970
     50  SG         2.9910   30.4610   18.0010 S.3   171  CYS171     -0.0800
     51  N          5.4300   28.5220   19.2890 N.am  172  HIS172     -0.1961
     52  CA         6.0160   28.5090   20.5910 C.3   172  HIS172      0.1787
     53  C          7.1300   27.5250   20.7900 C.2   172  HIS172      0.2620
     54  O          7.8120   27.5390   21.8230 O.2   172  HIS172     -0.2715
     55  CB         4.9070   28.2480   21.6320 C.3   172  HIS172      0.0785
     56  CG         4.2580   26.9160   21.4980 C.ar  172  HIS172      0.0821
     57  ND1        4.8460   25.7450   21.9080 N.ar  172  HIS172     -0.2267
     58  CD2        3.0310   26.5830   20.9420 C.ar  172  HIS172      0.1154
     59  CE1        4.0300   24.7350   21.5920 C.ar  172  HIS172      0.1986
     60  NE2        2.9120   25.2240   21.0080 N.ar  172  HIS172     -0.2212
     61  N          7.3270   26.5780   19.8390 N.am  173  ASN173     -0.1958
     62  CA         8.3120   25.5270   19.9780 C.3   173  ASN173      0.1819
     63  C          9.3440   25.5100   18.8510 C.2   173  ASN173      0.2621
     64  O         10.2850   24.6790   18.9060 O.2   173  ASN173     -0.2715
     65  CB         7.6860   24.1160   20.1670 C.3   173  ASN173      0.1195
     66  CG         7.0830   23.5530   18.9060 C.2   173  ASN173      0.2630
     67  OD1        7.5920   23.8320   17.8100 O.2   173  ASN173     -0.2716
     68  ND2        5.9980   22.7680   19.0170 N.am  173  ASN173     -0.0877
     69  N          9.2490   26.3980   17.8720 N.am  174  GLN174     -0.1963
     70  CA        10.0490   26.2630   16.6560 C.3   174  GLN174      0.1733
     71  C         11.5100   26.4250   16.8640 C.2   174  GLN174      0.2616
     72  O         12.2730   25.9920   15.9980 O.2   174  GLN174     -0.2715
     73  CB         9.5380   27.2390   15.5650 C.3   174  GLN174      0.0408
     74  CG         9.7320   28.6750   15.9020 C.3   174  GLN174      0.0908
     75  CD         9.3090   29.6050   14.7890 C.2   174  GLN174      0.2608
     76  OE1        9.5260   29.3100   13.6180 O.2   174  GLN174     -0.2717
     77  NE2        8.6900   30.7240   15.1480 N.am  174  GLN174     -0.0878
     78  N         11.9400   27.0910   17.9230 N.am  175  HIS175     -0.1959
     79  CA        13.3700   27.2670   18.1910 C.3   175  HIS175      0.1787
     80  C         13.9720   26.2400   19.1020 C.2   175  HIS175      0.2620
     81  O         15.1990   26.2870   19.3570 O.2   175  HIS175     -0.2715
     82  CB        13.6620   28.6790   18.7700 C.3   175  HIS175      0.0785
     83  CG        13.2270   29.7860   17.8500 C.ar  175  HIS175      0.0821
     84  ND1       13.8960   30.0850   16.7100 N.ar  175  HIS175     -0.2267
     85  CD2       12.1480   30.6850   17.9150 C.ar  175  HIS175      0.1154
     86  CE1       13.2990   31.1090   16.0820 C.ar  175  HIS175      0.1986
     87  NE2       12.2170   31.4800   16.8210 N.ar  175  HIS175     -0.2212
     88  N         13.1690   25.3090   19.6000 N.am  176  LEU176     -0.1977
     89  CA        13.6200   24.3370   20.6070 C.3   176  LEU176      0.1596
     90  C         14.4900   23.2660   20.0530 C.2   176  LEU176      0.2287
     91  O         14.1380   22.5440   19.1160 O.2   176  LEU176     -0.2864
     92  CB        12.4440   23.6310   21.3020 C.3   176  LEU176      0.0297
     93  CG        11.6790   24.4290   22.3440 C.3   176  LEU176      0.0022
     94  CD1       10.5470   23.5870   22.8990 C.3   176  LEU176      0.0001
     95  CD2       12.5830   24.9440   23.4650 C.3   176  LEU176      0.0001
@<TRIPOS>BOND
     1    76    75    2
     2    75    77   am
     3    75    74    1
     4    73    74    1
     5    73    70    1
     6    72    71    2
     7    86    84   ar
     8    86    87   ar
     9    70    71    1
    10    70    69    1
    11    45    46    1
    12    84    83   ar
    13    87    85   ar
    14    49    46    1
    15    49    50    1
    16    71    78   am
    17    46    47    1
    18    67    66    2
    19    83    85   ar
    20    83    82    1
    21    69    63   am
    22    78    79    1
    23    79    82    1
    24    79    80    1
    25    47    48    2
    26    47    51   am
    27    63    64    2
    28    63    62    1
    29    66    68   am
    30    66    65    1
    31    80    81    2
    32    80    88   am
    33    91    90    2
    34    51    52    1
    35    22    20    1
    36    88    89    1
    37    21    20    1
    38    61    62    1
    39    61    53   am
    40    62    65    1
    41    90    89    1
    42    20    19    2
    43     1     2    1
    44    52    53    1
    45    52    55    1
    46    89    92    1
    47    53    54    2
    48     5     6    1
    49     5     2    1
    50     6     7    1
    51    58    60   ar
    52    58    56   ar
    53     4     3    2
    54    60    59   ar
    55    19    18    1
    56    92    93    1
    57     2     3    1
    58    56    55    1
    59    56    57   ar
    60    59    57   ar
    61     3    12   am
    62    18    17    1
    63     7     8    1
    64    93    94    1
    65    93    95    1
    66     8     9    2
    67    17    16    1
    68    12    13    1
    69     9    11    1
    70     9    10    1
    71    13    16    1
    72    13    14    1
    73    43    44    1
    74    43    42    1
    75    38    39    1
    76    38    44    1
    77    39    42    1
    78    39    40    1
    79    35    33   ar
    80    35    37   ar
    81    33    32   ar
    82    41    40    2
    83    23    14   am
    84    23    24    1
    85    14    15    2
    86    26    25    2
    87    37    36   ar
    88    25    24    1
    89    25    27   am
    90    30    29    2
    91    28    27    1
    92    28    31    1
    93    28    29    1
    94    32    31    1
    95    32    34   ar
    96    36    34   ar
