@<TRIPOS>MOLECULE
tmp/4l6bA00.pdb
 181 167 0 0 0
SMALL
GASTEIGER

@<TRIPOS>ATOM
      1  N         -3.5610   -3.4010    3.3840 N.3    16  ALA16      -0.1245
      2  CA        -2.4120   -3.4420    4.2890 C.3    16  ALA16       0.1562
      3  C         -1.7860   -4.8030    4.1030 C.2    16  ALA16       0.2260
      4  O         -2.3550   -5.6550    3.4080 O.2    16  ALA16      -0.2867
      5  CB        -2.8260   -3.2330    5.7390 C.3    16  ALA16       0.0290
      6  N          1.4990   -5.7550   11.1730 N.3    33  ASP33      -0.1239
      7  CA         1.6140   -4.8320   10.0550 C.3    33  ASP33       0.1674
      8  C          2.9310   -4.0710   10.2230 C.2    33  ASP33       0.2266
      9  O          3.0540   -3.2130   11.1080 O.2    33  ASP33      -0.2867
     10  CB         0.3970   -3.9010   10.0940 C.3    33  ASP33       0.1410
     11  CG         0.3510   -2.9070    8.9610 C.2    33  ASP33       0.3668
     12  OD1        1.3450   -2.7370    8.2230 O.co2  33  ASP33      -0.2456
     13  OD2       -0.7190   -2.2690    8.8230 O.co2  33  ASP33      -0.2456
     14  N          5.4430   -1.3590    9.7160 N.3    35  ASP35      -0.1239
     15  CA         5.0570    0.0280    9.4910 C.3    35  ASP35       0.1674
     16  C          6.2840    0.9420    9.5490 C.2    35  ASP35       0.2266
     17  O          6.7200    1.3130   10.6360 O.2    35  ASP35      -0.2867
     18  CB         4.0530    0.4350   10.5760 C.3    35  ASP35       0.1410
     19  CG         3.5260    1.8370   10.4120 C.2    35  ASP35       0.3668
     20  OD1        3.8850    2.5240    9.4210 O.co2  35  ASP35      -0.2456
     21  OD2        2.7180    2.2390   11.2790 O.co2  35  ASP35      -0.2456
     22  N          6.3390    3.8840    8.9210 N.3    37  GLY37      -0.1225
     23  CA         5.8520    5.1940    9.3330 C.3    37  GLY37       0.1811
     24  C          5.4910    5.3590   10.8060 C.2    37  GLY37       0.2280
     25  O          4.8730    6.3530   11.1940 O.2    37  GLY37      -0.2866
     26  N         -2.8290    7.9910   15.2810 N.3    79  TYR79      -0.1227
     27  CA        -2.3630    8.1510   13.9090 C.3    79  TYR79       0.1736
     28  C         -3.2040    9.1910   13.1700 C.2    79  TYR79       0.2596
     29  O         -4.2790    9.5810   13.6330 O.2    79  TYR79      -0.2718
     30  CB        -2.3730    6.8050   13.1820 C.3    79  TYR79       0.0548
     31  CG        -1.5870    5.7030   13.8890 C.ar   79  TYR79      -0.0200
     32  CD1       -0.1900    5.6530   13.8270 C.ar   79  TYR79      -0.0009
     33  CD2       -2.2480    4.7080   14.6060 C.ar   79  TYR79      -0.0009
     34  CE1        0.5210    4.6330   14.4550 C.ar   79  TYR79       0.0417
     35  CE2       -1.5560    3.7020   15.2390 C.ar   79  TYR79       0.0417
     36  CZ        -0.1790    3.6580   15.1630 C.ar   79  TYR79       0.1957
     37  OH         0.4720    2.6220   15.8120 O.3    79  TYR79      -0.2866
     38  N         -2.7010    9.6350   12.0220 N.am   80  GLY80      -0.1942
     39  CA        -3.3130   10.7250   11.2830 C.3    80  GLY80       0.2014
     40  C         -4.6780   10.4070   10.7190 C.2    80  GLY80       0.2638
     41  O         -5.4540   11.3220   10.4270 O.2    80  GLY80      -0.2714
     42  N         -4.9880    9.1220   10.5660 N.am   81  ASP81      -0.1971
     43  CA        -6.3160    8.7170   10.1080 C.3    81  ASP81       0.1709
     44  C         -7.3270    8.7930   11.2580 C.2    81  ASP81       0.2293
     45  O         -8.5230    8.5660   11.0720 O.2    81  ASP81      -0.2864
     46  CB        -6.2840    7.3030    9.5210 C.3    81  ASP81       0.1436
     47  CG        -6.1280    6.2450   10.5850 C.2    81  ASP81       0.3671
     48  OD1       -5.4350    6.5210   11.5790 O.co2  81  ASP81      -0.2456
     49  OD2       -6.6850    5.1350   10.4290 O.co2  81  ASP81      -0.2456
     50  N         -7.0830    6.9090   14.0870 N.3    83  SER83      -0.1217
     51  CA        -7.0660    5.7100   14.9150 C.3    83  SER83       0.1889
     52  C         -6.0430    5.8240   16.0410 C.2    83  SER83       0.2288
     53  O         -5.1620    6.6830   16.0230 O.2    83  SER83      -0.2866
     54  CB        -6.7880    4.4710   14.0710 C.3    83  SER83       0.2089
     55  OG        -5.4630    4.4960   13.5850 O.3    83  SER83      -0.2183
     56  N        -11.0970    1.1700   14.0280 N.3   115  SER115     -0.1202
     57  CA       -10.4160    0.6930   12.8180 C.3   115  SER115      0.2020
     58  C         -9.5870   -0.5580   13.0970 C.2   115  SER115      0.2618
     59  O         -9.4870   -1.4490   12.2480 O.2   115  SER115     -0.2717
     60  CB        -9.5160    1.7740   12.2010 C.3   115  SER115      0.2103
     61  OG       -10.2540    2.7030   11.4230 O.3   115  SER115     -0.2182
     62  N         -9.0000   -0.6390   14.2870 N.am  116  PHE116     -0.1975
     63  CA        -8.1820   -1.8030   14.6120 C.3   116  PHE116      0.1639
     64  C         -9.0630   -2.9890   14.9840 C.2   116  PHE116      0.2290
     65  O         -8.8270   -4.1020   14.5300 O.2   116  PHE116     -0.2864
     66  CB        -7.1340   -1.4750   15.6840 C.3   116  PHE116      0.0560
     67  CG        -6.0940   -0.4950   15.2120 C.ar  116  PHE116     -0.0200
     68  CD1       -5.2750   -0.8180   14.1380 C.ar  116  PHE116     -0.0042
     69  CD2       -5.9450    0.7430   15.8160 C.ar  116  PHE116     -0.0042
     70  CE1       -4.3350    0.0700   13.6680 C.ar  116  PHE116     -0.0003
     71  CE2       -4.9870    1.6420   15.3450 C.ar  116  PHE116     -0.0003
     72  CZ        -4.1880    1.3060   14.2710 C.ar  116  PHE116     -0.0000
     73  N        -10.4190   -4.6870   11.8820 N.3   119  ASP119     -0.1239
     74  CA        -9.4650   -5.4260   11.0550 C.3   119  ASP119      0.1674
     75  C         -9.0560   -6.7010   11.7950 C.2   119  ASP119      0.2266
     76  O         -8.0470   -6.7230   12.5040 O.2   119  ASP119     -0.2867
     77  CB        -8.2030   -4.6060   10.7600 C.3   119  ASP119      0.1410
     78  CG        -8.4560   -3.3950    9.8750 C.2   119  ASP119      0.3668
     79  OD1       -9.5140   -3.3360    9.2310 O.co2 119  ASP119     -0.2456
     80  OD2       -7.5700   -2.5010    9.8120 O.co2 119  ASP119     -0.2456
     81  N         -5.2890   -8.0930   11.3990 N.3   122  ILE122     -0.1245
     82  CA        -4.0990   -7.3950   11.8820 C.3   122  ILE122      0.1561
     83  C         -4.0190   -7.5040   13.3920 C.2   122  ILE122      0.2260
     84  O         -4.8910   -6.9860   14.1080 O.2   122  ILE122     -0.2867
     85  CB        -4.0640   -5.9240   11.4230 C.3   122  ILE122      0.0252
     86  CG1       -3.9940   -5.8520    9.8930 C.3   122  ILE122      0.0019
     87  CG2       -2.8900   -5.1800   12.0520 C.3   122  ILE122      0.0019
     88  CD1       -4.0410   -4.4330    9.3320 C.3   122  ILE122      0.0001
     89  N          1.0030   -3.8630   15.2090 N.3   125  LEU125     -0.1245
     90  CA         1.9030   -3.1510   14.3140 C.3   125  LEU125      0.1561
     91  C          3.3290   -3.3820   14.7740 C.2   125  LEU125      0.2260
     92  O          3.5870   -3.5130   15.9780 O.2   125  LEU125     -0.2867
     93  CB         1.5880   -1.6520   14.3060 C.3   125  LEU125      0.0270
     94  CG         0.5350   -1.1550   13.2930 C.3   125  LEU125      0.0019
     95  CD1       -0.7850   -1.9320   13.3410 C.3   125  LEU125      0.0001
     96  CD2        0.2690    0.3460   13.4360 C.3   125  LEU125      0.0001
     97  N         10.9870   10.0410   10.5140 N.3   194  PHE194     -0.1241
     98  CA        10.5100    9.2130    9.4070 C.3   194  PHE194      0.1605
     99  C         11.6380    8.9460    8.4280 C.2   194  PHE194      0.2264
    100  O         12.6640    9.6190    8.4640 O.2   194  PHE194     -0.2867
    101  CB         9.4000    9.9270    8.6180 C.3   194  PHE194      0.0534
    102  CG         8.1390   10.1740    9.3980 C.ar  194  PHE194     -0.0203
    103  CD1        7.3980    9.1100    9.8820 C.ar  194  PHE194     -0.0042
    104  CD2        7.6630   11.4660    9.6030 C.ar  194  PHE194     -0.0042
    105  CE1        6.2490    9.3250   10.5860 C.ar  194  PHE194     -0.0003
    106  CE2        6.4910   11.6700   10.3110 C.ar  194  PHE194     -0.0003
    107  CZ         5.8000   10.6040   10.8090 C.ar  194  PHE194     -0.0000
    108  N          7.5910   10.7870    2.7630 N.3   217  ILE217     -0.1245
    109  CA         8.0940    9.6750    3.5680 C.3   217  ILE217      0.1561
    110  C          7.8250    8.3360    2.9030 C.2   217  ILE217      0.2260
    111  O          6.8080    8.1550    2.2400 O.2   217  ILE217     -0.2867
    112  CB         7.5430    9.6880    5.0150 C.3   217  ILE217      0.0252
    113  CG1        6.0310    9.4280    5.0810 C.3   217  ILE217      0.0019
    114  CG2        7.9100   10.9930    5.6960 C.3   217  ILE217      0.0019
    115  CD1        5.5400    9.1820    6.5150 C.3   217  ILE217      0.0001
    116  N          6.5680    4.9920    3.5730 N.3   219  ASP219     -0.1239
    117  CA         5.6990    4.5360    4.6580 C.3   219  ASP219      0.1674
    118  C          4.9180    3.2710    4.2840 C.2   219  ASP219      0.2266
    119  O          3.8490    3.3380    3.6690 O.2   219  ASP219     -0.2867
    120  CB         4.7100    5.6450    4.9930 C.3   219  ASP219      0.1410
    121  CG         3.8830    5.3480    6.2050 C.2   219  ASP219      0.3668
    122  OD1        4.0050    4.2490    6.8090 O.co2 219  ASP219     -0.2456
    123  OD2        3.1030    6.2480    6.5620 O.co2 219  ASP219     -0.2456
    124  N          3.2040    1.5570    6.1850 N.3   221  GLY221     -0.1210
    125  CA         1.9890    1.4560    6.9840 C.3   221  GLY221      0.1956
    126  C          0.8250    2.3230    6.5380 C.2   221  GLY221      0.2613
    127  O         -0.2140    2.3630    7.2010 O.2   221  GLY221     -0.2717
    128  N          1.0060    3.0270    5.4230 N.am  222  THR222     -0.1938
    129  CA        -0.0520    3.8180    4.8060 C.3   222  THR222      0.2028
    130  C         -0.4050    3.1790    3.4740 C.2   222  THR222      0.2642
    131  O          0.4810    2.8390    2.6970 O.2   222  THR222     -0.2714
    132  CB         0.3840    5.2980    4.6110 C.3   222  THR222      0.1808
    133  OG1        0.5510    5.8990    5.9020 O.3   222  THR222     -0.2208
    134  CG2       -0.6800    6.1160    3.8010 C.3   222  THR222      0.0379
    135  N         -1.6990    2.9990    3.2170 N.am  223  THR223     -0.1950
    136  CA        -2.1400    2.2940    2.0140 C.3   223  THR223      0.1897
    137  C         -1.8490    3.0540    0.7250 C.2   223  THR223      0.2313
    138  O         -1.3380    2.5040   -0.2460 O.2   223  THR223     -0.2863
    139  CB        -3.6550    2.0540    2.0480 C.3   223  THR223      0.1794
    140  OG1       -4.0200    1.5040    3.3160 O.3   223  THR223     -0.2208
    141  CG2       -4.0630    1.1020    0.9400 C.3   223  THR223      0.0378
    142  N         -0.0200    9.7420   -1.1860 N.3   226  TYR226     -0.1241
    143  CA        -0.5480   11.0860   -0.9120 C.3   226  TYR226      0.1605
    144  C          0.4690   12.1000   -1.3750 C.2   226  TYR226      0.2264
    145  O          1.6040   12.1130   -0.8890 O.2   226  TYR226     -0.2867
    146  CB        -0.8320   11.2840    0.5810 C.3   226  TYR226      0.0534
    147  CG        -1.9460   10.3970    1.0970 C.ar  226  TYR226     -0.0201
    148  CD1       -3.2660   10.8310    1.0780 C.ar  226  TYR226     -0.0009
    149  CD2       -1.6710    9.1320    1.6210 C.ar  226  TYR226     -0.0009
    150  CE1       -4.2890   10.0400    1.5460 C.ar  226  TYR226      0.0417
    151  CE2       -2.6850    8.3250    2.1000 C.ar  226  TYR226      0.0417
    152  CZ        -4.0010    8.7820    2.0690 C.ar  226  TYR226      0.1957
    153  OH        -5.0280    7.9820    2.5370 O.3   226  TYR226     -0.2866
    154  N         -3.3100   19.2340    3.8980 N.3   299  GLY299     -0.1210
    155  CA        -3.8950   18.9950    5.2060 C.3   299  GLY299      0.1956
    156  C         -3.2960   17.8360    5.9890 C.2   299  GLY299      0.2611
    157  O         -3.6380   17.6550    7.1650 O.2   299  GLY299     -0.2717
    158  N         -2.4330   17.0390    5.3550 N.am  300  ILE300     -0.1979
    159  CA        -1.6120   16.0870    6.1030 C.3   300  ILE300      0.1595
    160  C         -0.4020   16.8130    6.6730 C.2   300  ILE300      0.2287
    161  O         -0.0360   16.6150    7.8330 O.2   300  ILE300     -0.2864
    162  CB        -1.1250   14.8960    5.2370 C.3   300  ILE300      0.0276
    163  CG1       -2.3160   14.0850    4.7200 C.3   300  ILE300      0.0022
    164  CG2       -0.1690   14.0020    6.0490 C.3   300  ILE300      0.0022
    165  CD1       -1.9390   12.8870    3.8400 C.3   300  ILE300      0.0001
    166  N          2.5560   16.5480    5.1900 N.3   302  ILE302     -0.1245
    167  CA         3.6860   15.8450    4.6070 C.3   302  ILE302      0.1561
    168  C          3.1520   14.9620    3.4710 C.2   302  ILE302      0.2260
    169  O          1.9960   14.5410    3.5010 O.2   302  ILE302     -0.2867
    170  CB         4.4340   15.0130    5.6830 C.3   302  ILE302      0.0252
    171  CG1        5.8390   14.6180    5.2250 C.3   302  ILE302      0.0019
    172  CG2        3.6200   13.7960    6.1410 C.3   302  ILE302      0.0019
    173  CD1        6.7420   14.2210    6.3920 C.3   302  ILE302      0.0001
    174  N          3.1600   11.3770    1.4430 N.3   304  ILE304     -0.1245
    175  CA         3.3660    9.9990    1.9030 C.3   304  ILE304      0.1561
    176  C          3.4380    9.0220    0.7320 C.2   304  ILE304      0.2260
    177  O          2.4490    8.8060    0.0200 O.2   304  ILE304     -0.2867
    178  CB         2.2560    9.5350    2.8730 C.3   304  ILE304      0.0252
    179  CG1        2.1260   10.5070    4.0440 C.3   304  ILE304      0.0019
    180  CG2        2.5490    8.1180    3.3610 C.3   304  ILE304      0.0019
    181  CD1        0.9480   10.1920    4.9430 C.3   304  ILE304      0.0001
@<TRIPOS>BOND
     1   144   143    1
     2   144   145    2
     3   142   143    1
     4   143   146    1
     5   138   137    2
     6   177   176    2
     7   146   147    1
     8   137   136    1
     9   176   175    1
    10   141   139    1
    11   148   147   ar
    12   148   150   ar
    13   147   149   ar
    14   174   175    1
    15   150   152   ar
    16   149   151   ar
    17   175   178    1
    18   136   139    1
    19   136   135    1
    20   139   140    1
    21   152   151   ar
    22   152   153    1
    23   111   110    2
    24   131   130    2
    25   108   109    1
    26   178   180    1
    27   178   179    1
    28   110   109    1
    29   135   130   am
    30     1     2    1
    31     4     3    2
    32   168   169    2
    33   168   167    1
    34   130   129    1
    35   109   112    1
    36   116   117    1
    37   119   118    2
    38   134   132    1
    39   165   163    1
    40   154   155    1
    41   179   181    1
    42     3     2    1
    43   118   117    1
    44     2     5    1
    45   167   166    1
    46   167   170    1
    47   132   129    1
    48   132   133    1
    49   117   120    1
    50   163   162    1
    51   129   128    1
    52   120   121    1
    53   112   113    1
    54   112   114    1
    55   113   115    1
    56   155   156    1
    57   171   170    1
    58   171   173    1
    59   162   164    1
    60   162   159    1
    61   158   156   am
    62   158   159    1
    63   128   126   am
    64   170   172    1
    65   156   157    2
    66   159   160    1
    67   124   125    1
    68   121   123   ar
    69   121   122   ar
    70   126   125    1
    71   126   127    2
    72   160   161    2
    73    12    11   ar
    74    99   100    2
    75    99    98    1
    76   101   102    1
    77   101    98    1
    78    13    11   ar
    79    22    23    1
    80    11    10    1
    81    79    78   ar
    82    88    86    1
    83    23    24    1
    84   102   104   ar
    85   102   103   ar
    86    98    97    1
    87    20    19   ar
    88    15    16    1
    89    15    14    1
    90    15    18    1
    91    46    43    1
    92    46    47    1
    93    16    17    2
    94   104   106   ar
    95    80    78   ar
    96    78    77    1
    97   103   105   ar
    98    86    85    1
    99     7    10    1
   100     7     8    1
   101     7     6    1
   102    43    42    1
   103    43    44    1
   104     8     9    2
   105   106   107   ar
   106    19    18    1
   107    19    21   ar
   108    41    40    2
   109    49    47   ar
   110    42    40   am
   111    47    48   ar
   112   105   107   ar
   113    40    39    1
   114    77    74    1
   115    24    25    2
   116    74    75    1
   117    74    73    1
   118    45    44    2
   119    39    38    1
   120    81    82    1
   121    61    60    1
   122    85    82    1
   123    85    87    1
   124    75    76    2
   125    82    83    1
   126    38    28   am
   127    60    57    1
   128    59    58    2
   129    57    58    1
   130    57    56    1
   131    58    62   am
   132    28    29    2
   133    28    27    1
   134    30    31    1
   135    30    27    1
   136    94    95    1
   137    94    96    1
   138    94    93    1
   139    83    84    2
   140    55    54    1
   141    70    68   ar
   142    70    72   ar
   143    32    31   ar
   144    32    34   ar
   145    31    33   ar
   146    27    26    1
   147    54    51    1
   148    50    51    1
   149    68    67   ar
   150    72    71   ar
   151    62    63    1
   152    93    90    1
   153    90    91    1
   154    90    89    1
   155    34    36   ar
   156    65    64    2
   157    33    35   ar
   158    63    64    1
   159    63    66    1
   160    91    92    2
   161    51    52    1
   162    36    35   ar
   163    36    37    1
   164    67    66    1
   165    67    69   ar
   166    71    69   ar
   167    53    52    2
