@<TRIPOS>MOLECULE
tmp/4l6cA00.pdb
 175 174 0 0 0
SMALL
GASTEIGER

@<TRIPOS>ATOM
      1  N         -4.9830   20.8900   19.4570 N.3    17  ASP17      -0.1295
      2  CA        -4.4900   22.2670   19.5150 C.3    17  ASP17       0.1359
      3  C         -2.9770   22.3350   19.1440 C.3    17  ASP17       0.2015
      4  O         -2.0930   21.5650   19.6820 O.3    17  ASP17      -0.2188
      5  CB        -4.6830   22.9000   20.9000 C.3    17  ASP17       0.1357
      6  CG        -6.1090   23.0640   21.2690 C.2    17  ASP17       0.3664
      7  OD1       -6.8380   23.6210   20.4220 O.co2  17  ASP17      -0.2456
      8  OD2       -6.4990   22.5700   22.3490 O.co2  17  ASP17      -0.2456
      9  N         -4.6530   27.1900   17.6000 N.3    23  PHE23      -0.1227
     10  CA        -4.8420   27.7640   18.9300 C.3    23  PHE23       0.1736
     11  C         -4.0710   29.0660   19.0530 C.2    23  PHE23       0.2595
     12  O         -4.6170   30.0820   19.4470 O.2    23  PHE23      -0.2718
     13  CB        -4.3930   26.7440   19.9940 C.3    23  PHE23       0.0547
     14  CG        -4.5990   27.2140   21.4090 C.ar   23  PHE23      -0.0202
     15  CD1       -3.7020   28.1170   22.0220 C.ar   23  PHE23      -0.0042
     16  CD2       -5.6820   26.7730   22.1310 C.ar   23  PHE23      -0.0042
     17  CE1       -3.9000   28.5480   23.3360 C.ar   23  PHE23      -0.0003
     18  CE2       -5.8690   27.2110   23.4410 C.ar   23  PHE23      -0.0003
     19  CZ        -5.0000   28.1260   24.0340 C.ar   23  PHE23      -0.0000
     20  N         -2.7710   29.0570   18.6620 N.am   24  GLU24      -0.1979
     21  CA        -2.0050   30.2920   18.8510 C.3    24  GLU24       0.1602
     22  C         -2.4630   31.4780   18.0290 C.2    24  GLU24       0.2287
     23  O         -2.5720   32.6090   18.5340 O.2    24  GLU24      -0.2864
     24  CB        -0.5280   30.0250   18.5810 C.3    24  GLU24       0.0415
     25  CG         0.1360   29.0200   19.5340 C.3    24  GLU24       0.1163
     26  CD         0.7970   29.7160   20.7240 C.2    24  GLU24       0.3649
     27  OE1        0.8730   31.0030   20.8420 O.co2  24  GLU24      -0.2457
     28  OE2        1.2050   28.9680   21.6200 O.co2  24  GLU24      -0.2457
     29  N          5.8170   27.0080   26.2760 N.3    49  PHE49      -0.1227
     30  CA         4.5820   26.4380   25.8820 C.3    49  PHE49       0.1736
     31  C          3.3420   27.2190   26.3290 C.2    49  PHE49       0.2595
     32  O          2.3370   27.2570   25.5900 O.2    49  PHE49      -0.2718
     33  CB         4.5000   24.9900   26.4150 C.3    49  PHE49       0.0547
     34  CG         3.3330   24.2440   25.9510 C.ar   49  PHE49      -0.0202
     35  CD1        3.2570   23.8220   24.6620 C.ar   49  PHE49      -0.0042
     36  CD2        2.3020   23.8690   26.8180 C.ar   49  PHE49      -0.0042
     37  CE1        2.1820   23.1250   24.2070 C.ar   49  PHE49      -0.0003
     38  CE2        1.2450   23.1620   26.3890 C.ar   49  PHE49      -0.0003
     39  CZ         1.1400   22.7690   25.0670 C.ar   49  PHE49      -0.0000
     40  N          3.3530   27.7240   27.5620 N.am   50  TRP50      -0.1962
     41  CA         2.1630   28.3350   28.1520 C.3    50  TRP50       0.1771
     42  C          1.9880   29.7910   27.7620 C.2    50  TRP50       0.2619
     43  O          2.7650   30.6300   28.1740 O.2    50  TRP50      -0.2715
     44  CB         2.1910   28.2290   29.6480 C.3    50  TRP50       0.0590
     45  CG         2.3950   26.8280   30.1210 C.ar   50  TRP50       0.0006
     46  CD1        3.5290   26.3010   30.7720 C.ar   50  TRP50       0.0946
     47  CD2        1.4490   25.7450   30.0240 C.ar   50  TRP50       0.0152
     48  NE1        3.3380   24.9570   31.0420 N.ar   50  TRP50      -0.2442
     49  CE2        2.1020   24.5690   30.6300 C.ar   50  TRP50       0.0810
     50  CE3        0.1340   25.6210   29.5280 C.ar   50  TRP50       0.0012
     51  CZ2        1.4820   23.3430   30.6510 C.ar   50  TRP50       0.0191
     52  CZ3       -0.4640   24.3780   29.5480 C.ar   50  TRP50       0.0001
     53  CH2        0.1940   23.2610   30.1180 C.ar   50  TRP50       0.0015
     54  N          0.9850   30.0710   26.9200 N.am   51  VAL51      -0.1963
     55  CA         0.6980   31.4400   26.4420 C.3    51  VAL51       0.1727
     56  C          0.5370   32.3900   27.6420 C.2    51  VAL51       0.2616
     57  O          1.1030   33.5090   27.6740 O.2    51  VAL51      -0.2715
     58  CB        -0.6370   31.4240   25.6110 C.3    51  VAL51       0.0290
     59  CG1       -1.0860   32.9010   25.3280 C.3    51  VAL51       0.0023
     60  CG2       -0.4460   30.6100   24.3210 C.3    51  VAL51       0.0023
     61  N         -0.2450   31.9740   28.6430 N.am   52  SER52      -0.1950
     62  CA        -0.5570   32.9400   29.7260 C.3    52  SER52       0.1924
     63  C          0.6810   33.3120   30.5570 C.2    52  SER52       0.2314
     64  O          0.7780   34.4260   31.0360 O.2    52  SER52      -0.2863
     65  CB        -1.7040   32.5210   30.6260 C.3    52  SER52       0.2116
     66  OG        -1.3370   31.4130   31.3960 O.3    52  SER52      -0.2180
     67  N         -6.2640   34.2240   29.6770 N.3    67  ILE67      -0.1245
     68  CA        -7.1070   33.0670   30.0500 C.3    67  ILE67       0.1561
     69  C         -8.5590   33.2660   29.6290 C.2    67  ILE67       0.2260
     70  O         -9.2060   32.3660   29.1660 O.2    67  ILE67      -0.2867
     71  CB        -7.0180   32.8090   31.5750 C.3    67  ILE67       0.0252
     72  CG1       -5.6220   32.2400   31.8820 C.3    67  ILE67       0.0019
     73  CG2       -8.1000   31.7870   32.0440 C.3    67  ILE67       0.0019
     74  CD1       -5.1660   32.4140   33.3240 C.3    67  ILE67       0.0001
     75  N         -9.5510   31.9440   25.9860 N.3    70  TRP70      -0.1227
     76  CA        -9.8600   30.5260   25.7650 C.3    70  TRP70       0.1737
     77  C        -10.9880   29.9640   26.6200 C.2    70  TRP70       0.2595
     78  O        -11.4920   28.8680   26.2790 O.2    70  TRP70      -0.2718
     79  CB        -8.6250   29.5920   25.8120 C.3    70  TRP70       0.0564
     80  CG        -7.7180   29.6990   27.0160 C.ar   70  TRP70       0.0003
     81  CD1       -7.8780   29.1350   28.2570 C.ar   70  TRP70       0.0946
     82  CD2       -6.4240   30.3180   27.0420 C.ar   70  TRP70       0.0152
     83  NE1       -6.7990   29.3760   29.0310 N.ar   70  TRP70      -0.2442
     84  CE2       -5.8650   30.0530   28.3510 C.ar   70  TRP70       0.0810
     85  CE3       -5.6730   31.0100   26.1190 C.ar   70  TRP70       0.0012
     86  CZ2       -4.6290   30.5510   28.7360 C.ar   70  TRP70       0.0191
     87  CZ3       -4.4260   31.5080   26.5060 C.ar   70  TRP70       0.0001
     88  CH2       -3.9310   31.2890   27.8020 C.ar   70  TRP70       0.0015
     89  N        -11.3640   30.6980   27.6750 N.am   71  GLU71      -0.1979
     90  CA       -12.5330   30.2990   28.4690 C.3    71  GLU71       0.1602
     91  C        -13.8540   30.7300   27.8100 C.2    71  GLU71       0.2287
     92  O        -14.9760   30.3060   28.2230 O.2    71  GLU71      -0.2864
     93  CB       -12.3710   30.7750   29.8830 C.3    71  GLU71       0.0415
     94  CG       -11.2720   30.1010   30.6560 C.3    71  GLU71       0.1163
     95  CD       -11.3260   30.3790   32.1810 C.2    71  GLU71       0.3649
     96  OE1      -12.0280   31.2890   32.6090 O.co2  71  GLU71      -0.2457
     97  OE2      -10.6960   29.5970   32.8830 O.co2  71  GLU71      -0.2457
     98  N         -6.4350   17.3550   25.0060 N.3   105  SER105     -0.1203
     99  CA        -6.7190   17.6130   26.3880 C.3   105  SER105      0.2005
    100  C         -7.6430   18.8090   26.4840 C.2   105  SER105      0.2461
    101  O         -7.2850   19.9160   25.9780 O.2   105  SER105     -0.2732
    102  CB        -5.4380   17.8880   27.1130 C.3   105  SER105      0.2103
    103  OG        -4.4820   16.8720   27.0250 O.3   105  SER105     -0.2182
    104  N         -8.7590   18.6570   27.1560 N.am  106  PRO106     -0.2717
    105  CA        -9.6550   19.7740   27.3690 C.3   106  PRO106      0.1535
    106  C         -8.9910   20.7040   28.4250 C.2   106  PRO106      0.2598
    107  O         -8.1930   20.2640   29.2670 O.2   106  PRO106     -0.2715
    108  CB       -10.8860   19.1280   27.9580 C.3   106  PRO106      0.0310
    109  CG       -10.3910   17.8980   28.6980 C.3   106  PRO106      0.0237
    110  CD        -9.2410   17.4310   27.8530 C.3   106  PRO106      0.0939
    111  N         -9.3830   21.9820   28.4290 N.am  107  ILE107     -0.1964
    112  CA        -8.9540   22.8610   29.5350 C.3   107  ILE107      0.1727
    113  C         -9.7940   22.5250   30.7650 C.2   107  ILE107      0.2616
    114  O        -10.8200   21.8740   30.7380 O.2   107  ILE107     -0.2715
    115  CB        -9.0670   24.3100   29.1170 C.3   107  ILE107      0.0290
    116  CG1      -10.5170   24.7020   28.7290 C.3   107  ILE107      0.0022
    117  CG2       -8.0650   24.5790   27.9560 C.3   107  ILE107      0.0023
    118  CD1      -10.7590   26.2660   28.6810 C.3   107  ILE107      0.0001
    119  N         -9.3330   23.1430   31.8660 N.am  108  LYS108     -0.1963
    120  CA        -9.9770   22.9720   33.1580 C.3   108  LYS108      0.1728
    121  C        -11.4240   23.4500   33.1850 C.2   108  LYS108      0.2616
    122  O        -12.2300   22.7850   33.7970 O.2   108  LYS108     -0.2715
    123  CB        -9.2280   23.6680   34.2790 C.3   108  LYS108      0.0311
    124  CG        -7.8310   23.0940   34.5920 C.3   108  LYS108      0.0038
    125  CD        -6.9700   24.0670   35.4280 C.3   108  LYS108      0.0206
    126  CE        -5.6770   23.4250   35.9740 C.3   108  LYS108      0.1093
    127  NZ        -5.4380   23.6860   37.4460 N.3   108  LYS108     -0.1314
    128  N        -11.7020   24.6310   32.6230 N.am  109  MET109     -0.1977
    129  CA       -13.0620   25.1190   32.5310 C.3   109  MET109      0.1605
    130  C        -13.7380   24.3640   31.3920 C.2   109  MET109      0.2287
    131  O        -13.4340   24.5900   30.2030 O.2   109  MET109     -0.2864
    132  CB       -13.1310   26.6450   32.3050 C.3   109  MET109      0.0413
    133  CG       -14.3490   27.2600   33.0060 C.3   109  MET109      0.0598
    134  SD       -15.8480   27.1830   32.0040 S.3   109  MET109     -0.1393
    135  CE       -15.8670   28.8200   31.2160 C.3   109  MET109      0.0692
    136  N         -6.4010   14.3920   29.9540 N.3   137  ARG137     -0.1245
    137  CA        -5.3510   15.2400   30.4730 C.3   137  ARG137      0.1563
    138  C         -3.9790   14.5620   30.4630 C.2   137  ARG137      0.2260
    139  O         -2.9480   15.2350   30.6130 O.2   137  ARG137     -0.2867
    140  CB        -5.6990   15.7530   31.8670 C.3   137  ARG137      0.0307
    141  CG        -7.0040   16.5270   31.8410 C.3   137  ARG137      0.0489
    142  CD        -6.9670   18.0010   31.5680 C.3   137  ARG137      0.2205
    143  NE        -6.2400   18.7650   32.6030 N.pl3 137  ARG137     -0.0865
    144  CZ        -6.0540   20.0890   32.5600 C.cat 137  ARG137      0.5346
    145  NH1       -6.6280   20.7970   31.5900 N.pl3 137  ARG137      0.1354
    146  NH2       -5.3290   20.7190   33.4960 N.pl3 137  ARG137      0.1354
    147  N          2.4620   19.0660   19.5410 N.3   150  ASP150     -0.1225
    148  CA         3.3280   20.2670   19.6380 C.3   150  ASP150      0.1805
    149  C          3.9540   20.5350   20.9920 C.2   150  ASP150      0.2597
    150  O          4.8010   21.4470   21.1330 O.2   150  ASP150     -0.2718
    151  CB         2.5630   21.5280   19.1430 C.3   150  ASP150      0.1424
    152  CG         1.3930   21.8720   19.9810 C.2   150  ASP150      0.3668
    153  OD1        0.6390   21.0140   20.2880 O.co2 150  ASP150     -0.2456
    154  OD2        1.2330   23.0030   20.3670 O.co2 150  ASP150     -0.2456
    155  N          3.4980   19.8380   22.0240 N.am  151  ARG151     -0.1979
    156  CA         3.9900   20.1080   23.3680 C.3   151  ARG151      0.1597
    157  C          5.3520   19.4070   23.5350 C.2   151  ARG151      0.2287
    158  O          5.4460   18.1830   23.3050 O.2   151  ARG151     -0.2864
    159  CB         3.0110   19.5950   24.4250 C.3   151  ARG151      0.0334
    160  CG         3.4960   19.9040   25.8180 C.3   151  ARG151      0.0492
    161  CD         2.3940   19.6210   26.8170 C.3   151  ARG151      0.2205
    162  NE         2.9700   19.9030   28.1040 N.pl3 151  ARG151     -0.0865
    163  CZ         2.3200   19.8490   29.2470 C.cat 151  ARG151      0.5346
    164  NH1        1.0750   19.5710   29.2590 N.pl3 151  ARG151      0.1354
    165  NH2        2.9480   20.0650   30.3780 N.pl3 151  ARG151      0.1354
    166  N          5.8070   28.4040   19.3270 N.3   172  HIS172     -0.1241
    167  CA         6.3710   28.3470   20.6400 C.3   172  HIS172      0.1621
    168  C          7.4860   27.3140   20.8630 C.2   172  HIS172      0.2264
    169  O          8.1070   27.3150   21.8970 O.2   172  HIS172     -0.2867
    170  CB         5.2540   28.0690   21.6880 C.3   172  HIS172      0.0745
    171  CG         4.5450   26.7570   21.4960 C.ar  172  HIS172      0.0817
    172  ND1        5.1360   25.5780   21.8080 N.ar  172  HIS172     -0.2268
    173  CD2        3.3130   26.4470   20.9290 C.ar  172  HIS172      0.1154
    174  CE1        4.2990   24.5760   21.5210 C.ar  172  HIS172      0.1986
    175  NE2        3.1670   25.1010   20.9790 N.ar  172  HIS172     -0.2212
@<TRIPOS>BOND
     1     9    10    1
     2    22    23    2
     3    22    21    1
     4    24    21    1
     5    24    25    1
     6    20    21    1
     7    20    11   am
     8    10    11    1
     9    10    13    1
    10    11    12    2
    11   151   148    1
    12   151   152    1
    13     3     2    1
    14     3     4    1
    15   166   167    1
    16     1     2    1
    17     2     5    1
    18    25    26    1
    19   147   148    1
    20   148   149    1
    21   152   153   ar
    22   152   154   ar
    23    13    14    1
    24     7     6   ar
    25   167   168    1
    26   167   170    1
    27    26    27   ar
    28    26    28   ar
    29   168   169    2
    30     5     6    1
    31   173   175   ar
    32   173   171   ar
    33   175   174   ar
    34   149   150    2
    35   149   155   am
    36     6     8   ar
    37    14    15   ar
    38    14    16   ar
    39   171   170    1
    40   171   172   ar
    41   174   172   ar
    42    15    17   ar
    43   155   156    1
    44    16    18   ar
    45   158   157    2
    46    17    19   ar
    47   156   157    1
    48   156   159    1
    49    18    19   ar
    50    37    35   ar
    51    37    39   ar
    52    60    58    1
    53   159   160    1
    54    35    34   ar
    55    98    99    1
    56    39    38   ar
    57    59    58    1
    58    32    31    2
    59    58    55    1
    60    76    79    1
    61    76    75    1
    62    76    77    1
    63    79    80    1
    64   160   161    1
    65    30    29    1
    66    30    31    1
    67    30    33    1
    68    34    33    1
    69    34    36   ar
    70   101   100    2
    71    85    87   ar
    72    85    82   ar
    73    78    77    2
    74    31    40   am
    75    99   100    1
    76    99   102    1
    77    38    36   ar
    78    55    54    1
    79    55    56    1
    80   100   104   am
    81    87    88   ar
    82    77    89   am
    83   161   162    1
    84    54    42   am
    85    80    82   ar
    86    80    81   ar
    87   103   102    1
    88    82    84   ar
    89   104   105    1
    90   104   110    1
    91   105   108    1
    92   105   106    1
    93    40    41    1
    94    56    57    2
    95    56    61   am
    96    89    90    1
    97    42    41    1
    98    42    43    2
    99    88    86   ar
   100    91    92    2
   101    91    90    1
   102   110   109    1
   103   117   115    1
   104   108   109    1
   105   162   163    2
   106    41    44    1
   107    81    83   ar
   108    84    86   ar
   109    84    83   ar
   110   106   111   am
   111   106   107    2
   112   111   112    1
   113    90    93    1
   114    61    62    1
   115   118   116    1
   116   116   115    1
   117   115   112    1
   118    70    69    2
   119   163   164    1
   120   163   165    1
   121    50    52   ar
   122    50    47   ar
   123   112   113    1
   124    52    53   ar
   125    69    68    1
   126    44    45    1
   127    67    68    1
   128    62    63    1
   129    62    65    1
   130    93    94    1
   131   136   137    1
   132    47    45   ar
   133    47    49   ar
   134    68    71    1
   135    53    51   ar
   136    45    46   ar
   137   131   130    2
   138   138   137    1
   139   138   139    2
   140   137   140    1
   141    63    64    2
   142    65    66    1
   143    49    51   ar
   144    49    48   ar
   145    94    95    1
   146   114   113    2
   147   113   119   am
   148    46    48   ar
   149   135   134    1
   150   130   129    1
   151   142   141    1
   152   142   143    1
   153    71    72    1
   154    71    73    1
   155   145   144    1
   156   141   140    1
   157   119   120    1
   158    72    74    1
   159   134   133    1
   160    95    96   ar
   161    95    97   ar
   162   132   129    1
   163   132   133    1
   164   129   128    1
   165   144   143    2
   166   144   146    1
   167   128   121   am
   168   120   121    1
   169   120   123    1
   170   121   122    2
   171   123   124    1
   172   124   125    1
   173   125   126    1
   174   126   127    1
