@<TRIPOS>MOLECULE
tmp/4l6dH00.pdb
 108 102 0 0 0
SMALL
GASTEIGER

@<TRIPOS>ATOM
      1  N        -17.6410   82.6510   41.4040 N.3    10  ALA10      -0.1245
      2  CA       -16.9900   82.1250   40.2120 C.3    10  ALA10       0.1562
      3  C        -16.1480   83.1660   39.4910 C.2    10  ALA10       0.2260
      4  O        -16.4850   84.3540   39.4640 O.2    10  ALA10      -0.2867
      5  CB       -18.0370   81.5320   39.2600 C.3    10  ALA10       0.0290
      6  N        -24.3910   74.3930   28.8210 N.3    35  LEU35      -0.1245
      7  CA       -23.7490   75.5560   29.4310 C.3    35  LEU35       0.1561
      8  C        -22.6050   76.0600   28.5700 C.2    35  LEU35       0.2260
      9  O        -22.4830   77.2610   28.3190 O.2    35  LEU35      -0.2867
     10  CB       -23.1920   75.1950   30.8070 C.3    35  LEU35       0.0270
     11  CG       -22.2500   76.2420   31.4130 C.3    35  LEU35       0.0019
     12  CD1      -23.0000   77.5030   31.8060 C.3    35  LEU35       0.0001
     13  CD2      -21.5240   75.6510   32.6080 C.3    35  LEU35       0.0001
     14  N        -25.7830   83.5280   26.1470 N.3    46  ARG46      -0.1245
     15  CA       -25.4690   84.3070   27.3380 C.3    46  ARG46       0.1563
     16  C        -24.1570   85.0580   27.1060 C.2    46  ARG46       0.2260
     17  O        -23.1350   84.7360   27.7150 O.2    46  ARG46      -0.2867
     18  CB       -25.3790   83.3850   28.5670 C.3    46  ARG46       0.0307
     19  CG       -26.6820   82.6300   28.8410 C.3    46  ARG46       0.0489
     20  CD       -26.5660   81.5040   29.8690 C.3    46  ARG46       0.2205
     21  NE       -26.6110   81.9850   31.2460 N.pl3  46  ARG46      -0.0865
     22  CZ       -26.5160   81.2030   32.3200 C.cat  46  ARG46       0.5346
     23  NH1      -26.3580   79.8920   32.1830 N.pl3  46  ARG46       0.1354
     24  NH2      -26.5580   81.7310   33.5380 N.pl3  46  ARG46       0.1354
     25  N        -14.7920   78.7160   37.5640 N.3    77  THR77      -0.1203
     26  CA       -16.1790   78.3520   37.3620 C.3    77  THR77       0.1994
     27  C        -16.3340   76.9450   36.7710 C.2    77  THR77       0.2617
     28  O        -15.4720   76.4840   36.0200 O.2    77  THR77      -0.2717
     29  CB       -16.8640   79.4030   36.4640 C.3    77  THR77       0.1784
     30  OG1      -18.2720   79.1650   36.4300 O.3    77  THR77      -0.2211
     31  CG2      -16.3060   79.3580   35.0450 C.3    77  THR77       0.0376
     32  N        -17.4230   76.2660   37.1150 N.am   78  ALA78      -0.1979
     33  CA       -17.7150   74.9780   36.4880 C.3    78  ALA78       0.1597
     34  C        -17.8060   75.1710   34.9720 C.2    78  ALA78       0.2287
     35  O        -18.2910   76.2030   34.5110 O.2    78  ALA78      -0.2864
     36  CB       -19.0200   74.4110   37.0390 C.3    78  ALA78       0.0319
     37  N        -18.3600   71.7180   43.9220 N.3   174  HIS174     -0.1241
     38  CA       -19.3250   72.5510   43.2300 C.3   174  HIS174      0.1621
     39  C        -20.0930   71.6760   42.2460 C.2   174  HIS174      0.2264
     40  O        -19.5880   70.6250   41.8380 O.2   174  HIS174     -0.2867
     41  CB       -18.5310   73.6170   42.4770 C.3   174  HIS174      0.0745
     42  CG       -19.3700   74.6840   41.8540 C.ar  174  HIS174      0.0817
     43  ND1      -19.9260   74.5530   40.5970 N.ar  174  HIS174     -0.2268
     44  CD2      -19.7360   75.9060   42.3060 C.ar  174  HIS174      0.1154
     45  CE1      -20.6090   75.6480   40.3080 C.ar  174  HIS174      0.1986
     46  NE2      -20.5040   76.4880   41.3260 N.ar  174  HIS174     -0.2212
     47  N        -29.4010   72.2790   34.4920 N.3   193  SER193     -0.1202
     48  CA       -28.6980   73.3570   35.1620 C.3   193  SER193      0.2020
     49  C        -29.0710   73.4800   36.6420 C.2   193  SER193      0.2618
     50  O        -29.5210   72.5110   37.2680 O.2   193  SER193     -0.2717
     51  CB       -28.9730   74.6700   34.4120 C.3   193  SER193      0.2103
     52  OG       -28.1440   75.7310   34.8680 O.3   193  SER193     -0.2182
     53  N        -28.8770   74.6790   37.1890 N.am  194  ALA194     -0.1979
     54  CA       -29.0950   74.9570   38.6090 C.3   194  ALA194      0.1597
     55  C        -30.5050   74.6390   39.1050 C.2   194  ALA194      0.2287
     56  O        -30.7010   74.3030   40.2850 O.2   194  ALA194     -0.2864
     57  CB       -28.7510   76.4220   38.9140 C.3   194  ALA194      0.0319
     58  N        -28.1650   70.1910   38.7400 N.3   198  TYR198     -0.1241
     59  CA       -26.9630   70.4970   39.5220 C.3   198  TYR198      0.1605
     60  C        -27.0460   69.8710   40.9170 C.2   198  TYR198      0.2264
     61  O        -26.0860   69.2570   41.4080 O.2   198  TYR198     -0.2867
     62  CB       -26.7560   72.0150   39.6440 C.3   198  TYR198      0.0534
     63  CG       -26.0320   72.6470   38.4790 C.ar  198  TYR198     -0.0201
     64  CD1      -25.8650   71.9650   37.2840 C.ar  198  TYR198     -0.0009
     65  CD2      -25.5000   73.9340   38.5880 C.ar  198  TYR198     -0.0009
     66  CE1      -25.1860   72.5480   36.2150 C.ar  198  TYR198      0.0417
     67  CE2      -24.8190   74.5250   37.5410 C.ar  198  TYR198      0.0417
     68  CZ       -24.6690   73.8280   36.3550 C.ar  198  TYR198      0.1957
     69  OH       -23.9940   74.3940   35.2980 O.3   198  TYR198     -0.2866
     70  N        -25.4620   75.4680   47.8840 N.3   227  HIS227     -0.1241
     71  CA       -26.8930   75.2540   47.6430 C.3   227  HIS227      0.1621
     72  C        -27.5300   74.5270   48.8080 C.2   227  HIS227      0.2264
     73  O        -28.2780   73.5550   48.6500 O.2   227  HIS227     -0.2867
     74  CB       -27.0760   74.5860   46.2760 C.3   227  HIS227      0.0745
     75  CG       -26.1560   75.1830   45.2670 C.ar  227  HIS227      0.0817
     76  ND1      -25.0350   74.5310   44.8040 N.ar  227  HIS227     -0.2268
     77  CD2      -26.0930   76.4430   44.7680 C.ar  227  HIS227      0.1154
     78  CE1      -24.3510   75.3450   44.0180 C.ar  227  HIS227      0.1986
     79  NE2      -24.9790   76.5050   43.9670 N.ar  227  HIS227     -0.2212
     80  N        -22.9030   83.0770   44.9120 N.3   297  ASP297     -0.1239
     81  CA       -22.9270   82.4220   43.5990 C.3   297  ASP297      0.1674
     82  C        -22.8780   83.4810   42.4980 C.2   297  ASP297      0.2266
     83  O        -23.4890   83.3230   41.4360 O.2   297  ASP297     -0.2867
     84  CB       -24.1440   81.4820   43.4230 C.3   297  ASP297      0.1410
     85  CG       -23.7760   80.1530   42.7700 C.2   297  ASP297      0.3668
     86  OD1      -22.6880   80.0650   42.1500 O.co2 297  ASP297     -0.2456
     87  OD2      -24.5860   79.2080   42.8720 O.co2 297  ASP297     -0.2456
     88  N        -23.5420   84.4260   38.6830 N.3   300  TYR300     -0.1227
     89  CA       -24.7510   83.7480   38.2430 C.3   300  TYR300      0.1736
     90  C        -25.9690   84.2110   39.0330 C.2   300  TYR300      0.2595
     91  O        -27.1170   83.9860   38.6290 O.2   300  TYR300     -0.2718
     92  CB       -24.5500   82.2380   38.3490 C.3   300  TYR300      0.0548
     93  CG       -23.4050   81.7430   37.4860 C.ar  300  TYR300     -0.0200
     94  CD1      -23.5570   81.6190   36.1080 C.ar  300  TYR300     -0.0009
     95  CD2      -22.1670   81.4220   38.0390 C.ar  300  TYR300     -0.0009
     96  CE1      -22.5220   81.1680   35.3100 C.ar  300  TYR300      0.0417
     97  CE2      -21.1180   80.9730   37.2380 C.ar  300  TYR300      0.0417
     98  CZ       -21.3030   80.8550   35.8780 C.ar  300  TYR300      0.1957
     99  OH       -20.2790   80.4100   35.0650 O.3   300  TYR300     -0.2866
    100  N        -25.7120   84.8580   40.1640 N.am  301  GLN301     -0.1979
    101  CA       -26.7490   85.4910   40.9650 C.3   301  GLN301      0.1601
    102  C        -26.2470   86.8500   41.4060 C.2   301  GLN301      0.2287
    103  O        -25.0360   87.0520   41.5240 O.2   301  GLN301     -0.2864
    104  CB       -27.0640   84.6640   42.2000 C.3   301  GLN301      0.0394
    105  CG       -27.6290   83.3150   41.8470 C.3   301  GLN301      0.0908
    106  CD       -28.6540   82.8270   42.8250 C.2   301  GLN301      0.2608
    107  OE1      -29.2220   83.5940   43.6170 O.2   301  GLN301     -0.2717
    108  NE2      -28.9130   81.5470   42.7720 N.am  301  GLN301     -0.0878
@<TRIPOS>BOND
     1    14    15    1
     2    16    15    1
     3    16    17    2
     4    15    18    1
     5     9     8    2
     6    18    19    1
     7     8     7    1
     8     6     7    1
     9    19    20    1
    10     7    10    1
    11    20    21    1
    12    10    11    1
    13    21    22    2
    14    11    12    1
    15    11    13    1
    16    23    22    1
    17    22    24    1
    18    51    52    1
    19    51    48    1
    20    47    48    1
    21    35    34    2
    22    34    33    1
    23    31    29    1
    24    99    98    1
    25    48    49    1
    26    69    68    1
    27    96    98   ar
    28    96    94   ar
    29    98    97   ar
    30    28    27    2
    31    94    93   ar
    32    66    68   ar
    33    66    64   ar
    34    68    67   ar
    35    30    29    1
    36    29    26    1
    37    33    36    1
    38    33    32    1
    39    49    53   am
    40    49    50    2
    41    27    32   am
    42    27    26    1
    43    53    54    1
    44    97    95   ar
    45    64    63   ar
    46    26    25    1
    47    93    95   ar
    48    93    92    1
    49    67    65   ar
    50    89    92    1
    51    89    88    1
    52    89    90    1
    53    63    65   ar
    54    63    62    1
    55    54    57    1
    56    54    55    1
    57    91    90    2
    58    58    59    1
    59    90   100   am
    60    55    56    2
    61     5     2    1
    62     4     3    2
    63     3     2    1
    64    59    62    1
    65    59    60    1
    66   100   101    1
    67     2     1    1
    68    45    43   ar
    69    45    46   ar
    70    43    42   ar
    71    60    61    2
    72   101   102    1
    73   101   104    1
    74    46    44   ar
    75   102   103    2
    76    83    82    2
    77    40    39    2
    78   105   104    1
    79   105   106    1
    80    42    44   ar
    81    42    41    1
    82    86    85   ar
    83    39    38    1
    84    41    38    1
    85    82    81    1
    86    85    87   ar
    87    85    84    1
    88   108   106   am
    89   106   107    2
    90    38    37    1
    91    84    81    1
    92    81    80    1
    93    79    78   ar
    94    79    77   ar
    95    78    76   ar
    96    77    75   ar
    97    76    75   ar
    98    75    74    1
    99    74    71    1
   100    71    70    1
   101    71    72    1
   102    73    72    2
