@<TRIPOS>MOLECULE
tmp/4l6hA01.pdb
 116 115 0 0 0
SMALL
GASTEIGER

@<TRIPOS>ATOM
      1  N        -21.6480   17.1430  -13.6270 N.3   117  MET117     -0.1245
      2  CA       -20.7100   17.1610  -14.7770 C.3   117  MET117      0.1570
      3  C        -21.3780   17.8850  -15.9170 C.2   117  MET117      0.2261
      4  O        -22.5880   17.7320  -16.1910 O.2   117  MET117     -0.2867
      5  CB       -20.2960   15.7450  -15.1720 C.3   117  MET117      0.0387
      6  CG       -21.2720   14.9370  -15.9800 C.3   117  MET117      0.0595
      7  SD       -20.5210   13.7290  -17.1470 S.3   117  MET117     -0.1393
      8  CE       -21.9960   13.3160  -18.0750 C.3   117  MET117      0.0692
      9  N        -15.9110   16.7550  -20.4410 N.3   126  HIS126     -0.1241
     10  CA       -16.7970   17.2530  -19.3800 C.3   126  HIS126      0.1621
     11  C        -16.0500   17.7290  -18.1470 C.2   126  HIS126      0.2264
     12  O        -15.1230   17.0660  -17.6570 O.2   126  HIS126     -0.2867
     13  CB       -17.7410   16.1620  -18.9460 C.3   126  HIS126      0.0745
     14  CG       -18.5540   15.6240  -20.0520 C.ar  126  HIS126      0.0817
     15  ND1      -18.0760   14.6760  -20.9320 N.ar  126  HIS126     -0.2268
     16  CD2      -19.8010   15.9290  -20.4580 C.ar  126  HIS126      0.1154
     17  CE1      -18.9920   14.4420  -21.8610 C.ar  126  HIS126      0.1986
     18  NE2      -20.0590   15.1730  -21.5770 N.ar  126  HIS126     -0.2212
     19  N        -21.5670   -0.5530  -28.1970 N.3   502  ASP502     -0.1225
     20  CA       -21.3100    0.8690  -28.2850 C.3   502  ASP502      0.1805
     21  C        -22.2530    1.4700  -29.3390 C.2   502  ASP502      0.2598
     22  O        -22.4040    0.9050  -30.4120 O.2   502  ASP502     -0.2718
     23  CB       -19.8690    1.1540  -28.7200 C.3   502  ASP502      0.1424
     24  CG       -19.5820    2.6500  -28.8100 C.2   502  ASP502      0.3668
     25  OD1      -19.6570    3.2900  -29.9040 O.co2 502  ASP502     -0.2456
     26  OD2      -19.3180    3.2360  -27.7470 O.co2 502  ASP502     -0.2456
     27  N        -22.8720    2.5910  -29.0190 N.am  503  MET503     -0.1965
     28  CA       -23.9430    3.1460  -29.8010 C.3   503  MET503      0.1736
     29  C        -23.5070    3.7080  -31.1290 C.2   503  MET503      0.2616
     30  O        -24.3770    3.9600  -31.9700 O.2   503  MET503     -0.2715
     31  CB       -24.5630    4.3400  -29.0690 C.3   503  MET503      0.0427
     32  CG       -25.7790    3.9780  -28.2430 C.3   503  MET503      0.0599
     33  SD       -26.0790    5.6500  -27.6610 S.3   503  MET503     -0.1393
     34  CE       -27.4030    5.8770  -28.8660 C.3   503  MET503      0.0692
     35  N        -22.2300    4.0850  -31.2710 N.am  504  VAL504     -0.1977
     36  CA       -21.7390    4.5780  -32.5300 C.3   504  VAL504      0.1596
     37  C        -20.8610    3.6010  -33.3050 C.2   504  VAL504      0.2287
     38  O        -21.0100    3.3980  -34.5330 O.2   504  VAL504     -0.2864
     39  CB       -20.9680    5.8790  -32.2930 C.3   504  VAL504      0.0276
     40  CG1      -20.3350    6.4280  -33.5500 C.3   504  VAL504      0.0022
     41  CG2      -21.9340    6.8870  -31.7320 C.3   504  VAL504      0.0022
     42  N        -13.1830   11.6210  -21.5650 N.3   524  SER524     -0.1202
     43  CA       -14.5160   12.1680  -21.6840 C.3   524  SER524      0.2020
     44  C        -14.9120   12.8030  -20.3530 C.2   524  SER524      0.2618
     45  O        -15.3530   13.9510  -20.3280 O.2   524  SER524     -0.2717
     46  CB       -15.5210   11.1280  -22.1660 C.3   524  SER524      0.2103
     47  OG       -16.8750   11.6150  -22.0750 O.3   524  SER524     -0.2182
     48  N        -14.7920   12.0490  -19.2630 N.am  525  TYR525     -0.1975
     49  CA       -15.0460   12.5590  -17.9060 C.3   525  TYR525      0.1639
     50  C        -14.3080   11.6750  -16.9300 C.2   525  TYR525      0.2290
     51  O        -14.4030   10.4400  -17.0110 O.2   525  TYR525     -0.2864
     52  CB       -16.5330   12.4970  -17.5770 C.3   525  TYR525      0.0560
     53  CG       -16.9660   13.2920  -16.3490 C.ar  525  TYR525     -0.0198
     54  CD1      -16.6220   14.6230  -16.2000 C.ar  525  TYR525     -0.0009
     55  CD2      -17.7080   12.6950  -15.3380 C.ar  525  TYR525     -0.0009
     56  CE1      -17.0520   15.3630  -15.1030 C.ar  525  TYR525      0.0417
     57  CE2      -18.1010   13.4160  -14.2240 C.ar  525  TYR525      0.0417
     58  CZ       -17.7700   14.7180  -14.1030 C.ar  525  TYR525      0.1957
     59  OH       -18.2680   15.3880  -13.0070 O.3   525  TYR525     -0.2866
     60  N        -13.2820    7.9910  -17.3360 N.3   528  ARG528     -0.1245
     61  CA       -14.0620    7.4230  -18.4560 C.3   528  ARG528      0.1563
     62  C        -13.6460    8.0370  -19.7820 C.2   528  ARG528      0.2260
     63  O        -13.7910    9.2400  -19.9370 O.2   528  ARG528     -0.2867
     64  CB       -15.5420    7.6120  -18.2310 C.3   528  ARG528      0.0307
     65  CG       -15.9760    6.8570  -16.9850 C.3   528  ARG528      0.0489
     66  CD       -16.2440    7.7890  -15.8910 C.3   528  ARG528      0.2205
     67  NE       -17.2290    8.7220  -16.3850 N.pl3 528  ARG528     -0.0865
     68  CZ       -18.4880    8.7260  -16.0250 C.cat 528  ARG528      0.5346
     69  NH1      -18.9680    7.7410  -15.2670 N.pl3 528  ARG528      0.1354
     70  NH2      -19.2680    9.7430  -16.4180 N.pl3 528  ARG528      0.1354
     71  N        -13.2560    7.8040  -24.2640 N.3   530  VAL530     -0.1231
     72  CA       -13.8770    7.2890  -25.4630 C.3   530  VAL530      0.1692
     73  C        -12.8290    7.0750  -26.5120 C.2   530  VAL530      0.2592
     74  O        -11.7740    7.6940  -26.4620 O.2   530  VAL530     -0.2718
     75  CB       -14.9870    8.2440  -25.9600 C.3   530  VAL530      0.0266
     76  CG1      -16.1210    8.2440  -24.9440 C.3   530  VAL530      0.0020
     77  CG2      -14.5030    9.6780  -26.1520 C.3   530  VAL530      0.0020
     78  N        -13.1110    6.1650  -27.4370 N.am  531  ARG531     -0.1966
     79  CA       -12.2080    5.8920  -28.5390 C.3   531  ARG531      0.1714
     80  C        -13.0380    6.1780  -29.8330 C.2   531  ARG531      0.2458
     81  O        -13.7130    5.2810  -30.3520 O.2   531  ARG531     -0.2730
     82  CB       -11.6680    4.4090  -28.4120 C.3   531  ARG531      0.0347
     83  CG       -10.6320    4.0700  -29.4790 C.3   531  ARG531      0.0492
     84  CD        -9.8820    2.7640  -29.2210 C.3   531  ARG531      0.2205
     85  NE       -10.8520    1.7110  -29.1000 N.pl3 531  ARG531     -0.0865
     86  CZ       -10.6090    0.4680  -28.6500 C.cat 531  ARG531      0.5346
     87  NH1       -9.4090    0.0650  -28.2260 N.pl3 531  ARG531      0.1354
     88  NH2      -11.6210   -0.3920  -28.5740 N.pl3 531  ARG531      0.1354
     89  N        -13.1320    7.4280  -30.2780 N.am  532  PRO532     -0.2716
     90  CA       -14.0500    7.7040  -31.3410 C.3   532  PRO532      0.1521
     91  C        -13.6490    7.0630  -32.6650 C.2   532  PRO532      0.2440
     92  O        -12.4420    7.0320  -33.0240 O.2   532  PRO532     -0.2731
     93  CB       -13.9000    9.2550  -31.5660 C.3   532  PRO532      0.0310
     94  CG       -13.3570    9.7650  -30.2350 C.3   532  PRO532      0.0237
     95  CD       -12.4670    8.6430  -29.8000 C.3   532  PRO532      0.0939
     96  N        -14.6410    6.6210  -33.4260 N.am  533  PRO533     -0.2727
     97  CA       -14.3880    6.3140  -34.8160 C.3   533  PRO533      0.1402
     98  C        -13.9250    7.5760  -35.5570 C.2   533  PRO533      0.2269
     99  O        -14.1870    8.6910  -35.1020 O.2   533  PRO533     -0.2865
    100  CB       -15.7980    5.9120  -35.3480 C.3   533  PRO533      0.0296
    101  CG       -16.5680    5.5710  -34.1540 C.3   533  PRO533      0.0237
    102  CD       -16.0680    6.4580  -33.0620 C.3   533  PRO533      0.0939
    103  N        -20.0550   12.0400  -32.2550 N.3   574  TRP574     -0.1241
    104  CA       -19.2100   11.2050  -31.4250 C.3   574  TRP574      0.1605
    105  C        -18.1210   10.4940  -32.2160 C.2   574  TRP574      0.2264
    106  O        -17.4940    9.5030  -31.7510 O.2   574  TRP574     -0.2867
    107  CB       -20.1390   10.2160  -30.6960 C.3   574  TRP574      0.0550
    108  CG       -20.9280   10.8690  -29.5770 C.ar  574  TRP574      0.0003
    109  CD1      -20.9870   12.1790  -29.2610 C.ar  574  TRP574      0.0946
    110  CD2      -21.9230   10.2330  -28.7730 C.ar  574  TRP574      0.0152
    111  NE1      -21.8640   12.3830  -28.2200 N.ar  574  TRP574     -0.2442
    112  CE2      -22.4460   11.1920  -27.9100 C.ar  574  TRP574      0.0810
    113  CE3      -22.3520    8.9230  -28.6520 C.ar  574  TRP574      0.0012
    114  CZ2      -23.4580   10.8980  -26.9430 C.ar  574  TRP574      0.0191
    115  CZ3      -23.3460    8.6350  -27.7060 C.ar  574  TRP574      0.0001
    116  CH2      -23.8710    9.6080  -26.8680 C.ar  574  TRP574      0.0015
@<TRIPOS>BOND
     1    98    99    2
     2    98    97    1
     3   100    97    1
     4   100   101    1
     5    97    96    1
     6    38    37    2
     7   101   102    1
     8    40    39    1
     9    96   102    1
    10    96    91   am
    11    37    36    1
    12    92    91    2
    13    91    90    1
    14    36    39    1
    15    36    35    1
    16    39    41    1
    17   103   104    1
    18   105   106    2
    19   105   104    1
    20    30    29    2
    21    93    90    1
    22    93    94    1
    23   104   107    1
    24    90    89    1
    25    35    29   am
    26    29    28    1
    27   107   108    1
    28    22    21    2
    29    81    80    2
    30    89    80   am
    31    89    95    1
    32    94    95    1
    33    25    24   ar
    34    80    79    1
    35    28    31    1
    36    28    27    1
    37   108   109   ar
    38   108   110   ar
    39    83    84    1
    40    83    82    1
    41    21    27   am
    42    21    20    1
    43   109   111   ar
    44    84    85    1
    45    85    86    2
    46    31    32    1
    47    34    33    1
    48    24    23    1
    49    24    26   ar
    50   110   113   ar
    51   110   112   ar
    52    23    20    1
    53   113   115   ar
    54    86    88    1
    55    86    87    1
    56    79    82    1
    57    79    78    1
    58    20    19    1
    59    32    33    1
    60   111   112   ar
    61   112   114   ar
    62   115   116   ar
    63    78    73   am
    64   114   116   ar
    65    73    74    2
    66    73    72    1
    67    77    75    1
    68    75    72    1
    69    75    76    1
    70    72    71    1
    71    46    47    1
    72    46    43    1
    73    17    18   ar
    74    17    15   ar
    75    43    42    1
    76    43    44    1
    77    18    16   ar
    78    15    14   ar
    79    16    14   ar
    80     9    10    1
    81    44    45    2
    82    44    48   am
    83    14    13    1
    84    63    62    2
    85    62    61    1
    86    10    13    1
    87    10    11    1
    88    48    49    1
    89    61    64    1
    90    61    60    1
    91    64    65    1
    92    11    12    2
    93     8     7    1
    94    49    52    1
    95    49    50    1
    96    52    53    1
    97     7     6    1
    98    51    50    2
    99    65    66    1
   100    70    68    1
   101    67    68    2
   102    67    66    1
   103    53    54   ar
   104    53    55   ar
   105    54    56   ar
   106     4     3    2
   107    68    69    1
   108     6     5    1
   109     3     2    1
   110    55    57   ar
   111     5     2    1
   112    56    58   ar
   113     2     1    1
   114    57    58   ar
   115    58    59    1
