@<TRIPOS>MOLECULE
tmp/4l6oA00.pdb
 107 100 0 0 0
SMALL
GASTEIGER

@<TRIPOS>ATOM
      1  N         56.9040   -2.2290   21.7940 N.3   435  ILE435     -0.1231
      2  CA        56.0100   -1.2990   21.0570 C.3   435  ILE435      0.1692
      3  C         54.9900   -0.5820   21.9200 C.2   435  ILE435      0.2593
      4  O         54.4140    0.4220   21.4890 O.2   435  ILE435     -0.2718
      5  CB        55.2980   -2.0290   19.9030 C.3   435  ILE435      0.0266
      6  CG1       56.3040   -2.8820   19.0980 C.3   435  ILE435      0.0019
      7  CG2       54.5230   -1.0420   19.0160 C.3   435  ILE435      0.0020
      8  CD1       57.3520   -2.0850   18.3350 C.3   435  ILE435      0.0001
      9  N         54.7230   -1.0610   23.1270 N.am  436  GLY436     -0.1942
     10  CA        54.0060   -0.2310   24.1180 C.3   436  GLY436      0.2014
     11  C         53.1700   -0.9690   25.1410 C.2   436  GLY436      0.2639
     12  O         53.2680   -0.6940   26.3400 O.2   436  GLY436     -0.2714
     13  N         52.3290   -1.8790   24.6710 N.am  437  SER437     -0.1949
     14  CA        51.3600   -2.4810   25.5450 C.3   437  SER437      0.1924
     15  C         51.8740   -3.8000   26.1690 C.2   437  SER437      0.2314
     16  O         52.6630   -4.5480   25.5570 O.2   437  SER437     -0.2863
     17  CB        50.0500   -2.6810   24.8130 C.3   437  SER437      0.2116
     18  OG        50.2260   -3.5840   23.7460 O.3   437  SER437     -0.2180
     19  N         50.7670    1.0970   29.0340 N.3   484  GLU484     -0.1245
     20  CA        49.4430    1.6670   28.6740 C.3   484  GLU484      0.1567
     21  C         48.2560    1.0480   29.4230 C.2   484  GLU484      0.2260
     22  O         47.1730    0.8490   28.8320 O.2   484  GLU484     -0.2867
     23  CB        49.2180    1.5260   27.1530 C.3   484  GLU484      0.0388
     24  CG        50.1910    2.3280   26.2950 C.3   484  GLU484      0.1160
     25  CD        50.2250    1.8680   24.8530 C.2   484  GLU484      0.3649
     26  OE1       49.1830    1.8760   24.2080 O.co2 484  GLU484     -0.2457
     27  OE2       51.2940    1.4670   24.3570 O.co2 484  GLU484     -0.2457
     28  N         43.0450    2.8000   21.3520 N.3   490  MET490     -0.1245
     29  CA        44.0280    3.7810   20.9500 C.3   490  MET490      0.1570
     30  C         43.4600    5.0370   20.2840 C.2   490  MET490      0.2261
     31  O         44.2030    6.0130   20.0960 O.2   490  MET490     -0.2867
     32  CB        45.1580    3.1280   20.1880 C.3   490  MET490      0.0387
     33  CG        44.7520    2.3420   18.9980 C.3   490  MET490      0.0595
     34  SD        46.1900    1.5660   18.2330 S.3   490  MET490     -0.1393
     35  CE        47.4020    2.8780   18.1310 C.3   490  MET490      0.0692
     36  N         53.9060    7.8250   24.2050 N.3   551  MET551     -0.1245
     37  CA        53.0860    6.9940   23.3570 C.3   551  MET551      0.1570
     38  C         51.8040    7.7020   22.9180 C.2   551  MET551      0.2261
     39  O         50.9190    7.9870   23.7650 O.2   551  MET551     -0.2867
     40  CB        52.7350    5.7590   24.1390 C.3   551  MET551      0.0387
     41  CG        52.2290    4.5950   23.2880 C.3   551  MET551      0.0595
     42  SD        53.4430    3.9960   22.0250 S.3   551  MET551     -0.1393
     43  CE        54.7540    3.4960   23.1550 C.3   551  MET551      0.0692
     44  N         39.7690    6.1390   12.1300 N.3   561  TRP561     -0.1241
     45  CA        39.0370    5.2570   13.0600 C.3   561  TRP561      0.1605
     46  C         37.8840    5.9920   13.7610 C.2   561  TRP561      0.2264
     47  O         37.2710    5.4210   14.6840 O.2   561  TRP561     -0.2867
     48  CB        39.9330    4.5340   14.0280 C.3   561  TRP561      0.0550
     49  CG        40.8190    3.4700   13.3260 C.ar  561  TRP561      0.0003
     50  CD1       40.7590    3.1040   12.0290 C.ar  561  TRP561      0.0946
     51  CD2       41.7840    2.6340   13.9350 C.ar  561  TRP561      0.0152
     52  NE1       41.6540    2.0830   11.7760 N.ar  561  TRP561     -0.2442
     53  CE2       42.3270    1.8160   12.9320 C.ar  561  TRP561      0.0810
     54  CE3       42.2900    2.5350   15.2310 C.ar  561  TRP561      0.0012
     55  CZ2       43.3310    0.8940   13.1750 C.ar  561  TRP561      0.0191
     56  CZ3       43.3110    1.6220   15.4790 C.ar  561  TRP561      0.0001
     57  CH2       43.8230    0.8090   14.4410 C.ar  561  TRP561      0.0015
     58  N         52.1190    6.2280   16.7240 N.3   599  ASP599     -0.1239
     59  CA        51.6140    4.9860   16.0480 C.3   599  ASP599      0.1674
     60  C         50.6000    5.4390   14.9710 C.2   599  ASP599      0.2266
     61  O         49.6160    6.1610   15.2780 O.2   599  ASP599     -0.2867
     62  CB        50.8340    4.1230   17.0710 C.3   599  ASP599      0.1410
     63  CG        51.6450    3.6140   18.3020 C.2   599  ASP599      0.3668
     64  OD1       52.7780    3.1820   18.1370 O.co2 599  ASP599     -0.2456
     65  OD2       51.0750    3.5680   19.4690 O.co2 599  ASP599     -0.2456
     66  N         48.7340    3.1340   12.7430 N.3   601  PRO601     -0.2116
     67  CA        48.2410    1.8980   12.0660 C.3   601  PRO601      0.1372
     68  C         47.2810    2.0630   10.9030 C.2   601  PRO601      0.2244
     69  O         47.2490    1.1980   10.0650 O.2   601  PRO601     -0.2868
     70  CB        47.5670    1.1150   13.2230 C.3   601  PRO601      0.0268
     71  CG        47.2350    2.1380   14.2900 C.3   601  PRO601      0.0207
     72  CD        48.4000    3.1230   14.1880 C.3   601  PRO601      0.0892
     73  N         55.6020    3.5970   14.6910 N.3   642  HIS642     -0.1241
     74  CA        55.2490    2.2590   14.5080 C.3   642  HIS642      0.1621
     75  C         54.0840    2.1240   13.5060 C.2   642  HIS642      0.2264
     76  O         53.0640    2.8780   13.5530 O.2   642  HIS642     -0.2867
     77  CB        54.8130    1.7010   15.8340 C.3   642  HIS642      0.0745
     78  CG        54.3870    0.2940   15.7230 C.ar  642  HIS642      0.0817
     79  ND1       55.2440   -0.6780   15.2810 N.ar  642  HIS642     -0.2268
     80  CD2       53.1960   -0.3050   15.9240 C.ar  642  HIS642      0.1154
     81  CE1       54.6090   -1.8290   15.2270 C.ar  642  HIS642      0.1986
     82  NE2       53.3720   -1.6310   15.6250 N.ar  642  HIS642     -0.2212
     83  N         51.8100   -1.1480   11.5460 N.3   644  CYS644     -0.1235
     84  CA        51.4010   -2.5560   11.6910 C.3   644  CYS644      0.1677
     85  C         51.2410   -3.1870   10.3080 C.2   644  CYS644      0.2270
     86  O         50.2590   -3.8610   10.0480 O.2   644  CYS644     -0.2867
     87  CB        50.0810   -2.6760   12.4610 C.3   644  CYS644      0.0956
     88  SG        49.9640   -1.7760   14.0280 S.3   644  CYS644     -0.0801
     89  N         54.5050   -6.0820   17.4500 N.3   718  CYS718     -0.1221
     90  CA        53.5300   -5.1150   17.9520 C.3   718  CYS718      0.1808
     91  C         53.4930   -5.1700   19.4930 C.2   718  CYS718      0.2601
     92  O         54.3270   -5.8340   20.1210 O.2   718  CYS718     -0.2717
     93  CB        52.1490   -5.3670   17.3160 C.3   718  CYS718      0.0970
     94  SG        51.0100   -3.9680   17.3970 S.3   718  CYS718     -0.0800
     95  N         52.5390   -4.4770   20.0970 N.am  719  GLY719     -0.1957
     96  CA        52.3690   -4.4830   21.5520 C.3   719  GLY719      0.1869
     97  C         51.9210   -5.8810   21.9740 C.2   719  GLY719      0.2309
     98  O         51.4600   -6.6490   21.1330 O.2   719  GLY719     -0.2863
     99  N         49.7460   -6.4740   24.6180 N.3   721  LYS721     -0.1245
    100  CA        48.4460   -6.3370   25.2500 C.3   721  LYS721      0.1561
    101  C         47.6570   -7.6400   25.1640 C.2   721  LYS721      0.2260
    102  O         47.0090   -8.0480   26.1360 O.2   721  LYS721     -0.2867
    103  CB        47.6380   -5.2800   24.4800 C.3   721  LYS721      0.0271
    104  CG        46.3920   -4.8170   25.2140 C.3   721  LYS721      0.0035
    105  CD        45.8370   -3.5230   24.6110 C.3   721  LYS721      0.0206
    106  CE        44.6200   -3.0540   25.3890 C.3   721  LYS721      0.1093
    107  NZ        43.9590   -1.8730   24.7640 N.3   721  LYS721     -0.1314
@<TRIPOS>BOND
     1    86    85    2
     2    69    68    2
     3    85    84    1
     4    68    67    1
     5    83    84    1
     6    84    87    1
     7    52    50   ar
     8    52    53   ar
     9    50    49   ar
    10    67    66    1
    11    67    70    1
    12    44    45    1
    13    87    88    1
    14    66    72    1
    15    53    55   ar
    16    53    51   ar
    17    45    46    1
    18    45    48    1
    19    55    57   ar
    20    70    71    1
    21    49    51   ar
    22    49    48    1
    23    75    76    2
    24    75    74    1
    25    46    47    2
    26    51    54   ar
    27    72    71    1
    28    57    56   ar
    29    74    73    1
    30    74    77    1
    31    60    61    2
    32    60    59    1
    33    81    79   ar
    34    81    82   ar
    35    54    56   ar
    36    79    78   ar
    37    82    80   ar
    38    78    77    1
    39    78    80   ar
    40    59    58    1
    41    59    62    1
    42    62    63    1
    43    93    94    1
    44    93    90    1
    45    89    90    1
    46    90    91    1
    47    35    34    1
    48    64    63   ar
    49    34    33    1
    50    63    65   ar
    51     8     6    1
    52    33    32    1
    53     7     5    1
    54     6     5    1
    55    91    95   am
    56    91    92    2
    57     5     2    1
    58    31    30    2
    59    95    96    1
    60    32    29    1
    61    30    29    1
    62    29    28    1
    63     2     1    1
    64     2     3    1
    65    98    97    2
    66     4     3    2
    67    96    97    1
    68     3     9   am
    69    42    43    1
    70    42    41    1
    71    38    37    1
    72    38    39    2
    73     9    10    1
    74    41    40    1
    75    37    40    1
    76    37    36    1
    77    18    17    1
    78    10    11    1
    79    26    25   ar
    80    27    25   ar
    81   103   104    1
    82   103   100    1
    83   105   104    1
    84   105   106    1
    85    99   100    1
    86    13    11   am
    87    13    14    1
    88   107   106    1
    89    17    14    1
    90    25    24    1
    91    11    12    2
    92   101   100    1
    93   101   102    2
    94    14    15    1
    95    16    15    2
    96    24    23    1
    97    23    20    1
    98    20    19    1
    99    20    21    1
   100    22    21    2
