@<TRIPOS>MOLECULE
tmp/4l6qA00.pdb
 142 132 0 0 0
SMALL
GASTEIGER

@<TRIPOS>ATOM
      1  N         -8.0660    1.1730  -40.9090 N.3    72  ILE72      -0.1231
      2  CA        -9.0110    0.8140  -39.8360 C.3    72  ILE72       0.1692
      3  C         -8.8770    1.6810  -38.5810 C.2    72  ILE72       0.2592
      4  O         -9.7110    1.5840  -37.6830 O.2    72  ILE72      -0.2718
      5  CB        -8.8790   -0.6580  -39.4080 C.3    72  ILE72       0.0266
      6  CG1       -7.4930   -0.9310  -38.7850 C.3    72  ILE72       0.0019
      7  CG2       -9.1620   -1.5720  -40.5890 C.3    72  ILE72       0.0020
      8  CD1       -7.3060   -2.3780  -38.2900 C.3    72  ILE72       0.0001
      9  N         -7.8360    2.5090  -38.5030 N.am   73  GLY73      -0.1957
     10  CA        -7.7360    3.4790  -37.4130 C.3    73  GLY73       0.1869
     11  C         -6.8080    4.6310  -37.7230 C.2    73  GLY73       0.2309
     12  O         -5.8380    4.4510  -38.4460 O.2    73  GLY73      -0.2863
     13  N         -3.4820    3.1650  -38.4810 N.3    80  VAL80      -0.1245
     14  CA        -3.3790    1.7360  -38.4760 C.3    80  VAL80       0.1561
     15  C         -4.1120    1.2510  -39.7110 C.2    80  VAL80       0.2260
     16  O         -5.2720    1.6370  -39.9690 O.2    80  VAL80      -0.2867
     17  CB        -3.9640    1.1290  -37.1950 C.3    80  VAL80       0.0252
     18  CG1       -3.7580   -0.3700  -37.1790 C.3    80  VAL80       0.0019
     19  CG2       -3.3120    1.7860  -35.9740 C.3    80  VAL80       0.0019
     20  N         -2.2180   -6.3020  -39.3290 N.3    93  ALA93      -0.1245
     21  CA        -2.5310   -4.9300  -39.0030 C.3    93  ALA93       0.1562
     22  C         -1.1910   -4.2450  -38.9440 C.2    93  ALA93       0.2260
     23  O         -0.2340   -4.8230  -38.4260 O.2    93  ALA93      -0.2867
     24  CB        -3.2380   -4.8420  -37.6820 C.3    93  ALA93       0.0290
     25  N          0.7540   -0.5190  -38.0330 N.3    95  LYS95      -0.1245
     26  CA         0.6280    0.8010  -37.4600 C.3    95  LYS95       0.1561
     27  C          1.7370    1.6280  -38.0000 C.2    95  LYS95       0.2260
     28  O          2.8990    1.2310  -37.9140 O.2    95  LYS95      -0.2867
     29  CB         0.7240    0.7890  -35.9340 C.3    95  LYS95       0.0271
     30  CG         0.4100    2.1720  -35.3420 C.3    95  LYS95       0.0035
     31  CD         0.8160    2.3490  -33.8830 C.3    95  LYS95       0.0206
     32  CE         0.0730    1.3890  -32.9520 C.3    95  LYS95       0.1093
     33  NZ         0.2230    1.7380  -31.5100 N.3    95  LYS95      -0.1314
     34  N         -1.2910   -8.1880  -27.9580 N.3   127  VAL127     -0.1245
     35  CA        -1.1980   -8.2760  -29.4230 C.3   127  VAL127      0.1561
     36  C          0.2420   -8.4220  -29.8810 C.2   127  VAL127      0.2260
     37  O          1.1240   -7.6320  -29.5180 O.2   127  VAL127     -0.2867
     38  CB        -1.8470   -7.0610  -30.1570 C.3   127  VAL127      0.0252
     39  CG1       -1.2020   -6.8300  -31.5070 C.3   127  VAL127      0.0019
     40  CG2       -3.3190   -7.2920  -30.3520 C.3   127  VAL127      0.0019
     41  N          1.4480   -6.3080  -36.9590 N.3   143  MET143     -0.1230
     42  CA         0.8650   -6.9360  -35.7640 C.3   143  MET143      0.1702
     43  C         -0.1140   -8.0210  -36.1530 C.2   143  MET143      0.2592
     44  O         -0.6200   -7.9970  -37.2650 O.2   143  MET143     -0.2718
     45  CB         0.1190   -5.8680  -34.9460 C.3   143  MET143      0.0401
     46  CG         0.9260   -4.5860  -34.7650 C.3   143  MET143      0.0596
     47  SD         0.1840   -3.3770  -33.6770 S.3   143  MET143     -0.1393
     48  CE        -0.7630   -2.3480  -34.7960 C.3   143  MET143      0.0692
     49  N         -0.4320   -8.9510  -35.2600 N.am  144  GLU144     -0.1966
     50  CA        -1.5430   -9.8270  -35.5750 C.3   144  GLU144      0.1733
     51  C         -2.8030   -8.9690  -35.6620 C.2   144  GLU144      0.2616
     52  O         -3.0060   -8.0510  -34.8720 O.2   144  GLU144     -0.2715
     53  CB        -1.6860  -11.0050  -34.6080 C.3   144  GLU144      0.0429
     54  CG        -2.0210  -10.6590  -33.1640 C.3   144  GLU144      0.1163
     55  CD        -1.9930  -11.8880  -32.2470 C.2   144  GLU144      0.3649
     56  OE1       -2.2090  -13.0190  -32.7700 O.co2 144  GLU144     -0.2457
     57  OE2       -1.7560  -11.7100  -31.0170 O.co2 144  GLU144     -0.2457
     58  N         -3.6050   -9.2330  -36.6830 N.am  145  TYR145     -0.1960
     59  CA        -4.8350   -8.4980  -36.9110 C.3   145  TYR145      0.1771
     60  C         -5.8950   -9.0190  -35.9690 C.2   145  TYR145      0.2619
     61  O         -6.1740  -10.2080  -35.9610 O.2   145  TYR145     -0.2715
     62  CB        -5.2950   -8.7000  -38.3500 C.3   145  TYR145      0.0574
     63  CG        -6.6480   -8.1200  -38.6840 C.ar  145  TYR145     -0.0198
     64  CD1       -6.9460   -6.7940  -38.4070 C.ar  145  TYR145     -0.0009
     65  CD2       -7.6070   -8.8840  -39.3180 C.ar  145  TYR145     -0.0009
     66  CE1       -8.1780   -6.2530  -38.7310 C.ar  145  TYR145      0.0417
     67  CE2       -8.8380   -8.3580  -39.6470 C.ar  145  TYR145      0.0417
     68  CZ        -9.1250   -7.0420  -39.3510 C.ar  145  TYR145      0.1957
     69  OH       -10.3630   -6.5180  -39.6720 O.3   145  TYR145     -0.2866
     70  N         -6.4620   -8.1160  -35.1750 N.am  146  MET146     -0.1977
     71  CA        -7.5870   -8.4070  -34.2870 C.3   146  MET146      0.1605
     72  C         -8.8560   -7.9650  -34.9830 C.2   146  MET146      0.2287
     73  O         -9.1800   -6.7760  -34.9420 O.2   146  MET146     -0.2864
     74  CB        -7.4400   -7.6120  -32.9880 C.3   146  MET146      0.0413
     75  CG        -6.1620   -7.9130  -32.2260 C.3   146  MET146      0.0598
     76  SD        -6.1450   -9.6130  -31.6740 S.3   146  MET146     -0.1393
     77  CE        -7.5000   -9.4650  -30.5290 C.3   146  MET146      0.0692
     78  N         -2.8760    3.6800  -19.4710 N.3   188  ASP188     -0.1239
     79  CA        -3.9740    4.1610  -20.3230 C.3   188  ASP188      0.1674
     80  C         -4.9960    3.0460  -20.5890 C.2   188  ASP188      0.2266
     81  O         -5.3930    2.8240  -21.7320 O.2   188  ASP188     -0.2867
     82  CB        -3.4080    4.7470  -21.6310 C.3   188  ASP188      0.1410
     83  CG        -4.4580    5.4850  -22.4710 C.2   188  ASP188      0.3668
     84  OD1       -5.1500    6.3990  -21.9680 O.co2 188  ASP188     -0.2456
     85  OD2       -4.5730    5.1600  -23.6660 O.co2 188  ASP188     -0.2456
     86  N         -8.5300    1.3920  -20.9520 N.3   190  LYS190     -0.1245
     87  CA        -9.8270    1.8870  -21.4450 C.3   190  LYS190      0.1561
     88  C        -10.2790    1.0280  -22.6130 C.2   190  LYS190      0.2260
     89  O         -9.4420    0.4950  -23.3330 O.2   190  LYS190     -0.2867
     90  CB        -9.7400    3.3370  -21.9130 C.3   190  LYS190      0.0271
     91  CG        -8.7740    3.5940  -23.0500 C.3   190  LYS190      0.0035
     92  CD        -8.7120    5.0930  -23.3160 C.3   190  LYS190      0.0206
     93  CE        -7.9760    5.4450  -24.5860 C.3   190  LYS190      0.1093
     94  NZ        -7.5660    6.8720  -24.5540 N.3   190  LYS190     -0.1314
     95  N        -11.0810    1.5050  -25.5470 N.3   192  ASP192     -0.1225
     96  CA       -10.3920    1.8390  -26.8030 C.3   192  ASP192      0.1805
     97  C         -9.2030    0.9140  -27.0740 C.2   192  ASP192      0.2597
     98  O         -9.0220    0.4520  -28.1890 O.2   192  ASP192     -0.2718
     99  CB        -9.8870    3.2890  -26.8070 C.3   192  ASP192      0.1424
    100  CG       -10.9550    4.2850  -26.4060 C.2   192  ASP192      0.3668
    101  OD1      -11.2290    4.4010  -25.1920 O.co2 192  ASP192     -0.2456
    102  OD2      -11.5150    4.9520  -27.3000 O.co2 192  ASP192     -0.2456
    103  N         -8.4070    0.6500  -26.0420 N.am  193  ASN193     -0.1974
    104  CA        -7.1920   -0.1480  -26.1640 C.3   193  ASN193      0.1688
    105  C         -7.4420   -1.6200  -25.8480 C.2   193  ASN193      0.2292
    106  O         -6.5060   -2.3730  -25.5870 O.2   193  ASN193     -0.2864
    107  CB        -6.1130    0.4220  -25.2430 C.3   193  ASN193      0.1181
    108  CG        -5.8240    1.9000  -25.5150 C.2   193  ASN193      0.2629
    109  OD1       -6.1460    2.4190  -26.5800 O.2   193  ASN193     -0.2716
    110  ND2       -5.2070    2.5740  -24.5540 N.am  193  ASN193     -0.0877
    111  N         -8.9920   -4.8930  -27.6640 N.3   195  LEU195     -0.1245
    112  CA        -9.4150   -5.4160  -28.9580 C.3   195  LEU195      0.1561
    113  C         -9.8820   -6.8570  -28.8290 C.2   195  LEU195      0.2260
    114  O         -9.2090   -7.6670  -28.1860 O.2   195  LEU195     -0.2867
    115  CB        -8.2530   -5.3680  -29.9550 C.3   195  LEU195      0.0270
    116  CG        -7.6520   -3.9980  -30.2660 C.3   195  LEU195      0.0019
    117  CD1       -6.4460   -4.1900  -31.1420 C.3   195  LEU195      0.0001
    118  CD2       -8.6660   -3.0720  -30.9260 C.3   195  LEU195      0.0001
    119  N         -4.0530   -3.5370  -26.5570 N.3   205  ALA205     -0.1231
    120  CA        -3.6350   -3.1620  -27.9180 C.3   205  ALA205      0.1694
    121  C         -2.6120   -2.0470  -28.0170 C.2   205  ALA205      0.2592
    122  O         -1.6240   -2.1710  -28.7590 O.2   205  ALA205     -0.2718
    123  CB        -4.8360   -2.7970  -28.7450 C.3   205  ALA205      0.0304
    124  N         -2.8520   -0.9420  -27.3260 N.am  206  ASP206     -0.1974
    125  CA        -1.9620    0.2070  -27.4430 C.3   206  ASP206      0.1709
    126  C         -1.1640    0.2950  -26.1450 C.2   206  ASP206      0.2293
    127  O         -1.7440    0.2460  -25.0700 O.2   206  ASP206     -0.2864
    128  CB        -2.7950    1.4580  -27.7160 C.3   206  ASP206      0.1436
    129  CG        -1.9700    2.7270  -27.7740 C.2   206  ASP206      0.3671
    130  OD1       -0.7530    2.6740  -27.4880 O.co2 206  ASP206     -0.2456
    131  OD2       -2.5560    3.7900  -28.0980 O.co2 206  ASP206     -0.2456
    132  N        -14.8140   -2.3900  -37.6620 N.3   358  PHE358     -0.1241
    133  CA       -14.1220   -1.1140  -37.5270 C.3   358  PHE358      0.1605
    134  C        -14.8560   -0.0510  -38.3310 C.2   358  PHE358      0.2264
    135  O        -15.4800   -0.3520  -39.3470 O.2   358  PHE358     -0.2867
    136  CB       -12.6750   -1.2350  -38.0010 C.3   358  PHE358      0.0534
    137  CG       -11.8610   -2.2030  -37.2020 C.ar  358  PHE358     -0.0203
    138  CD1      -11.1430   -1.7770  -36.0980 C.ar  358  PHE358     -0.0042
    139  CD2      -11.8150   -3.5470  -37.5460 C.ar  358  PHE358     -0.0042
    140  CE1      -10.3910   -2.6650  -35.3580 C.ar  358  PHE358     -0.0003
    141  CE2      -11.0560   -4.4510  -36.8030 C.ar  358  PHE358     -0.0003
    142  CZ       -10.3460   -4.0040  -35.7120 C.ar  358  PHE358     -0.0000
@<TRIPOS>BOND
     1     1     2    1
     2     7     5    1
     3    16    15    2
     4     2     5    1
     5     2     3    1
     6    15    14    1
     7    69    68    1
     8    67    68   ar
     9    67    65   ar
    10     5     6    1
    11    68    66   ar
    12   135   134    2
    13    20    21    1
    14    65    63   ar
    15    21    22    1
    16    21    24    1
    17    22    23    2
    18     6     8    1
    19    66    64   ar
    20    63    64   ar
    21    63    62    1
    22     3     9   am
    23     3     4    2
    24     9    10    1
    25    13    14    1
    26    14    17    1
    27    12    11    2
    28    62    59    1
    29   134   133    1
    30    25    26    1
    31   136   133    1
    32   136   137    1
    33    27    28    2
    34    27    26    1
    35    11    10    1
    36   132   133    1
    37   139   137   ar
    38   139   141   ar
    39    26    29    1
    40    44    43    2
    41   137   138   ar
    42    17    18    1
    43    17    19    1
    44    41    42    1
    45    59    58    1
    46    59    60    1
    47   141   142   ar
    48    58    51   am
    49    43    42    1
    50    43    49   am
    51   138   140   ar
    52    60    61    2
    53    60    70   am
    54    29    30    1
    55    42    45    1
    56   142   140   ar
    57    51    50    1
    58    51    52    2
    59    50    49    1
    60    50    53    1
    61    30    31    1
    62    70    71    1
    63    72    73    2
    64    72    71    1
    65    45    46    1
    66    48    47    1
    67    46    47    1
    68    53    54    1
    69    71    74    1
    70    31    32    1
    71    54    55    1
    72    74    75    1
    73    32    33    1
    74    56    55   ar
    75    55    57   ar
    76    75    76    1
    77    76    77    1
    78    39    38    1
    79   117   116    1
    80   118   116    1
    81    40    38    1
    82   116   115    1
    83    38    35    1
    84   115   112    1
    85    36    37    2
    86    36    35    1
    87    35    34    1
    88   112   113    1
    89   112   111    1
    90   113   114    2
    91   122   121    2
    92   123   120    1
    93    98    97    2
    94   131   129   ar
    95   121   120    1
    96   121   124   am
    97   120   119    1
    98   129   128    1
    99   129   130   ar
   100   128   125    1
   101   125   124    1
   102   125   126    1
   103   102   100   ar
   104    97    96    1
   105    97   103   am
   106    99    96    1
   107    99   100    1
   108    96    95    1
   109   109   108    2
   110   100   101   ar
   111   104   103    1
   112   104   105    1
   113   104   107    1
   114   126   127    2
   115   105   106    2
   116   108   107    1
   117   108   110   am
   118    93    94    1
   119    93    92    1
   120    85    83   ar
   121    89    88    2
   122    92    91    1
   123    91    90    1
   124    88    87    1
   125    83    84   ar
   126    83    82    1
   127    90    87    1
   128    81    80    2
   129    82    79    1
   130    87    86    1
   131    80    79    1
   132    79    78    1
