@<TRIPOS>MOLECULE
tmp/4l6sA00.pdb
 184 179 0 0 0
SMALL
GASTEIGER

@<TRIPOS>ATOM
      1  N         15.7260  -13.0040  -10.3840 N.3   103  GLU103     -0.1245
      2  CA        15.6660  -12.1480   -9.2250 C.3   103  GLU103      0.1567
      3  C         16.8040  -12.4230   -8.2550 C.2   103  GLU103      0.2260
      4  O         17.3800  -11.4800   -7.7180 O.2   103  GLU103     -0.2867
      5  CB        14.3380  -12.2070   -8.4910 C.3   103  GLU103      0.0388
      6  CG        14.3190  -11.0900   -7.4460 C.3   103  GLU103      0.1160
      7  CD        12.9550  -10.8120   -6.8320 C.2   103  GLU103      0.3649
      8  OE1       12.1410  -10.0560   -7.4270 O.co2 103  GLU103     -0.2457
      9  OE2       12.7150  -11.3240   -5.7170 O.co2 103  GLU103     -0.2457
     10  N         20.0080  -10.8800   -9.7960 N.3   106  ASP106     -0.1225
     11  CA        19.9380   -9.4310   -9.5570 C.3   106  ASP106      0.1805
     12  C         20.4480   -9.0720   -8.1600 C.2   106  ASP106      0.2597
     13  O         21.2540   -8.1390   -7.9900 O.2   106  ASP106     -0.2718
     14  CB        18.4940   -8.9340   -9.6290 C.3   106  ASP106      0.1424
     15  CG        18.0060   -8.7180  -11.0570 C.2   106  ASP106      0.3668
     16  OD1       18.6410   -9.2120  -12.0250 O.co2 106  ASP106     -0.2456
     17  OD2       16.9500   -8.0600  -11.2020 O.co2 106  ASP106     -0.2456
     18  N         19.9350   -9.7840   -7.1560 N.am  107  ASN107     -0.1974
     19  CA        20.3790   -9.5550   -5.7870 C.3   107  ASN107      0.1688
     20  C         21.8990   -9.7530   -5.5680 C.2   107  ASN107      0.2292
     21  O         22.5350   -8.9310   -4.8770 O.2   107  ASN107     -0.2864
     22  CB        19.5440  -10.3810   -4.8220 C.3   107  ASN107      0.1181
     23  CG        18.1830   -9.7460   -4.5360 C.2   107  ASN107      0.2629
     24  OD1       18.0850   -8.5460   -4.3470 O.2   107  ASN107     -0.2716
     25  ND2       17.1340  -10.5620   -4.4990 N.am  107  ASN107     -0.0877
     26  N         24.2780   -9.3200   -7.6980 N.3   109  LEU109     -0.1231
     27  CA        24.9710   -8.1240   -8.1970 C.3   109  LEU109      0.1693
     28  C         25.0440   -7.0250   -7.1530 C.2   109  LEU109      0.2592
     29  O         26.0680   -6.3710   -7.0270 O.2   109  LEU109     -0.2718
     30  CB        24.3290   -7.5880   -9.4810 C.3   109  LEU109      0.0284
     31  CG        24.5490   -8.4590  -10.7350 C.3   109  LEU109      0.0019
     32  CD1       23.8680   -7.7980  -11.9260 C.3   109  LEU109      0.0001
     33  CD2       26.0340   -8.6570  -11.0470 C.3   109  LEU109      0.0001
     34  N         23.9590   -6.7800   -6.4170 N.am  110  ASP110     -0.1974
     35  CA        24.0880   -5.8430   -5.3100 C.3   110  ASP110      0.1709
     36  C         25.0080   -6.3680   -4.1970 C.2   110  ASP110      0.2293
     37  O         25.7880   -5.6220   -3.6480 O.2   110  ASP110     -0.2864
     38  CB        22.7360   -5.4420   -4.7490 C.3   110  ASP110      0.1436
     39  CG        22.0870   -4.3270   -5.5370 C.2   110  ASP110      0.3671
     40  OD1       22.8250   -3.4990   -6.1320 O.co2 110  ASP110     -0.2456
     41  OD2       20.8340   -4.2770   -5.5620 O.co2 110  ASP110     -0.2456
     42  N         10.5640    2.4590   -3.5380 N.3   202  HIS202     -0.1226
     43  CA        11.2960    1.2690   -3.9990 C.3   202  HIS202      0.1752
     44  C         11.8660    0.6100   -2.7410 C.2   202  HIS202      0.2597
     45  O         12.7680    1.1660   -2.0800 O.2   202  HIS202     -0.2718
     46  CB        12.4280    1.5730   -4.9840 C.3   202  HIS202      0.0759
     47  CG        13.1470    0.3330   -5.4680 C.ar  202  HIS202      0.0818
     48  ND1       12.8640   -0.2900   -6.6790 N.ar  202  HIS202     -0.2268
     49  CD2       14.1130   -0.4170   -4.8800 C.ar  202  HIS202      0.1154
     50  CE1       13.6270   -1.3660   -6.8070 C.ar  202  HIS202      0.1986
     51  NE2       14.4010   -1.4620   -5.7340 N.ar  202  HIS202     -0.2212
     52  N         11.3460   -0.5760   -2.4170 N.am  203  GLY203     -0.1942
     53  CA        11.8460   -1.3400   -1.2620 C.3   203  GLY203      0.2014
     54  C         12.7690   -2.4100   -1.7830 C.2   203  GLY203      0.2639
     55  O         12.6290   -2.8640   -2.9330 O.2   203  GLY203     -0.2714
     56  N         13.7020   -2.8410   -0.9440 N.am  204  SER204     -0.1949
     57  CA        14.6760   -3.8810   -1.3260 C.3   204  SER204      0.1924
     58  C         15.2240   -4.4410   -0.0230 C.2   204  SER204      0.2314
     59  O         14.9270   -3.9020    1.0510 O.2   204  SER204     -0.2863
     60  CB        15.8250   -3.2810   -2.1580 C.3   204  SER204      0.2116
     61  OG        16.4810   -4.3090   -2.8910 O.3   204  SER204     -0.2180
     62  N         20.9450   -5.0650   -0.1100 N.3   208  ASN208     -0.1240
     63  CA        21.0820   -4.4070   -1.4260 C.3   208  ASN208      0.1653
     64  C         21.5500   -2.9670   -1.3070 C.2   208  ASN208      0.2266
     65  O         22.0310   -2.4060   -2.2800 O.2   208  ASN208     -0.2867
     66  CB        19.7870   -4.4470   -2.2450 C.3   208  ASN208      0.1155
     67  CG        19.3430   -5.8650   -2.6020 C.2   208  ASN208      0.2627
     68  OD1       18.8530   -6.5930   -1.7470 O.2   208  ASN208     -0.2716
     69  ND2       19.4870   -6.2500   -3.8810 N.am  208  ASN208     -0.0877
     70  N         19.9340    2.8720   -8.3700 N.3   217  LEU217     -0.1231
     71  CA        19.1140    1.8250   -8.9540 C.3   217  LEU217      0.1693
     72  C         19.6030    1.5510  -10.3810 C.2   217  LEU217      0.2592
     73  O         19.8950    2.4590  -11.1600 O.2   217  LEU217     -0.2718
     74  CB        17.6130    2.2130   -8.9090 C.3   217  LEU217      0.0284
     75  CG        16.9680    2.2340   -7.5100 C.3   217  LEU217      0.0019
     76  CD1       15.5160    2.7700   -7.4640 C.3   217  LEU217      0.0001
     77  CD2       17.0360    0.8520   -6.8470 C.3   217  LEU217      0.0001
     78  N         19.7030    0.2820  -10.7110 N.am  218  ARG218     -0.1966
     79  CA        20.2980   -0.1500  -11.9610 C.3   218  ARG218      0.1729
     80  C         19.3340   -1.0880  -12.7020 C.2   218  ARG218      0.2616
     81  O         18.4450   -1.6820  -12.0910 O.2   218  ARG218     -0.2715
     82  CB        21.6050   -0.9080  -11.6350 C.3   218  ARG218      0.0348
     83  CG        22.7740    0.0110  -11.2800 C.3   218  ARG218      0.0492
     84  CD        24.0720   -0.7690  -11.0290 C.3   218  ARG218      0.2205
     85  NE        24.0070   -1.5630   -9.7830 N.pl3 218  ARG218     -0.0865
     86  CZ        24.8840   -2.5140   -9.4390 C.cat 218  ARG218      0.5346
     87  NH1       25.9010   -2.8060  -10.2350 N.pl3 218  ARG218      0.1354
     88  NH2       24.7520   -3.1770   -8.2860 N.pl3 218  ARG218      0.1354
     89  N         19.5240   -1.2310  -14.0060 N.am  219  ILE219     -0.1963
     90  CA        18.7780   -2.2010  -14.8150 C.3   219  ILE219      0.1727
     91  C         19.6210   -3.4860  -14.9730 C.2   219  ILE219      0.2616
     92  O         20.8400   -3.4120  -15.1100 O.2   219  ILE219     -0.2715
     93  CB        18.4590   -1.5670  -16.1700 C.3   219  ILE219      0.0290
     94  CG1       17.3550   -0.5150  -15.9690 C.3   219  ILE219      0.0022
     95  CG2       18.0620   -2.6160  -17.2150 C.3   219  ILE219      0.0023
     96  CD1       17.2490    0.5020  -17.0950 C.3   219  ILE219      0.0001
     97  N         18.9820   -4.6590  -14.9620 N.am  220  ALA220     -0.1964
     98  CA        19.7000   -5.9400  -15.0750 C.3   220  ALA220      0.1713
     99  C         20.4990   -5.9480  -16.3820 C.2   220  ALA220      0.2458
    100  O         20.0680   -5.3140  -17.3570 O.2   220  ALA220     -0.2730
    101  CB        18.7140   -7.1030  -15.0380 C.3   220  ALA220      0.0333
    102  N         21.6600   -6.6550  -16.4180 N.am  221  PRO221     -0.2727
    103  CA        22.5680   -6.5180  -17.5810 C.3   221  PRO221      0.1402
    104  C         22.0620   -7.1920  -18.8500 C.2   221  PRO221      0.2269
    105  O         21.0470   -7.9030  -18.8160 O.2   221  PRO221     -0.2865
    106  CB        23.8620   -7.2120  -17.1080 C.3   221  PRO221      0.0296
    107  CG        23.3860   -8.2330  -16.1150 C.3   221  PRO221      0.0237
    108  CD        22.1560   -7.6540  -15.4420 C.3   221  PRO221      0.0939
    109  N         11.1590  -10.8580  -15.9780 N.3   229  TYR229     -0.1241
    110  CA        10.5310   -9.7000  -15.2780 C.3   229  TYR229      0.1605
    111  C          9.2060   -9.3330  -15.9390 C.2   229  TYR229      0.2264
    112  O          9.0880   -9.3260  -17.1740 O.2   229  TYR229     -0.2867
    113  CB        11.4980   -8.4690  -15.2110 C.3   229  TYR229      0.0534
    114  CG        12.9650   -8.8750  -14.9460 C.ar  229  TYR229     -0.0201
    115  CD1       13.8020   -9.2760  -15.9940 C.ar  229  TYR229     -0.0009
    116  CD2       13.4870   -8.9050  -13.6410 C.ar  229  TYR229     -0.0009
    117  CE1       15.1060   -9.6950  -15.7800 C.ar  229  TYR229      0.0417
    118  CE2       14.8080   -9.3090  -13.4040 C.ar  229  TYR229      0.0417
    119  CZ        15.6150   -9.7170  -14.4750 C.ar  229  TYR229      0.1957
    120  OH        16.9340  -10.1120  -14.2560 O.3   229  TYR229     -0.2866
    121  N         11.7960   -0.6420  -11.2180 N.3   236  TYR236     -0.1227
    122  CA        10.3830   -0.7680  -10.8550 C.3   236  TYR236      0.1736
    123  C         10.0420    0.0760   -9.6140 C.2   236  TYR236      0.2595
    124  O         10.8510    0.1930   -8.7060 O.2   236  TYR236     -0.2718
    125  CB        10.0680   -2.2510  -10.5440 C.3   236  TYR236      0.0548
    126  CG         9.9480   -3.1530  -11.7640 C.ar  236  TYR236     -0.0200
    127  CD1       11.0490   -3.4040  -12.5900 C.ar  236  TYR236     -0.0009
    128  CD2        8.7170   -3.7730  -12.0930 C.ar  236  TYR236     -0.0009
    129  CE1       10.9420   -4.2190  -13.7090 C.ar  236  TYR236      0.0417
    130  CE2        8.6070   -4.6080  -13.2160 C.ar  236  TYR236      0.0417
    131  CZ         9.7250   -4.8360  -14.0120 C.ar  236  TYR236      0.1957
    132  OH         9.6280   -5.6570  -15.1480 O.3   236  TYR236     -0.2866
    133  N          8.8320    0.6370   -9.5600 N.am  237  PHE237     -0.1962
    134  CA         8.4300    1.5010   -8.4610 C.3   237  PHE237      0.1771
    135  C          6.9730    1.2430   -8.1300 C.2   237  PHE237      0.2619
    136  O          6.2470    0.7390   -8.9830 O.2   237  PHE237     -0.2715
    137  CB         8.5900    2.9650   -8.8720 C.3   237  PHE237      0.0574
    138  CG        10.0110    3.3690   -9.0820 C.ar  237  PHE237     -0.0200
    139  CD1       10.5700    3.3660  -10.3580 C.ar  237  PHE237     -0.0042
    140  CD2       10.7930    3.7520   -7.9930 C.ar  237  PHE237     -0.0042
    141  CE1       11.9110    3.7190  -10.5540 C.ar  237  PHE237     -0.0003
    142  CE2       12.1350    4.1050   -8.1700 C.ar  237  PHE237     -0.0003
    143  CZ        12.6890    4.1040   -9.4500 C.ar  237  PHE237     -0.0000
    144  N          6.5410    1.5970   -6.9120 N.am  238  ALA238     -0.1977
    145  CA         5.1110    1.5200   -6.5580 C.3   238  ALA238      0.1597
    146  C          4.6140    2.8340   -5.9700 C.2   238  ALA238      0.2287
    147  O          5.4250    3.6300   -5.5090 O.2   238  ALA238     -0.2864
    148  CB         4.8660    0.3900   -5.5470 C.3   238  ALA238      0.0319
    149  N          3.1940   -2.2980   -0.9810 N.3   243  LYS243     -0.1231
    150  CA         3.6190   -3.0690   -2.1470 C.3   243  LYS243      0.1693
    151  C          5.1510   -3.0750   -2.1850 C.2   243  LYS243      0.2592
    152  O          5.7840   -4.1490   -2.3660 O.2   243  LYS243     -0.2718
    153  CB         3.0180   -2.5670   -3.4780 C.3   243  LYS243      0.0285
    154  CG         3.4580   -3.3960   -4.7070 C.3   243  LYS243      0.0035
    155  CD         2.6160   -3.1050   -5.9580 C.3   243  LYS243      0.0206
    156  CE         3.1900   -3.6700   -7.2500 C.3   243  LYS243      0.1093
    157  NZ         2.1890   -3.4620   -8.3720 N.3   243  LYS243     -0.1314
    158  N          5.7480   -1.8980   -1.9900 N.am  244  SER244     -0.1952
    159  CA         7.2030   -1.8330   -1.9970 C.3   244  SER244      0.1924
    160  C          7.7640   -2.4310   -0.7200 C.2   244  SER244      0.2314
    161  O          8.8180   -3.0690   -0.7670 O.2   244  SER244     -0.2863
    162  CB         7.7050   -0.3970   -2.1770 C.3   244  SER244      0.2116
    163  OG         7.5820    0.0550   -3.5410 O.3   244  SER244     -0.2180
    164  N          8.9600   -5.9980   -0.5450 N.3   247  TYR247     -0.1241
    165  CA        10.2320   -6.4060   -1.1990 C.3   247  TYR247      0.1605
    166  C         11.4230   -6.3130   -0.2260 C.2   247  TYR247      0.2264
    167  O         12.5270   -6.7080   -0.5530 O.2   247  TYR247     -0.2867
    168  CB        10.4990   -5.6070   -2.4930 C.3   247  TYR247      0.0534
    169  CG         9.6880   -6.0890   -3.6870 C.ar  247  TYR247     -0.0201
    170  CD1       10.2440   -6.9650   -4.6440 C.ar  247  TYR247     -0.0009
    171  CD2        8.3540   -5.6800   -3.8610 C.ar  247  TYR247     -0.0009
    172  CE1        9.4900   -7.4230   -5.7280 C.ar  247  TYR247      0.0417
    173  CE2        7.6020   -6.1230   -4.9380 C.ar  247  TYR247      0.0417
    174  CZ         8.1700   -6.9960   -5.8630 C.ar  247  TYR247      0.1957
    175  OH         7.4040   -7.4190   -6.9190 O.3   247  TYR247     -0.2866
    176  N          2.0680   -0.1670  -10.8460 N.3   328  GLU328     -0.1245
    177  CA         3.4890   -0.4160  -10.9060 C.3   328  GLU328      0.1567
    178  C          4.0190    0.5940  -11.9340 C.2   328  GLU328      0.2260
    179  O          3.3300    0.9030  -12.9040 O.2   328  GLU328     -0.2867
    180  CB         3.6700   -1.8380  -11.4400 C.3   328  GLU328      0.0388
    181  CG         4.8120   -2.6000  -10.8330 C.3   328  GLU328      0.1160
    182  CD         4.6050   -4.0970  -10.9970 C.2   328  GLU328      0.3649
    183  OE1        5.2960   -4.7070  -11.8410 O.co2 328  GLU328     -0.2457
    184  OE2        3.7230   -4.6590  -10.3040 O.co2 328  GLU328     -0.2457
@<TRIPOS>BOND
     1   104   105    2
     2   104   103    1
     3   103   106    1
     4   103   102    1
     5   100    99    2
     6    95    93    1
     7   112   111    2
     8   106   107    1
     9    96    94    1
    10   102    99   am
    11   102   108    1
    12    99    98    1
    13    93    94    1
    14    93    90    1
    15   107   108    1
    16   115   117   ar
    17   115   114   ar
    18   109   110    1
    19   111   110    1
    20   117   119   ar
    21   110   113    1
    22   113   114    1
    23   132   131    1
    24    92    91    2
    25    98   101    1
    26    98    97    1
    27    91    97   am
    28    91    90    1
    29   114   116   ar
    30    90    89    1
    31   119   120    1
    32   119   118   ar
    33   131   129   ar
    34   131   130   ar
    35    89    80   am
    36   129   127   ar
    37   116   118   ar
    38   130   128   ar
    39   179   178    2
    40    80    81    2
    41    80    79    1
    42   127   126   ar
    43   128   126   ar
    44    16    15   ar
    45    79    82    1
    46    79    78    1
    47   178   177    1
    48    32    31    1
    49   183   182   ar
    50   126   125    1
    51    82    83    1
    52   180   177    1
    53   180   181    1
    54    83    84    1
    55   121   122    1
    56    17    15   ar
    57    73    72    2
    58    15    14    1
    59    33    31    1
    60    84    85    1
    61   182   181    1
    62   182   184   ar
    63   177   176    1
    64   122   125    1
    65   122   123    1
    66    31    30    1
    67    78    72   am
    68   141   139   ar
    69   141   143   ar
    70     1     2    1
    71    72    71    1
    72   139   138   ar
    73    87    86    1
    74    10    11    1
    75    85    86    2
    76    14    11    1
    77   123   133   am
    78   123   124    2
    79   133   134    1
    80    11    12    1
    81    30    27    1
    82   143   142   ar
    83    86    88    1
    84     2     5    1
    85     2     3    1
    86   138   137    1
    87   138   140   ar
    88   136   135    2
    89    71    74    1
    90    71    70    1
    91    74    75    1
    92   137   134    1
    93     5     6    1
    94   134   135    1
    95   157   156    1
    96     3     4    2
    97    27    26    1
    98    27    28    1
    99   142   140   ar
   100    12    13    2
   101    12    18   am
   102   135   144   am
   103    75    76    1
   104    75    77    1
   105     6     7    1
   106     8     7   ar
   107   156   155    1
   108    18    19    1
   109    28    29    2
   110    28    34   am
   111   175   174    1
   112   144   145    1
   113     7     9   ar
   114    50    48   ar
   115    50    51   ar
   116    48    47   ar
   117   145   146    1
   118   145   148    1
   119    34    35    1
   120    40    39   ar
   121   146   147    2
   122   155   154    1
   123   174   172   ar
   124   174   173   ar
   125    19    20    1
   126    19    22    1
   127    51    49   ar
   128   172   170   ar
   129    20    21    2
   130    41    39   ar
   131    39    38    1
   132    47    46    1
   133    47    49   ar
   134    35    38    1
   135    35    36    1
   136    46    43    1
   137   173   171   ar
   138    22    23    1
   139   154   153    1
   140   170   169   ar
   141    23    25   am
   142    23    24    2
   143    36    37    2
   144    43    42    1
   145    43    44    1
   146    69    67   am
   147   171   169   ar
   148   169   168    1
   149   163   162    1
   150   153   150    1
   151    55    54    2
   152    61    60    1
   153    44    52   am
   154    44    45    2
   155    67    66    1
   156    67    68    2
   157   168   165    1
   158    52    53    1
   159   152   151    2
   160    65    64    2
   161    66    63    1
   162   151   150    1
   163   151   158   am
   164   162   159    1
   165    60    57    1
   166   150   149    1
   167   159   158    1
   168   159   160    1
   169    54    53    1
   170    54    56   am
   171    63    64    1
   172    63    62    1
   173    57    56    1
   174    57    58    1
   175   165   164    1
   176   165   166    1
   177   161   160    2
   178   167   166    2
   179    58    59    2
