@<TRIPOS>MOLECULE
tmp/4l6tE01.pdb
 120 118 0 0 0
SMALL
GASTEIGER

@<TRIPOS>ATOM
      1  N         41.1990   55.4380  -16.2850 N.3    12  GLU12      -0.1231
      2  CA        40.8420   56.5720  -17.1280 C.3    12  GLU12       0.1699
      3  C         40.7130   57.8700  -16.3310 C.2    12  GLU12       0.2592
      4  O         40.3730   58.9070  -16.8900 O.2    12  GLU12      -0.2718
      5  CB        39.5460   56.2960  -17.8970 C.3    12  GLU12       0.0402
      6  CG        39.6950   55.2530  -18.9930 C.3    12  GLU12       0.1161
      7  CD        38.4390   55.0970  -19.8420 C.2    12  GLU12       0.3649
      8  OE1       37.3360   55.0070  -19.2760 O.co2  12  GLU12      -0.2457
      9  OE2       38.5600   55.0930  -21.0840 O.co2  12  GLU12      -0.2457
     10  N         40.9800   57.8060  -15.0270 N.am   13  TYR13      -0.1962
     11  CA        40.8350   58.9800  -14.1580 C.3    13  TYR13       0.1771
     12  C         42.0890   59.1970  -13.3260 C.2    13  TYR13       0.2619
     13  O         42.7770   58.2470  -12.9550 O.2    13  TYR13      -0.2715
     14  CB        39.5940   58.8460  -13.2500 C.3    13  TYR13       0.0574
     15  CG        38.3340   58.8260  -14.0770 C.ar   13  TYR13      -0.0198
     16  CD1       37.8590   57.6410  -14.6270 C.ar   13  TYR13      -0.0009
     17  CD2       37.6540   60.0010  -14.3660 C.ar   13  TYR13      -0.0009
     18  CE1       36.7290   57.6260  -15.4190 C.ar   13  TYR13       0.0417
     19  CE2       36.5280   59.9910  -15.1630 C.ar   13  TYR13       0.0417
     20  CZ        36.0770   58.8040  -15.6940 C.ar   13  TYR13       0.1957
     21  OH        34.9470   58.7970  -16.4880 O.3    13  TYR13      -0.2866
     22  N         42.3860   60.4590  -13.0460 N.am   14  GLN14      -0.1963
     23  CA        43.4790   60.7880  -12.1550 C.3    14  GLN14       0.1733
     24  C         43.0000   60.6510  -10.7210 C.2    14  GLN14       0.2616
     25  O         41.7980   60.7540  -10.4540 O.2    14  GLN14      -0.2715
     26  CB        43.9740   62.2100  -12.4100 C.3    14  GLN14       0.0408
     27  CG        44.4630   62.4270  -13.8230 C.3    14  GLN14       0.0908
     28  CD        44.8810   63.8600  -14.0850 C.2    14  GLN14       0.2608
     29  OE1       45.1040   64.6370  -13.1560 O.2    14  GLN14      -0.2717
     30  NE2       44.9790   64.2200  -15.3570 N.am   14  GLN14      -0.0878
     31  N         43.9430   60.4130   -9.8170 N.am   15  ASN15      -0.1972
     32  CA        43.6890   60.4040   -8.3740 C.3    15  ASN15       0.1688
     33  C         42.7160   59.3210   -7.9030 C.2    15  ASN15       0.2292
     34  O         41.9610   59.5360   -6.9520 O.2    15  ASN15      -0.2864
     35  CB        43.1590   61.7680   -7.9160 C.3    15  ASN15       0.1181
     36  CG        43.9680   62.9220   -8.4680 C.2    15  ASN15       0.2629
     37  OD1       43.4080   63.8840   -9.0200 O.2    15  ASN15      -0.2716
     38  ND2       45.2840   62.8190   -8.3720 N.am   15  ASN15      -0.0877
     39  N         29.6640   61.2350   -2.7360 N.3    52  GLU52      -0.1245
     40  CA        29.7120   62.6620   -2.4150 C.3    52  GLU52       0.1567
     41  C         28.3820   63.3830   -2.5130 C.2    52  GLU52       0.2260
     42  O         27.5010   62.9990   -3.2840 O.2    52  GLU52      -0.2867
     43  CB        30.7050   63.3800   -3.3280 C.3    52  GLU52       0.0388
     44  CG        32.1590   63.0720   -3.0180 C.3    52  GLU52       0.1160
     45  CD        33.0970   63.7780   -3.9770 C.2    52  GLU52       0.3649
     46  OE1       33.5780   63.1230   -4.9330 O.co2  52  GLU52      -0.2457
     47  OE2       33.3450   64.9890   -3.7690 O.co2  52  GLU52      -0.2457
     48  N         29.5350   71.1680   -7.6300 N.3    56  SER56      -0.1202
     49  CA        30.0310   71.7380   -8.8750 C.3    56  SER56       0.2020
     50  C         31.0660   70.8380   -9.5580 C.2    56  SER56       0.2619
     51  O         31.3370   71.0040  -10.7450 O.2    56  SER56      -0.2717
     52  CB        30.6260   73.1270   -8.6230 C.3    56  SER56       0.2103
     53  OG        31.6550   73.0780   -7.6520 O.3    56  SER56      -0.2182
     54  N         31.6220   69.8740   -8.8240 N.am   57  GLN57      -0.1965
     55  CA        32.5770   68.9360   -9.4170 C.3    57  GLN57       0.1733
     56  C         31.8570   67.8840  -10.2670 C.2    57  GLN57       0.2616
     57  O         32.4970   67.0650  -10.9220 O.2    57  GLN57      -0.2715
     58  CB        33.4270   68.2350   -8.3450 C.3    57  GLN57       0.0408
     59  CG        32.6870   67.2490   -7.4540 C.3    57  GLN57       0.0908
     60  CD        32.0520   67.9060   -6.2290 C.2    57  GLN57       0.2608
     61  OE1       31.5480   69.0300   -6.2990 O.2    57  GLN57      -0.2717
     62  NE2       32.0740   67.1990   -5.1000 N.am   57  GLN57      -0.0878
     63  N         30.5280   67.8880  -10.2370 N.am   58  HIS58      -0.1959
     64  CA        29.7650   66.8780  -10.9690 C.3    58  HIS58       0.1787
     65  C         29.1420   67.4200  -12.2440 C.2    58  HIS58       0.2620
     66  O         28.5680   68.5120  -12.2470 O.2    58  HIS58      -0.2715
     67  CB        28.6660   66.2840  -10.0840 C.3    58  HIS58       0.0785
     68  CG        29.1960   65.5260   -8.9060 C.ar   58  HIS58       0.0821
     69  ND1       28.9880   65.9280   -7.6050 N.ar   58  HIS58      -0.2267
     70  CD2       29.9450   64.3990   -8.8400 C.ar   58  HIS58       0.1154
     71  CE1       29.5730   65.0710   -6.7850 C.ar   58  HIS58       0.1986
     72  NE2       30.1680   64.1380   -7.5090 N.ar   58  HIS58      -0.2212
     73  N         29.2580   66.6550  -13.3260 N.am   59  LEU59      -0.1977
     74  CA        28.5190   66.9530  -14.5540 C.3    59  LEU59       0.1596
     75  C         27.0330   66.7050  -14.3380 C.2    59  LEU59       0.2287
     76  O         26.6500   65.9390  -13.4570 O.2    59  LEU59      -0.2864
     77  CB        29.0180   66.0940  -15.7150 C.3    59  LEU59       0.0297
     78  CG        30.5080   66.1430  -16.0400 C.3    59  LEU59       0.0022
     79  CD1       30.8460   65.1200  -17.1150 C.3    59  LEU59       0.0001
     80  CD2       30.9320   67.5390  -16.5050 C.3    59  LEU59       0.0001
     81  N         26.1590   63.1800  -14.2940 N.3    62  GLN62      -0.1245
     82  CA        26.4730   62.4080  -13.0960 C.3    62  GLN62       0.1566
     83  C         25.4140   62.4650  -11.9950 C.2    62  GLN62       0.2260
     84  O         25.5150   61.7220  -11.0050 O.2    62  GLN62      -0.2867
     85  CB        27.8090   62.8760  -12.5060 C.3    62  GLN62       0.0367
     86  CG        29.0060   62.4430  -13.3050 C.3    62  GLN62       0.0905
     87  CD        30.2710   62.9890  -12.7030 C.2    62  GLN62       0.2608
     88  OE1       30.5870   64.1660  -12.8840 O.2    62  GLN62      -0.2717
     89  NE2       30.9850   62.1570  -11.9430 N.am   62  GLN62      -0.0878
     90  N         38.1710   57.9700   -5.6350 N.3    89  TRP89      -0.1241
     91  CA        39.0230   59.1480   -5.6510 C.3    89  TRP89       0.1605
     92  C         39.6570   59.3200   -4.2760 C.2    89  TRP89       0.2264
     93  O         38.9720   59.2490   -3.2600 O.2    89  TRP89      -0.2867
     94  CB        38.2260   60.4050   -6.0260 C.3    89  TRP89       0.0550
     95  CG        37.8430   60.4800   -7.4730 C.ar   89  TRP89       0.0003
     96  CD1       38.6710   60.7740   -8.5310 C.ar   89  TRP89       0.0946
     97  CD2       36.5360   60.3050   -8.0260 C.ar   89  TRP89       0.0152
     98  NE1       37.9490   60.7620   -9.7070 N.ar   89  TRP89      -0.2442
     99  CE2       36.6400   60.4850   -9.4190 C.ar   89  TRP89       0.0810
    100  CE3       35.2820   60.0110   -7.4710 C.ar   89  TRP89       0.0012
    101  CZ2       35.5330   60.3730  -10.2740 C.ar   89  TRP89       0.0191
    102  CZ3       34.1920   59.9030   -8.3210 C.ar   89  TRP89       0.0001
    103  CH2       34.3250   60.0860   -9.7050 C.ar   89  TRP89       0.0015
    104  N         41.3190   62.0240   -3.2120 N.3    91  ASN91      -0.1225
    105  CA        41.4410   63.4180   -2.7950 C.3    91  ASN91       0.1785
    106  C         40.1840   63.9290   -2.0860 C.2    91  ASN91       0.2597
    107  O         39.9480   65.1290   -1.9900 O.2    91  ASN91      -0.2718
    108  CB        41.7820   64.3110   -4.0020 C.3    91  ASN91       0.1169
    109  CG        40.6450   64.4060   -5.0210 C.2    91  ASN91       0.2627
    110  OD1       39.7910   63.5200   -5.1200 O.2    91  ASN91      -0.2716
    111  ND2       40.6500   65.4890   -5.8070 N.am   91  ASN91      -0.0877
    112  N         39.4090   62.9940   -1.5540 N.am   92  LYS92      -0.1979
    113  CA        38.2610   63.3100   -0.7130 C.3    92  LYS92       0.1599
    114  C         38.3700   62.4460    0.5370 C.2    92  LYS92       0.2287
    115  O         39.0070   61.3920    0.5060 O.2    92  LYS92      -0.2864
    116  CB        36.9350   63.0500   -1.4550 C.3    92  LYS92       0.0344
    117  CG        36.7360   63.9510   -2.6940 C.3    92  LYS92       0.0297
    118  CD        36.7670   65.4020   -2.2700 C.2    92  LYS92      -0.0067
    119  CE        36.4510   66.4140   -3.3830 C.2    92  LYS92       0.1012
    120  NZ        35.9720   65.8700   -4.6870 N.pl3  92  LYS92      -0.1270
@<TRIPOS>BOND
     1     9     7   ar
     2     7     8   ar
     3     7     6    1
     4     6     5    1
     5     5     2    1
     6     2     3    1
     7     2     1    1
     8    79    78    1
     9     4     3    2
    10    80    78    1
    11    21    20    1
    12     3    10   am
    13    78    77    1
    14    77    74    1
    15    20    18   ar
    16    20    19   ar
    17    18    16   ar
    18    30    28   am
    19    19    17   ar
    20    10    11    1
    21    16    15   ar
    22    74    75    1
    23    74    73    1
    24    17    15   ar
    25    75    76    2
    26    81    82    1
    27    11    12    1
    28    11    14    1
    29    28    27    1
    30    28    29    2
    31    15    14    1
    32    27    26    1
    33    12    22   am
    34    12    13    2
    35    73    65   am
    36    86    87    1
    37    86    85    1
    38    82    85    1
    39    82    83    1
    40    22    23    1
    41    88    87    2
    42    87    89   am
    43    26    23    1
    44    66    65    2
    45    65    64    1
    46    23    24    1
    47    83    84    2
    48    64    63    1
    49    64    67    1
    50    57    56    2
    51    51    50    2
    52    24    25    2
    53    24    31   am
    54   101   103   ar
    55   101    99   ar
    56    56    63   am
    57    56    55    1
    58    67    68    1
    59    31    32    1
    60    98    99   ar
    61    98    96   ar
    62   103   102   ar
    63    50    49    1
    64    50    54   am
    65    99    97   ar
    66    55    54    1
    67    55    58    1
    68    37    36    2
    69    68    70   ar
    70    68    69   ar
    71    49    52    1
    72    49    48    1
    73    70    72   ar
    74    52    53    1
    75    96    95   ar
    76    36    38   am
    77    36    35    1
    78    32    35    1
    79    32    33    1
    80    58    59    1
    81   102   100   ar
    82    97    95   ar
    83    97   100   ar
    84    33    34    2
    85    69    71   ar
    86    72    71   ar
    87    95    94    1
    88    59    60    1
    89    61    60    2
    90    60    62   am
    91    94    91    1
    92   111   109   am
    93    91    90    1
    94    91    92    1
    95   110   109    2
    96   109   108    1
    97    46    45   ar
    98   120   119    1
    99    92    93    2
   100   108   105    1
   101    45    47   ar
   102    45    44    1
   103   119   118    2
   104    43    44    1
   105    43    40    1
   106    42    41    2
   107   104   105    1
   108   105   106    1
   109    39    40    1
   110   117   118    1
   111   117   116    1
   112    41    40    1
   113   106   107    2
   114   106   112   am
   115   112   113    1
   116   116   113    1
   117   113   114    1
   118   115   114    2
