@<TRIPOS>MOLECULE
tmp/4l6vB19.pdb
 195 196 0 0 0
SMALL
GASTEIGER

@<TRIPOS>ATOM
      1  N        -68.6470  -34.9330  233.5550 N.3   223  PHE223     -0.1241
      2  CA       -68.2220  -33.5500  233.7310 C.3   223  PHE223      0.1605
      3  C        -69.3890  -32.6590  234.1370 C.2   223  PHE223      0.2264
      4  O        -69.3030  -31.9140  235.1130 O.2   223  PHE223     -0.2867
      5  CB       -67.5840  -33.0170  232.4470 C.3   223  PHE223      0.0534
      6  CG       -67.1300  -31.5900  232.5450 C.ar  223  PHE223     -0.0203
      7  CD1      -66.1610  -31.2190  233.4610 C.ar  223  PHE223     -0.0042
      8  CD2      -67.6700  -30.6200  231.7180 C.ar  223  PHE223     -0.0042
      9  CE1      -65.7430  -29.9060  233.5540 C.ar  223  PHE223     -0.0003
     10  CE2      -67.2550  -29.3050  231.8050 C.ar  223  PHE223     -0.0003
     11  CZ       -66.2900  -28.9480  232.7240 C.ar  223  PHE223     -0.0000
     12  N        -66.1860  -35.7770  238.8860 N.3   228  TRP228     -0.1227
     13  CA       -64.9150  -35.5120  238.2220 C.3   228  TRP228      0.1737
     14  C        -63.8470  -36.5130  238.6540 C.2   228  TRP228      0.2596
     15  O        -62.7790  -36.5910  238.0480 O.2   228  TRP228     -0.2718
     16  CB       -64.4590  -34.0840  238.5210 C.3   228  TRP228      0.0564
     17  CG       -65.3830  -33.0410  237.9650 C.ar  228  TRP228      0.0003
     18  CD1      -66.5190  -33.2540  237.2370 C.ar  228  TRP228      0.0946
     19  CD2      -65.2540  -31.6210  238.0980 C.ar  228  TRP228      0.0152
     20  NE1      -67.1020  -32.0550  236.9070 N.ar  228  TRP228     -0.2442
     21  CE2      -66.3450  -31.0370  237.4240 C.ar  228  TRP228      0.0810
     22  CE3      -64.3210  -30.7870  238.7210 C.ar  228  TRP228      0.0012
     23  CZ2      -66.5280  -29.6580  237.3550 C.ar  228  TRP228      0.0191
     24  CZ3      -64.5040  -29.4190  238.6510 C.ar  228  TRP228      0.0001
     25  CH2      -65.5990  -28.8680  237.9730 C.ar  228  TRP228      0.0015
     26  N        -64.1430  -37.2790  239.7000 N.am  229  GLY229     -0.1957
     27  CA       -63.2530  -38.3340  240.1470 C.3   229  GLY229      0.1869
     28  C        -63.1370  -39.4360  239.1110 C.2   229  GLY229      0.2309
     29  O        -62.1350  -40.1510  239.0610 O.2   229  GLY229     -0.2863
     30  N        -62.6880  -39.1980  236.0260 N.3   231  TYR231     -0.1227
     31  CA       -61.6560  -38.9020  235.0430 C.3   231  TYR231      0.1736
     32  C        -60.2670  -39.2270  235.5890 C.2   231  TYR231      0.2595
     33  O        -59.3220  -39.4090  234.8230 O.2   231  TYR231     -0.2718
     34  CB       -61.7440  -37.4360  234.6150 C.3   231  TYR231      0.0548
     35  CG       -62.9690  -37.1330  233.7820 C.ar  231  TYR231     -0.0200
     36  CD1      -63.1200  -37.6860  232.5180 C.ar  231  TYR231     -0.0009
     37  CD2      -63.9800  -36.3100  234.2610 C.ar  231  TYR231     -0.0009
     38  CE1      -64.2340  -37.4220  231.7490 C.ar  231  TYR231      0.0417
     39  CE2      -65.1020  -36.0400  233.4970 C.ar  231  TYR231      0.0417
     40  CZ       -65.2230  -36.5990  232.2420 C.ar  231  TYR231      0.1957
     41  OH       -66.3340  -36.3380  231.4750 O.3   231  TYR231     -0.2866
     42  N        -60.1530  -39.2960  236.9120 N.am  232  ALA232     -0.1980
     43  CA       -58.9090  -39.6970  237.5650 C.3   232  ALA232      0.1597
     44  C        -59.0080  -41.1360  238.0710 C.2   232  ALA232      0.2287
     45  O        -58.3640  -41.5010  239.0550 O.2   232  ALA232     -0.2864
     46  CB       -58.5840  -38.7530  238.7090 C.3   232  ALA232      0.0319
     47  N        -55.2250  -44.5340  236.8660 N.3   235  PRO235     -0.2102
     48  CA       -54.0240  -43.9320  236.2770 C.3   235  PRO235      0.1504
     49  C        -53.0530  -44.9780  235.7450 C.2   235  PRO235      0.2576
     50  O        -53.2120  -46.1670  236.0220 O.2   235  PRO235     -0.2718
     51  CB       -53.3980  -43.1590  237.4470 C.3   235  PRO235      0.0282
     52  CG       -54.4200  -43.1740  238.5410 C.3   235  PRO235      0.0208
     53  CD       -55.2320  -44.3910  238.3290 C.3   235  PRO235      0.0893
     54  N        -52.0590  -44.5290  234.9880 N.am  236  ASP236     -0.1960
     55  CA       -50.9940  -45.4080  234.5270 C.3   236  ASP236      0.1840
     56  C        -50.1990  -45.9250  235.7220 C.2   236  ASP236      0.2623
     57  O        -49.8480  -45.1620  236.6230 O.2   236  ASP236     -0.2715
     58  CB       -50.0740  -44.6780  233.5470 C.3   236  ASP236      0.1450
     59  CG       -50.8390  -43.9670  232.4470 C.2   236  ASP236      0.3671
     60  OD1      -51.4150  -44.6570  231.5800 O.co2 236  ASP236     -0.2456
     61  OD2      -50.8630  -42.7180  232.4480 O.co2 236  ASP236     -0.2456
     62  N        -49.9200  -47.2240  235.7250 N.am  237  THR237     -0.1937
     63  CA       -49.2010  -47.8560  236.8250 C.3   237  THR237      0.2028
     64  C        -47.7460  -47.4000  236.8670 C.2   237  THR237      0.2642
     65  O        -47.2940  -46.6500  236.0020 O.2   237  THR237     -0.2714
     66  CB       -49.2440  -49.3910  236.7070 C.3   237  THR237      0.1808
     67  OG1      -48.6040  -49.7980  235.4910 O.3   237  THR237     -0.2208
     68  CG2      -50.6820  -49.8860  236.7110 C.3   237  THR237      0.0379
     69  N        -47.0160  -47.8570  237.8800 N.am  238  ALA238     -0.1977
     70  CA       -45.6030  -47.5230  238.0090 C.3   238  ALA238      0.1597
     71  C        -44.7970  -48.2160  236.9170 C.2   238  ALA238      0.2287
     72  O        -43.7260  -47.7470  236.5290 O.2   238  ALA238     -0.2864
     73  CB       -45.0870  -47.9210  239.3830 C.3   238  ALA238      0.0319
     74  N        -57.0460  -36.9730  233.8160 N.3   253  LEU253     -0.1231
     75  CA       -56.7630  -35.8010  234.6460 C.3   253  LEU253      0.1693
     76  C        -56.3880  -36.1950  236.0720 C.2   253  LEU253      0.2593
     77  O        -57.2250  -36.1400  236.9700 O.2   253  LEU253     -0.2718
     78  CB       -57.9770  -34.8700  234.6800 C.3   253  LEU253      0.0284
     79  CG       -58.4790  -34.3230  233.3440 C.3   253  LEU253      0.0019
     80  CD1      -59.7270  -33.4970  233.5730 C.3   253  LEU253      0.0001
     81  CD2      -57.4180  -33.4980  232.6380 C.3   253  LEU253      0.0001
     82  N        -55.1350  -36.5860  236.2820 N.am  254  THR254     -0.1939
     83  CA       -54.6830  -37.0030  237.6070 C.3   254  THR254      0.2028
     84  C        -53.8800  -35.9080  238.3020 C.2   254  THR254      0.2642
     85  O        -53.6790  -34.8230  237.7570 O.2   254  THR254     -0.2714
     86  CB       -53.8150  -38.2750  237.5350 C.3   254  THR254      0.1808
     87  OG1      -52.5640  -37.9750  236.9020 O.3   254  THR254     -0.2208
     88  CG2      -54.5310  -39.3740  236.7600 C.3   254  THR254      0.0379
     89  N        -53.4330  -36.2100  239.5170 N.am  255  PHE255     -0.1959
     90  CA       -52.5160  -35.3470  240.2500 C.3   255  PHE255      0.1771
     91  C        -51.5490  -36.2340  241.0300 C.2   255  PHE255      0.2619
     92  O        -51.3630  -36.0720  242.2360 O.2   255  PHE255     -0.2715
     93  CB       -53.2810  -34.4010  241.1820 C.3   255  PHE255      0.0574
     94  CG       -52.5260  -33.1470  241.5350 C.ar  255  PHE255     -0.0200
     95  CD1      -51.1400  -33.1090  241.4920 C.ar  255  PHE255     -0.0042
     96  CD2      -53.2080  -32.0000  241.9060 C.ar  255  PHE255     -0.0042
     97  CE1      -50.4540  -31.9560  241.8140 C.ar  255  PHE255     -0.0003
     98  CE2      -52.5250  -30.8440  242.2290 C.ar  255  PHE255     -0.0003
     99  CZ       -51.1470  -30.8230  242.1820 C.ar  255  PHE255     -0.0000
    100  N        -50.9410  -37.1760  240.3160 N.am  256  LEU256     -0.1977
    101  CA       -50.0590  -38.1750  240.9100 C.3   256  LEU256      0.1596
    102  C        -48.8620  -37.5400  241.6100 C.2   256  LEU256      0.2287
    103  O        -48.4540  -37.9750  242.6870 O.2   256  LEU256     -0.2864
    104  CB       -49.5640  -39.1390  239.8300 C.3   256  LEU256      0.0297
    105  CG       -50.6420  -39.8430  239.0020 C.3   256  LEU256      0.0022
    106  CD1      -50.0100  -40.6570  237.8870 C.3   256  LEU256      0.0001
    107  CD2      -51.5200  -40.7180  239.8720 C.3   256  LEU256      0.0001
    108  N        -45.8790  -36.4510  234.7480 N.3   267  TRP267     -0.1241
    109  CA       -46.9880  -37.2210  234.2010 C.3   267  TRP267      0.1605
    110  C        -47.8630  -36.3490  233.3110 C.2   267  TRP267      0.2264
    111  O        -48.2900  -35.2690  233.7160 O.2   267  TRP267     -0.2867
    112  CB       -47.8340  -37.8290  235.3240 C.3   267  TRP267      0.0550
    113  CG       -47.1030  -38.8190  236.1830 C.ar  267  TRP267      0.0003
    114  CD1      -46.3320  -38.5500  237.2770 C.ar  267  TRP267      0.0946
    115  CD2      -47.0850  -40.2430  236.0200 C.ar  267  TRP267      0.0152
    116  NE1      -45.8330  -39.7190  237.8030 N.ar  267  TRP267     -0.2442
    117  CE2      -46.2810  -40.7710  237.0490 C.ar  267  TRP267      0.0810
    118  CE3      -47.6700  -41.1200  235.1030 C.ar  267  TRP267      0.0012
    119  CZ2      -46.0470  -42.1380  237.1860 C.ar  267  TRP267      0.0191
    120  CZ3      -47.4370  -42.4760  235.2400 C.ar  267  TRP267      0.0001
    121  CH2      -46.6330  -42.9720  236.2730 C.ar  267  TRP267      0.0015
    122  N        -54.1480  -31.8160  233.4560 N.3   273  HIS273     -0.1241
    123  CA       -54.9410  -31.2950  234.5620 C.3   273  HIS273      0.1621
    124  C        -54.4590  -29.9030  234.9560 C.2   273  HIS273      0.2264
    125  O        -55.2530  -29.0480  235.3480 O.2   273  HIS273     -0.2867
    126  CB       -54.8690  -32.2370  235.7650 C.3   273  HIS273      0.0745
    127  CG       -55.8030  -31.8700  236.8760 C.ar  273  HIS273      0.0817
    128  ND1      -55.7000  -32.4050  238.1420 N.ar  273  HIS273     -0.2268
    129  CD2      -56.8650  -31.0310  236.9080 C.ar  273  HIS273      0.1154
    130  CE1      -56.6520  -31.9040  238.9080 C.ar  273  HIS273      0.1986
    131  NE2      -57.3730  -31.0680  238.1830 N.ar  273  HIS273     -0.2212
    132  N        -55.7900  -27.1870  232.4680 N.3   276  LEU276     -0.1231
    133  CA       -57.2350  -27.0270  232.5630 C.3   276  LEU276      0.1693
    134  C        -57.5860  -26.1350  233.7490 C.2   276  LEU276      0.2592
    135  O        -58.4270  -25.2450  233.6380 O.2   276  LEU276     -0.2718
    136  CB       -57.9180  -28.3910  232.6910 C.3   276  LEU276      0.0284
    137  CG       -59.4470  -28.4090  232.7820 C.3   276  LEU276      0.0019
    138  CD1      -60.0810  -27.6680  231.6120 C.3   276  LEU276      0.0001
    139  CD2      -59.9490  -29.8440  232.8340 C.3   276  LEU276      0.0001
    140  N        -56.9280  -26.3750  234.8790 N.am  277  ALA277     -0.1966
    141  CA       -57.1560  -25.5860  236.0840 C.3   277  ALA277      0.1728
    142  C        -56.6740  -24.1570  235.8760 C.2   277  ALA277      0.2616
    143  O        -57.3150  -23.2030  236.3160 O.2   277  ALA277     -0.2715
    144  CB       -56.4490  -26.2160  237.2730 C.3   277  ALA277      0.0334
    145  N        -55.5360  -24.0240  235.2040 N.am  278  ILE278     -0.1977
    146  CA       -54.9520  -22.7210  234.9100 C.3   278  ILE278      0.1596
    147  C        -55.8610  -21.8980  234.0140 C.2   278  ILE278      0.2287
    148  O        -56.0700  -20.7120  234.2530 O.2   278  ILE278     -0.2864
    149  CB       -53.5630  -22.8770  234.2360 C.3   278  ILE278      0.0276
    150  CG1      -52.4460  -22.6880  235.2580 C.3   278  ILE278      0.0022
    151  CG2      -53.3640  -21.8870  233.0810 C.3   278  ILE278      0.0022
    152  CD1      -52.5640  -23.5600  236.4730 C.3   278  ILE278      0.0001
    153  N        -58.9810  -21.8710  233.6820 N.3   280  VAL280     -0.1231
    154  CA       -60.1330  -21.3590  234.4150 C.3   280  VAL280      0.1692
    155  C        -59.7840  -20.0800  235.1660 C.2   280  VAL280      0.2591
    156  O        -60.3990  -19.0350  234.9520 O.2   280  VAL280     -0.2718
    157  CB       -60.6630  -22.4100  235.4120 C.3   280  VAL280      0.0266
    158  CG1      -61.7270  -21.8130  236.3340 C.3   280  VAL280      0.0020
    159  CG2      -61.2130  -23.6120  234.6610 C.3   280  VAL280      0.0020
    160  N        -58.7910  -20.1720  236.0450 N.am  281  ILE281     -0.1980
    161  CA       -58.3810  -19.0380  236.8650 C.3   281  ILE281      0.1595
    162  C        -57.8360  -17.8980  236.0090 C.2   281  ILE281      0.2287
    163  O        -57.7460  -16.7590  236.4650 O.2   281  ILE281     -0.2864
    164  CB       -57.3220  -19.4490  237.9050 C.3   281  ILE281      0.0276
    165  CG1      -56.1170  -20.0910  237.2080 C.3   281  ILE281      0.0022
    166  CG2      -57.9350  -20.4090  238.9160 C.3   281  ILE281      0.0022
    167  CD1      -54.9850  -20.4650  238.1310 C.3   281  ILE281      0.0001
    168  N        -53.8030  -34.8110  252.8680 N.3   485  GLY485     -0.1210
    169  CA       -54.6170  -35.6690  252.0270 C.3   485  GLY485      0.1956
    170  C        -53.8680  -36.2370  250.8380 C.2   485  GLY485      0.2612
    171  O        -54.4510  -36.4290  249.7720 O.2   485  GLY485     -0.2717
    172  N        -52.5800  -36.5150  251.0290 N.am  486  ALA486     -0.1965
    173  CA       -51.7430  -37.1260  249.9980 C.3   486  ALA486      0.1728
    174  C        -51.9390  -36.4580  248.6380 C.2   486  ALA486      0.2616
    175  O        -51.1940  -35.5500  248.2730 O.2   486  ALA486     -0.2715
    176  CB       -52.0320  -38.6210  249.9020 C.3   486  ALA486      0.0334
    177  N        -52.9550  -36.9100  247.9050 N.am  487  ALA487     -0.1963
    178  CA       -53.2670  -36.3860  246.5790 C.3   487  ALA487      0.1728
    179  C        -52.0600  -36.4700  245.6430 C.2   487  ALA487      0.2616
    180  O        -52.0610  -37.2450  244.6860 O.2   487  ALA487     -0.2715
    181  CB       -53.7650  -34.9480  246.6830 C.3   487  ALA487      0.0334
    182  N        -51.0410  -35.6650  245.9310 N.am  488  TRP488     -0.1974
    183  CA       -49.8260  -35.5930  245.1210 C.3   488  TRP488      0.1640
    184  C        -48.5680  -35.9740  245.9000 C.2   488  TRP488      0.2290
    185  O        -47.4840  -36.0790  245.3260 O.2   488  TRP488     -0.2864
    186  CB       -49.6600  -34.1740  244.5780 C.3   488  TRP488      0.0576
    187  CG       -49.5760  -33.1450  245.6730 C.ar  488  TRP488      0.0006
    188  CD1      -48.5480  -32.9640  246.5540 C.ar  488  TRP488      0.0946
    189  CD2      -50.5650  -32.1640  246.0050 C.ar  488  TRP488      0.0152
    190  NE1      -48.8370  -31.9330  247.4140 N.ar  488  TRP488     -0.2442
    191  CE2      -50.0680  -31.4230  247.0970 C.ar  488  TRP488      0.0810
    192  CE3      -51.8210  -31.8380  245.4850 C.ar  488  TRP488      0.0012
    193  CZ2      -50.7820  -30.3780  247.6760 C.ar  488  TRP488      0.0191
    194  CZ3      -52.5270  -30.7990  246.0620 C.ar  488  TRP488      0.0001
    195  CH2      -52.0070  -30.0820  247.1450 C.ar  488  TRP488      0.0015
@<TRIPOS>BOND
     1    41    40    1
     2    60    59   ar
     3   138   137    1
     4     8    10   ar
     5     8     6   ar
     6    38    40   ar
     7    38    36   ar
     8    10    11   ar
     9    40    39   ar
    10    59    61   ar
    11    59    58    1
    12     5     6    1
    13     5     2    1
    14   132   133    1
    15    36    35   ar
    16     6     7   ar
    17   133   136    1
    18   133   134    1
    19    81    79    1
    20   136   137    1
    21    11     9   ar
    22   137   139    1
    23   151   149    1
    24   110   111    2
    25   110   109    1
    26    79    80    1
    27    79    78    1
    28   122   123    1
    29     7     9   ar
    30    39    37   ar
    31    58    55    1
    32     1     2    1
    33   135   134    2
    34   153   154    1
    35     2     3    1
    36   134   140   am
    37    35    37   ar
    38    35    34    1
    39    74    75    1
    40   147   148    2
    41   147   146    1
    42     3     4    2
    43   109   108    1
    44   109   112    1
    45   149   146    1
    46   149   150    1
    47   154   155    1
    48   154   157    1
    49    55    54    1
    50    55    56    1
    51   123   124    1
    52   123   126    1
    53    34    31    1
    54    75    78    1
    55    75    76    1
    56   159   157    1
    57    33    32    2
    58   140   141    1
    59   146   145    1
    60   156   155    2
    61   124   125    2
    62    54    49   am
    63    31    32    1
    64    31    30    1
    65   118   120   ar
    66   118   115   ar
    67   155   160   am
    68   145   142   am
    69   120   121   ar
    70   150   152    1
    71   112   113    1
    72   157   158    1
    73    67    66    1
    74    32    42   am
    75    56    62   am
    76    56    57    2
    77    62    63    1
    78    49    50    2
    79    49    48    1
    80   126   127    1
    81   142   141    1
    82   142   143    2
    83    65    64    2
    84   162   163    2
    85   162   161    1
    86   115   113   ar
    87   115   117   ar
    88   160   161    1
    89    76    82   am
    90    76    77    2
    91   141   144    1
    92   113   114   ar
    93   121   119   ar
    94    48    47    1
    95    48    51    1
    96    82    83    1
    97    72    71    2
    98    66    68    1
    99    66    63    1
   100    88    86    1
   101    63    64    1
   102   161   164    1
   103    47    53    1
   104    64    69   am
   105   127   129   ar
   106   127   128   ar
   107    87    86    1
   108    20    18   ar
   109    20    21   ar
   110   129   131   ar
   111    42    43    1
   112    71    70    1
   113   117   119   ar
   114   117   116   ar
   115   165   164    1
   116   165   167    1
   117    18    17   ar
   118   114   116   ar
   119    23    21   ar
   120    23    25   ar
   121    21    19   ar
   122    51    52    1
   123    86    83    1
   124    43    44    1
   125    43    46    1
   126    83    84    1
   127    85    84    2
   128    69    70    1
   129   106   105    1
   130   164   166    1
   131    17    19   ar
   132    17    16    1
   133    25    24   ar
   134    70    73    1
   135    15    14    2
   136    44    45    2
   137    19    22   ar
   138   128   130   ar
   139   131   130   ar
   140    13    16    1
   141    13    14    1
   142    13    12    1
   143    84    89   am
   144    53    52    1
   145    24    22   ar
   146    14    26   am
   147   105   104    1
   148   105   107    1
   149    29    28    2
   150    28    27    1
   151    89    90    1
   152    26    27    1
   153   104   101    1
   154    90    91    1
   155    90    93    1
   156   100   101    1
   157   100    91   am
   158   101   102    1
   159    91    92    2
   160    93    94    1
   161    95    94   ar
   162    95    97   ar
   163    94    96   ar
   164   102   103    2
   165    97    99   ar
   166    96    98   ar
   167    99    98   ar
   168   186   183    1
   169   186   187    1
   170   180   179    2
   171   183   184    1
   172   183   182    1
   173   185   184    2
   174   192   189   ar
   175   192   194   ar
   176   179   182   am
   177   179   178    1
   178   187   189   ar
   179   187   188   ar
   180   189   191   ar
   181   194   195   ar
   182   188   190   ar
   183   178   181    1
   184   178   177    1
   185   191   190   ar
   186   191   193   ar
   187   195   193   ar
   188   177   174   am
   189   175   174    2
   190   174   173    1
   191   171   170    2
   192   176   173    1
   193   173   172    1
   194   170   172   am
   195   170   169    1
   196   169   168    1
