@<TRIPOS>MOLECULE
tmp/4l6vB14.pdb
 140 138 0 0 0
SMALL
GASTEIGER

@<TRIPOS>ATOM
      1  N        -39.5540  -19.8040  211.4690 N.3    58  TRP58      -0.1241
      2  CA       -38.3790  -20.4350  212.0620 C.3    58  TRP58       0.1605
      3  C        -38.6760  -21.8420  212.5590 C.2    58  TRP58       0.2264
      4  O        -37.9630  -22.7860  212.2240 O.2    58  TRP58      -0.2867
      5  CB       -37.8290  -19.5830  213.2050 C.3    58  TRP58       0.0550
      6  CG       -36.9060  -20.3380  214.1070 C.ar   58  TRP58       0.0003
      7  CD1      -35.6840  -20.8500  213.7860 C.ar   58  TRP58       0.0946
      8  CD2      -37.1250  -20.6560  215.4860 C.ar   58  TRP58       0.0152
      9  NE1      -35.1310  -21.4750  214.8770 N.ar   58  TRP58      -0.2442
     10  CE2      -35.9950  -21.3660  215.9350 C.ar   58  TRP58       0.0810
     11  CE3      -38.1660  -20.4080  216.3860 C.ar   58  TRP58       0.0012
     12  CZ2      -35.8800  -21.8350  217.2410 C.ar   58  TRP58       0.0191
     13  CZ3      -38.0490  -20.8720  217.6820 C.ar   58  TRP58       0.0001
     14  CH2      -36.9140  -21.5770  218.0980 C.ar   58  TRP58       0.0015
     15  N        -38.8710  -24.2950  210.0710 N.3    61  GLY61      -0.1210
     16  CA       -37.5660  -24.7330  209.6120 C.3    61  GLY61       0.1956
     17  C        -37.0410  -25.9470  210.3550 C.2    61  GLY61       0.2612
     18  O        -36.4820  -26.8580  209.7460 O.2    61  GLY61      -0.2717
     19  N        -37.2160  -25.9610  211.6740 N.am   62  THR62      -0.1952
     20  CA       -36.7600  -27.0820  212.4910 C.3    62  THR62       0.1897
     21  C        -37.5380  -28.3530  212.1820 C.2    62  THR62       0.2313
     22  O        -36.9490  -29.4050  211.9380 O.2    62  THR62      -0.2863
     23  CB       -36.8890  -26.7820  213.9970 C.3    62  THR62       0.1794
     24  OG1      -38.2000  -26.2750  214.2770 O.3    62  THR62      -0.2208
     25  CG2      -35.8510  -25.7640  214.4330 C.3    62  THR62       0.0378
     26  N        -36.7430  -29.7040  208.6230 N.3    65  HIS65      -0.1226
     27  CA       -35.4340  -30.3280  208.4710 C.3    65  HIS65       0.1752
     28  C        -35.3630  -31.6710  209.1940 C.2    65  HIS65       0.2595
     29  O        -34.7290  -32.6080  208.7090 O.2    65  HIS65      -0.2718
     30  CB       -34.3290  -29.4020  208.9820 C.3    65  HIS65       0.0759
     31  CG       -33.7570  -28.5120  207.9230 C.ar   65  HIS65       0.0818
     32  ND1      -32.6480  -28.8560  207.1810 N.ar   65  HIS65      -0.2268
     33  CD2      -34.1400  -27.2910  207.4820 C.ar   65  HIS65       0.1154
     34  CE1      -32.3750  -27.8880  206.3260 C.ar   65  HIS65       0.1986
     35  NE2      -33.2630  -26.9250  206.4900 N.ar   65  HIS65      -0.2212
     36  N        -36.0140  -31.7630  210.3490 N.am   66  VAL66      -0.1980
     37  CA       -36.0420  -33.0110  211.1040 C.3    66  VAL66       0.1595
     38  C        -36.8010  -34.0760  210.3230 C.2    66  VAL66       0.2287
     39  O        -36.3800  -35.2290  210.2620 O.2    66  VAL66      -0.2864
     40  CB       -36.6830  -32.8190  212.4990 C.3    66  VAL66       0.0276
     41  CG1      -37.0430  -34.1640  213.1370 C.3    66  VAL66       0.0022
     42  CG2      -35.7420  -32.0390  213.4080 C.3    66  VAL66       0.0022
     43  N        -30.0690  -32.9860  213.7230 N.3    86  ALA86      -0.1231
     44  CA       -30.5790  -31.6350  213.5190 C.3    86  ALA86       0.1694
     45  C        -30.9370  -31.4060  212.0560 C.2    86  ALA86       0.2592
     46  O        -32.0970  -31.1730  211.7190 O.2    86  ALA86      -0.2718
     47  CB       -29.5570  -30.6110  213.9830 C.3    86  ALA86       0.0304
     48  N        -29.9330  -31.4790  211.1890 N.am   87  HIS87      -0.1976
     49  CA       -30.1380  -31.2840  209.7600 C.3    87  HIS87       0.1656
     50  C        -28.9340  -31.8000  208.9800 C.2    87  HIS87       0.2291
     51  O        -27.9230  -32.1840  209.5680 O.2    87  HIS87      -0.2864
     52  CB       -30.3880  -29.8060  209.4520 C.3    87  HIS87       0.0771
     53  CG       -29.2460  -28.9110  209.8210 C.ar   87  HIS87       0.0820
     54  ND1      -28.7470  -27.9500  208.9690 N.ar   87  HIS87      -0.2267
     55  CD2      -28.4980  -28.8400  210.9470 C.ar   87  HIS87       0.1154
     56  CE1      -27.7470  -27.3190  209.5570 C.ar   87  HIS87       0.1986
     57  NE2      -27.5710  -27.8450  210.7550 N.ar   87  HIS87      -0.2212
     58  N        -25.4570  -33.0120  211.6980 N.3   112  ASN112     -0.1225
     59  CA       -25.2430  -32.4270  213.0220 C.3   112  ASN112      0.1785
     60  C        -26.2110  -32.9760  214.0570 C.2   112  ASN112      0.2597
     61  O        -27.4100  -33.0800  213.8050 O.2   112  ASN112     -0.2718
     62  CB       -25.3830  -30.9030  212.9750 C.3   112  ASN112      0.1169
     63  CG       -24.2150  -30.2240  212.2940 C.2   112  ASN112      0.2627
     64  OD1      -24.4030  -29.3650  211.4350 O.2   112  ASN112     -0.2716
     65  ND2      -22.9990  -30.5900  212.6910 N.am  112  ASN112     -0.0877
     66  N        -25.6820  -33.3230  215.2240 N.am  113  ILE113     -0.1966
     67  CA       -26.5050  -33.8410  216.3070 C.3   113  ILE113      0.1727
     68  C        -27.2620  -32.7170  216.9930 C.2   113  ILE113      0.2616
     69  O        -26.6550  -31.8080  217.5440 O.2   113  ILE113     -0.2715
     70  CB       -25.6560  -34.5760  217.3570 C.3   113  ILE113      0.0290
     71  CG1      -24.7290  -35.5920  216.6830 C.3   113  ILE113      0.0022
     72  CG2      -26.5520  -35.2470  218.3900 C.3   113  ILE113      0.0023
     73  CD1      -25.4360  -36.5560  215.7500 C.3   113  ILE113      0.0001
     74  N        -28.5870  -32.8130  216.9980 N.am  114  ALA114     -0.1963
     75  CA       -29.4300  -31.7590  217.5490 C.3   114  ALA114      0.1728
     76  C        -29.3370  -31.7450  219.0690 C.2   114  ALA114      0.2616
     77  O        -29.3230  -32.7970  219.7090 O.2   114  ALA114     -0.2715
     78  CB       -30.8690  -31.9480  217.1120 C.3   114  ALA114      0.0334
     79  N        -29.2670  -30.5440  219.6360 N.am  115  TYR115     -0.1960
     80  CA       -29.1470  -30.3720  221.0790 C.3   115  TYR115      0.1771
     81  C        -30.2500  -29.4610  221.6200 C.2   115  TYR115      0.2620
     82  O        -30.2360  -29.0820  222.7910 O.2   115  TYR115     -0.2715
     83  CB       -27.7660  -29.8080  221.4220 C.3   115  TYR115      0.0574
     84  CG       -26.6340  -30.7580  221.0950 C.ar  115  TYR115     -0.0198
     85  CD1      -26.6460  -32.0700  221.5520 C.ar  115  TYR115     -0.0009
     86  CD2      -25.5620  -30.3490  220.3110 C.ar  115  TYR115     -0.0009
     87  CE1      -25.6180  -32.9430  221.2500 C.ar  115  TYR115      0.0417
     88  CE2      -24.5300  -31.2160  220.0030 C.ar  115  TYR115      0.0417
     89  CZ       -24.5630  -32.5120  220.4750 C.ar  115  TYR115      0.1957
     90  OH       -23.5380  -33.3790  220.1710 O.3   115  TYR115     -0.2866
     91  N        -31.2020  -29.1140  220.7570 N.am  116  SER116     -0.1950
     92  CA       -32.3460  -28.2950  221.1470 C.3   116  SER116      0.1924
     93  C        -33.3870  -29.0890  221.9370 C.2   116  SER116      0.2314
     94  O        -34.2960  -28.5120  222.5340 O.2   116  SER116     -0.2863
     95  CB       -32.9970  -27.6830  219.9050 C.3   116  SER116      0.2116
     96  OG       -33.3180  -28.6840  218.9560 O.3   116  SER116     -0.2180
     97  N        -35.7300  -30.8650  220.8710 N.3   118  VAL118     -0.1245
     98  CA       -37.0480  -30.7950  220.2490 C.3   118  VAL118      0.1561
     99  C        -37.5680  -32.1890  219.9080 C.2   118  VAL118      0.2260
    100  O        -38.7790  -32.4050  219.8400 O.2   118  VAL118     -0.2867
    101  CB       -37.0270  -29.9340  218.9710 C.3   118  VAL118      0.0252
    102  CG1      -36.6090  -28.5090  219.3040 C.3   118  VAL118      0.0019
    103  CG2      -36.0990  -30.5370  217.9210 C.3   118  VAL118      0.0019
    104  N        -15.6910  -29.2340  214.8770 N.3   640  VAL640     -0.1231
    105  CA       -16.3510  -27.9340  214.8520 C.3   640  VAL640      0.1692
    106  C        -16.0570  -27.1700  216.1240 C.2   640  VAL640      0.2592
    107  O        -15.4460  -26.1050  216.0920 O.2   640  VAL640     -0.2718
    108  CB       -17.8860  -28.0600  214.6930 C.3   640  VAL640      0.0266
    109  CG1      -18.6090  -26.8440  215.2860 C.3   640  VAL640      0.0020
    110  CG2      -18.2670  -28.2010  213.2390 C.3   640  VAL640      0.0020
    111  N        -16.4990  -27.7300  217.2440 N.am  641  TRP641     -0.1976
    112  CA       -16.4910  -27.0140  218.5100 C.3   641  TRP641      0.1640
    113  C        -15.0750  -26.5930  218.8770 C.2   641  TRP641      0.2290
    114  O        -14.8800  -25.5580  219.5020 O.2   641  TRP641     -0.2864
    115  CB       -17.1100  -27.8690  219.6190 C.3   641  TRP641      0.0576
    116  CG       -18.4260  -28.4870  219.2310 C.ar  641  TRP641      0.0006
    117  CD1      -18.6400  -29.7720  218.8280 C.ar  641  TRP641      0.0946
    118  CD2      -19.7040  -27.8370  219.1900 C.ar  641  TRP641      0.0152
    119  NE1      -19.9710  -29.9660  218.5490 N.ar  641  TRP641     -0.2442
    120  CE2      -20.6450  -28.7940  218.7620 C.ar  641  TRP641      0.0810
    121  CE3      -20.1440  -26.5410  219.4770 C.ar  641  TRP641      0.0012
    122  CZ2      -21.9990  -28.4950  218.6140 C.ar  641  TRP641      0.0191
    123  CZ3      -21.4900  -26.2470  219.3320 C.ar  641  TRP641      0.0001
    124  CH2      -22.4010  -27.2210  218.9060 C.ar  641  TRP641      0.0015
    125  N        -14.7220  -23.5620  216.6110 N.3   644  MET644     -0.1245
    126  CA       -15.5950  -22.5220  217.1430 C.3   644  MET644      0.1570
    127  C        -15.0680  -21.9820  218.4670 C.2   644  MET644      0.2261
    128  O        -15.2950  -20.8230  218.8100 O.2   644  MET644     -0.2867
    129  CB       -17.0110  -23.0700  217.3270 C.3   644  MET644      0.0387
    130  CG       -18.0080  -22.0730  217.9010 C.3   644  MET644      0.0595
    131  SD       -19.6460  -22.7910  218.1170 S.3   644  MET644     -0.1393
    132  CE       -20.2020  -22.8690  216.4180 C.3   644  MET644      0.0692
    133  N        -20.0510  -17.6870  222.2630 N.3   714  LEU714     -0.1245
    134  CA       -19.5660  -18.6620  221.2960 C.3   714  LEU714      0.1561
    135  C        -18.4350  -19.4770  221.9050 C.2   714  LEU714      0.2260
    136  O        -18.3110  -20.6710  221.6350 O.2   714  LEU714     -0.2867
    137  CB       -19.1090  -17.9870  219.9980 C.3   714  LEU714      0.0270
    138  CG       -20.2210  -17.6250  219.0030 C.3   714  LEU714      0.0019
    139  CD1      -19.6400  -16.9400  217.7780 C.3   714  LEU714      0.0001
    140  CD2      -21.0370  -18.8440  218.5780 C.3   714  LEU714      0.0001
@<TRIPOS>BOND
     1    34    35   ar
     2    34    32   ar
     3    35    33   ar
     4    32    31   ar
     5    33    31   ar
     6    31    30    1
     7    27    26    1
     8    27    30    1
     9    27    28    1
    10    29    28    2
    11    54    56   ar
    12    54    53   ar
    13    50    51    2
    14    50    49    1
    15    28    36   am
    16    52    49    1
    17    52    53    1
    18    56    57   ar
    19    16    15    1
    20    16    17    1
    21    18    17    2
    22    49    48    1
    23    53    55   ar
    24    39    38    2
    25    38    37    1
    26    36    37    1
    27    17    19   am
    28    57    55   ar
    29    37    40    1
    30    48    45   am
    31    64    63    2
    32     1     2    1
    33    19    20    1
    34    58    59    1
    35    46    45    2
    36    22    21    2
    37    45    44    1
    38     2     3    1
    39     2     5    1
    40    21    20    1
    41     4     3    2
    42    63    65   am
    43    63    62    1
    44    20    23    1
    45    40    41    1
    46    40    42    1
    47    62    59    1
    48    59    60    1
    49     5     6    1
    50   110   108    1
    51    44    43    1
    52    44    47    1
    53     7     6   ar
    54     7     9   ar
    55    61    60    2
    56    23    24    1
    57    23    25    1
    58    60    66   am
    59     6     8   ar
    60   108   105    1
    61   108   109    1
    62   105   104    1
    63   105   106    1
    64     9    10   ar
    65    66    67    1
    66     8    10   ar
    67     8    11   ar
    68    73    71    1
    69    10    12   ar
    70   107   106    2
    71   106   111   am
    72    67    68    1
    73    67    70    1
    74    11    13   ar
    75   132   131    1
    76   125   126    1
    77    71    70    1
    78    68    74   am
    79    68    69    2
    80    74    75    1
    81    78    75    1
    82   126   129    1
    83   126   127    1
    84    12    14   ar
    85   111   112    1
    86   129   130    1
    87    70    72    1
    88    75    76    1
    89    13    14   ar
    90   139   138    1
    91   130   131    1
    92   103   101    1
    93   127   128    2
    94   112   113    1
    95   112   115    1
    96   119   120   ar
    97   119   117   ar
    98   140   138    1
    99   122   120   ar
   100   122   124   ar
   101   120   118   ar
   102   117   116   ar
   103   113   114    2
   104   124   123   ar
   105    96    95    1
   106   101   102    1
   107   101    98    1
   108   138   137    1
   109    76    79   am
   110    76    77    2
   111   118   116   ar
   112   118   121   ar
   113   116   115    1
   114   123   121   ar
   115    79    80    1
   116   100    99    2
   117    95    92    1
   118    99    98    1
   119   137   134    1
   120    88    86   ar
   121    88    89   ar
   122    90    89    1
   123    98    97    1
   124    86    84   ar
   125    89    87   ar
   126    91    92    1
   127    91    81   am
   128    80    83    1
   129    80    81    1
   130    84    83    1
   131    84    85   ar
   132    92    93    1
   133    87    85   ar
   134   134   135    1
   135   134   133    1
   136    81    82    2
   137   136   135    2
   138    93    94    2
