@<TRIPOS>MOLECULE
tmp/4l6vN02.pdb
 102 94 0 0 0
SMALL
GASTEIGER

@<TRIPOS>ATOM
      1  N        -55.8020  -90.4860  257.6090 N.3     8  LEU8       -0.1231
      2  CA       -55.5760  -91.4180  258.7020 C.3     8  LEU8        0.1693
      3  C        -56.7130  -91.2560  259.7090 C.2     8  LEU8        0.2592
      4  O        -57.1980  -92.2300  260.2840 O.2     8  LEU8       -0.2718
      5  CB       -54.2200  -91.1680  259.3640 C.3     8  LEU8        0.0284
      6  CG       -52.9850  -91.5460  258.5470 C.3     8  LEU8        0.0019
      7  CD1      -51.7530  -91.0960  259.2980 C.3     8  LEU8        0.0001
      8  CD2      -52.9000  -93.0300  258.3030 C.3     8  LEU8        0.0001
      9  N        -57.1310  -90.0070  259.9060 N.am    9  SER9       -0.1952
     10  CA       -58.2840  -89.6790  260.7420 C.3     9  SER9        0.1924
     11  C        -59.5770  -90.1580  260.0910 C.2     9  SER9        0.2314
     12  O        -60.6270  -90.2260  260.7300 O.2     9  SER9       -0.2863
     13  CB       -58.3520  -88.1720  260.9950 C.3     9  SER9        0.2116
     14  OG       -57.2910  -87.7650  261.7840 O.3     9  SER9       -0.2180
     15  N        -58.7130  -95.7470  260.3870 N.3    14  MET14      -0.1245
     16  CA       -58.9180  -96.1020  261.7820 C.3    14  MET14       0.1570
     17  C        -59.3620  -97.5540  261.8680 C.2    14  MET14       0.2261
     18  O        -58.9760  -98.2840  262.7810 O.2    14  MET14      -0.2867
     19  CB       -59.9560  -95.1820  262.4290 C.3    14  MET14       0.0387
     20  CG       -59.3980  -93.7550  262.3980 C.3    14  MET14       0.0595
     21  SD       -60.3060  -92.6880  263.4430 S.3    14  MET14      -0.1393
     22  CE       -60.2610  -93.3390  265.0670 C.3    14  MET14       0.0692
     23  N        -58.8280  -88.6420  274.5160 N.3    65  GLY65      -0.1210
     24  CA       -59.5570  -87.7890  273.5950 C.3    65  GLY65       0.1956
     25  C        -59.8740  -86.4540  274.2350 C.2    65  GLY65       0.2611
     26  O        -59.8680  -85.4140  273.5750 O.2    65  GLY65      -0.2717
     27  N        -60.1530  -86.4900  275.5340 N.am   66  ARG66      -0.1979
     28  CA       -60.4100  -85.2820  276.3050 C.3    66  ARG66       0.1597
     29  C        -59.1540  -84.4290  276.4360 C.2    66  ARG66       0.2287
     30  O        -59.2160  -83.2010  276.3730 O.2    66  ARG66      -0.2864
     31  CB       -60.9330  -85.6470  277.6950 C.3    66  ARG66       0.0334
     32  CG       -61.1870  -84.3740  278.5530 C.3    66  ARG66       0.0492
     33  CD       -61.9940  -84.8640  279.7780 C.3    66  ARG66       0.2205
     34  NE       -62.0670  -83.7510  280.7570 N.pl3  66  ARG66      -0.0865
     35  CZ       -61.1390  -83.3520  281.6310 C.cat  66  ARG66       0.5346
     36  NH1      -59.9960  -83.9680  281.7760 N.pl3  66  ARG66       0.1354
     37  NH2      -61.3850  -82.3100  282.4330 N.pl3  66  ARG66       0.1354
     38  N        -56.8340  -84.3910  274.2850 N.3    68  TYR68      -0.1227
     39  CA       -56.5380  -83.8960  272.9450 C.3    68  TYR68       0.1736
     40  C        -57.2830  -82.5950  272.6680 C.2    68  TYR68       0.2595
     41  O        -56.7410  -81.6760  272.0520 O.2    68  TYR68      -0.2718
     42  CB       -56.9070  -84.9440  271.8930 C.3    68  TYR68       0.0548
     43  CG       -57.0920  -84.5490  270.4450 C.ar   68  TYR68      -0.0200
     44  CD1      -56.0040  -84.1430  269.6600 C.ar   68  TYR68      -0.0009
     45  CD2      -58.3500  -84.5980  269.8470 C.ar   68  TYR68      -0.0009
     46  CE1      -56.1880  -83.7430  268.3390 C.ar   68  TYR68       0.0417
     47  CE2      -58.5600  -84.1940  268.5380 C.ar   68  TYR68       0.0417
     48  CZ       -57.4750  -83.7580  267.8000 C.ar   68  TYR68       0.1957
     49  OH       -57.6900  -83.3790  266.5140 O.3    68  TYR68      -0.2866
     50  N        -58.5280  -82.5230  273.1270 N.am   69  LEU69      -0.1980
     51  CA       -59.3400  -81.3250  272.9620 C.3    69  LEU69       0.1596
     52  C        -58.8980  -80.2300  273.9270 C.2    69  LEU69       0.2287
     53  O        -58.9710  -79.0430  273.6090 O.2    69  LEU69      -0.2864
     54  CB       -60.8200  -81.6470  273.1780 C.3    69  LEU69       0.0297
     55  CG       -61.4990  -82.4840  272.0940 C.3    69  LEU69       0.0022
     56  CD1      -62.9000  -82.8180  272.5490 C.3    69  LEU69       0.0001
     57  CD2      -61.5670  -81.7550  270.7770 C.3    69  LEU69       0.0001
     58  N        -55.2430  -78.9530  272.9300 N.3    72  ILE72      -0.1245
     59  CA       -55.3400  -78.1700  271.7040 C.3    72  ILE72       0.1561
     60  C        -55.9350  -76.7970  271.9920 C.2    72  ILE72       0.2260
     61  O        -55.6470  -75.8260  271.2930 O.2    72  ILE72      -0.2867
     62  CB       -56.1970  -78.8840  270.6430 C.3    72  ILE72       0.0252
     63  CG1      -55.3520  -79.9300  269.8800 C.3    72  ILE72       0.0019
     64  CG2      -56.7680  -77.8350  269.6830 C.3    72  ILE72       0.0019
     65  CD1      -56.1510  -80.8050  268.9000 C.3    72  ILE72       0.0001
     66  N        -58.6410  -79.3280  264.9550 N.3    82  GLU82      -0.1231
     67  CA       -59.8710  -80.1120  264.9220 C.3    82  GLU82       0.1699
     68  C        -60.0730  -80.8280  263.5870 C.2    82  GLU82       0.2592
     69  O        -60.5570  -81.9600  263.5530 O.2    82  GLU82      -0.2718
     70  CB       -61.0720  -79.2110  265.2110 C.3    82  GLU82       0.0402
     71  CG       -62.4170  -79.9070  265.2050 C.3    82  GLU82       0.1161
     72  CD       -62.6950  -80.6930  266.4700 C.2    82  GLU82       0.3649
     73  OE1      -61.8180  -80.7480  267.3570 O.co2  82  GLU82      -0.2457
     74  OE2      -63.8030  -81.2590  266.5840 O.co2  82  GLU82      -0.2457
     75  N        -59.7000  -80.1700  262.4920 N.am   83  VAL83      -0.1980
     76  CA       -59.8920  -80.7360  261.1590 C.3    83  VAL83       0.1595
     77  C        -58.7600  -81.7010  260.8180 C.2    83  VAL83       0.2287
     78  O        -58.9650  -82.6900  260.1140 O.2    83  VAL83      -0.2864
     79  CB       -59.9820  -79.6300  260.0770 C.3    83  VAL83       0.0276
     80  CG1      -58.6220  -78.9700  259.8350 C.3    83  VAL83       0.0022
     81  CG2      -60.5410  -80.2020  258.7830 C.3    83  VAL83       0.0022
     82  N        -55.8740  -83.7480  262.9450 N.3    85  ILE85      -0.1245
     83  CA       -55.3990  -84.1360  264.2690 C.3    85  ILE85       0.1561
     84  C        -53.9060  -83.8760  264.4510 C.2    85  ILE85       0.2260
     85  O        -53.0760  -84.4480  263.7440 O.2    85  ILE85      -0.2867
     86  CB       -55.6730  -85.6270  264.5410 C.3    85  ILE85       0.0252
     87  CG1      -54.8310  -86.5490  263.6500 C.3    85  ILE85       0.0019
     88  CG2      -57.1520  -85.8760  264.4420 C.3    85  ILE85       0.0019
     89  CD1      -54.7330  -87.9660  264.1420 C.3    85  ILE85       0.0001
     90  N        -52.5120  -86.4900  269.7460 N.3    90  ALA90      -0.1245
     91  CA       -52.9570  -87.8750  269.6120 C.3    90  ALA90       0.1562
     92  C        -51.9280  -88.8680  270.1430 C.2    90  ALA90       0.2260
     93  O        -52.2850  -89.8790  270.7460 O.2    90  ALA90      -0.2867
     94  CB       -53.2720  -88.1840  268.1550 C.3    90  ALA90       0.0290
     95  N        -52.8020  -91.0560  273.5300 N.3    94  MET94      -0.1245
     96  CA       -52.9950  -92.4640  273.1960 C.3    94  MET94       0.1570
     97  C        -51.8370  -93.3370  273.6760 C.2    94  MET94       0.2261
     98  O        -52.0400  -94.4910  274.0550 O.2    94  MET94      -0.2867
     99  CB       -53.1710  -92.6300  271.6850 C.3    94  MET94       0.0387
    100  CG       -53.7640  -93.9890  271.3420 C.3    94  MET94       0.0595
    101  SD       -53.9370  -94.2900  269.5590 S.3    94  MET94      -0.1393
    102  CE       -54.6230  -92.7570  269.0010 C.3    94  MET94       0.0692
@<TRIPOS>BOND
     1     1     2    1
     2     8     6    1
     3     6     7    1
     4     6     5    1
     5     2     5    1
     6     2     3    1
     7    81    79    1
     8     3     9   am
     9     3     4    2
    10    80    79    1
    11     9    10    1
    12    79    76    1
    13    11    12    2
    14    11    10    1
    15    78    77    2
    16    15    16    1
    17    10    13    1
    18    77    76    1
    19    13    14    1
    20    76    75    1
    21    16    17    1
    22    16    19    1
    23    17    18    2
    24    20    19    1
    25    20    21    1
    26    75    68   am
    27    82    83    1
    28    21    22    1
    29    69    68    2
    30    68    67    1
    31    87    89    1
    32    87    86    1
    33    85    84    2
    34    83    84    1
    35    83    86    1
    36    88    86    1
    37    67    66    1
    38    67    70    1
    39    71    70    1
    40    71    72    1
    41    72    74   ar
    42    72    73   ar
    43    49    48    1
    44    48    46   ar
    45    48    47   ar
    46    94    91    1
    47    46    44   ar
    48    47    45   ar
    49    65    63    1
    50   102   101    1
    51   101   100    1
    52    91    90    1
    53    91    92    1
    54    44    43   ar
    55    64    62    1
    56    45    43   ar
    57    63    62    1
    58    92    93    2
    59    43    42    1
    60    62    59    1
    61    57    55    1
    62    61    60    2
    63   100    99    1
    64    99    96    1
    65    59    60    1
    66    59    58    1
    67    42    39    1
    68    41    40    2
    69    55    56    1
    70    55    54    1
    71    40    39    1
    72    40    50   am
    73    39    38    1
    74    51    50    1
    75    51    54    1
    76    51    52    1
    77    96    95    1
    78    96    97    1
    79    26    25    2
    80    24    25    1
    81    24    23    1
    82    53    52    2
    83    97    98    2
    84    25    27   am
    85    27    28    1
    86    28    29    1
    87    28    31    1
    88    30    29    2
    89    31    32    1
    90    32    33    1
    91    33    34    1
    92    34    35    2
    93    35    36    1
    94    35    37    1
