@<TRIPOS>MOLECULE
tmp/4l6vB46.pdb
 134 130 0 0 0
SMALL
GASTEIGER

@<TRIPOS>ATOM
      1  N        -23.6790    3.7410  208.8190 N.3    20  TRP20      -0.1241
      2  CA       -23.7330    3.1400  210.1470 C.3    20  TRP20       0.1605
      3  C        -24.9000    3.6970  210.9540 C.2    20  TRP20       0.2264
      4  O        -25.7710    2.9480  211.3990 O.2    20  TRP20      -0.2867
      5  CB       -22.4250    3.3800  210.8990 C.3    20  TRP20       0.0550
      6  CG       -21.2280    2.8160  210.2120 C.ar   20  TRP20       0.0003
      7  CD1      -20.2190    3.5160  209.6200 C.ar   20  TRP20       0.0946
      8  CD2      -20.9060    1.4300  210.0480 C.ar   20  TRP20       0.0152
      9  NE1      -19.2890    2.6530  209.0950 N.ar   20  TRP20      -0.2442
     10  CE2      -19.6870    1.3660  209.3450 C.ar   20  TRP20       0.0810
     11  CE3      -21.5290    0.2380  210.4260 C.ar   20  TRP20       0.0012
     12  CZ2      -19.0790    0.1550  209.0130 C.ar   20  TRP20       0.0191
     13  CZ3      -20.9240   -0.9610  210.0950 C.ar   20  TRP20       0.0001
     14  CH2      -19.7120   -0.9930  209.3950 C.ar   20  TRP20       0.0015
     15  N        -12.5440  -19.4450  217.4790 N.3   647  PHE647     -0.1241
     16  CA       -13.2870  -18.4000  216.7910 C.3   647  PHE647      0.1605
     17  C        -13.9020  -17.4510  217.8050 C.2   647  PHE647      0.2264
     18  O        -13.8340  -16.2320  217.6550 O.2   647  PHE647     -0.2867
     19  CB       -14.3710  -19.0310  215.9150 C.3   647  PHE647      0.0534
     20  CG       -15.1570  -18.0460  215.1020 C.ar  647  PHE647     -0.0203
     21  CD1      -14.7210  -17.6490  213.8490 C.ar  647  PHE647     -0.0042
     22  CD2      -16.3400  -17.5240  215.5910 C.ar  647  PHE647     -0.0042
     23  CE1      -15.4540  -16.7500  213.0990 C.ar  647  PHE647     -0.0003
     24  CE2      -17.0760  -16.6230  214.8500 C.ar  647  PHE647     -0.0003
     25  CZ       -16.6330  -16.2340  213.6030 C.ar  647  PHE647     -0.0000
     26  N        -11.3200  -15.3980  219.3510 N.3   650  LEU650     -0.1231
     27  CA       -10.8390  -14.3660  218.4390 C.3   650  LEU650      0.1693
     28  C        -11.7210  -13.1270  218.4800 C.2   650  LEU650      0.2591
     29  O        -11.2230  -12.0100  218.6290 O.2   650  LEU650     -0.2718
     30  CB       -10.7680  -14.9010  217.0050 C.3   650  LEU650      0.0284
     31  CG       -10.3510  -13.8910  215.9310 C.3   650  LEU650      0.0019
     32  CD1       -9.0630  -13.1710  216.3080 C.3   650  LEU650      0.0001
     33  CD2      -10.1910  -14.5850  214.5870 C.3   650  LEU650      0.0001
     34  N        -13.0270  -13.3250  218.3370 N.am  651  VAL651     -0.1980
     35  CA       -13.9780  -12.2210  218.3910 C.3   651  VAL651      0.1595
     36  C        -13.8770  -11.4890  219.7250 C.2   651  VAL651      0.2287
     37  O        -13.8230  -10.2620  219.7630 O.2   651  VAL651     -0.2864
     38  CB       -15.4230  -12.7110  218.1820 C.3   651  VAL651      0.0276
     39  CG1      -16.4000  -11.5510  218.2780 C.3   651  VAL651      0.0022
     40  CG2      -15.5550  -13.3670  216.8310 C.3   651  VAL651      0.0022
     41  N        -10.9100   -9.3800  219.6170 N.3   654  THR654     -0.1218
     42  CA       -11.1010   -8.3370  218.6120 C.3   654  THR654      0.1862
     43  C        -11.9830   -7.2520  219.2080 C.2   654  THR654      0.2287
     44  O        -11.9390   -6.0970  218.7880 O.2   654  THR654     -0.2866
     45  CB       -11.7220   -8.8870  217.3120 C.3   654  THR654      0.1770
     46  OG1      -10.9190   -9.9650  216.8150 O.3   654  THR654     -0.2211
     47  CG2      -11.7980   -7.7960  216.2480 C.3   654  THR654      0.0375
     48  N        -10.0080   -4.3310  221.0660 N.3   657  MET657     -0.1230
     49  CA        -9.4800   -3.2370  220.2610 C.3   657  MET657      0.1702
     50  C        -10.4070   -2.0320  220.3010 C.2   657  MET657      0.2592
     51  O         -9.9880   -0.9240  220.6350 O.2   657  MET657     -0.2718
     52  CB        -9.2880   -3.6820  218.8140 C.3   657  MET657      0.0401
     53  CG        -8.7130   -2.6020  217.9180 C.3   657  MET657      0.0596
     54  SD        -7.9370   -3.2820  216.4480 S.3   657  MET657     -0.1393
     55  CE        -9.2900   -4.2210  215.7540 C.3   657  MET657      0.0692
     56  N        -11.6710   -2.2600  219.9650 N.am  658  PHE658     -0.1976
     57  CA       -12.6550   -1.1900  219.9380 C.3   658  PHE658      0.1639
     58  C        -12.9260   -0.6540  221.3410 C.2   658  PHE658      0.2290
     59  O        -13.4550    0.4460  221.4950 O.2   658  PHE658     -0.2864
     60  CB       -13.9650   -1.6760  219.3150 C.3   658  PHE658      0.0560
     61  CG       -13.8180   -2.2330  217.9250 C.ar  658  PHE658     -0.0200
     62  CD1      -13.5500   -3.5770  217.7270 C.ar  658  PHE658     -0.0042
     63  CD2      -13.9660   -1.4160  216.8170 C.ar  658  PHE658     -0.0042
     64  CE1      -13.4220   -4.0940  216.4500 C.ar  658  PHE658     -0.0003
     65  CE2      -13.8400   -1.9270  215.5380 C.ar  658  PHE658     -0.0003
     66  CZ       -13.5680   -3.2680  215.3540 C.ar  658  PHE658     -0.0000
     67  N         -7.4530    6.5800  215.3390 N.3   666  TRP666     -0.1241
     68  CA        -7.8460    5.9250  214.1030 C.3   666  TRP666      0.1605
     69  C         -8.1970    6.9310  213.0220 C.2   666  TRP666      0.2264
     70  O         -7.9770    6.6820  211.8390 O.2   666  TRP666     -0.2867
     71  CB        -9.0280    4.9960  214.3650 C.3   666  TRP666      0.0550
     72  CG        -8.6860    3.9150  215.3280 C.ar  666  TRP666      0.0003
     73  CD1       -8.9710    3.8820  216.6590 C.ar  666  TRP666      0.0946
     74  CD2       -7.9690    2.7120  215.0390 C.ar  666  TRP666      0.0152
     75  NE1       -8.4830    2.7260  217.2190 N.ar  666  TRP666     -0.2442
     76  CE2       -7.8620    1.9910  216.2440 C.ar  666  TRP666      0.0810
     77  CE3       -7.4100    2.1740  213.8770 C.ar  666  TRP666      0.0012
     78  CZ2       -7.2220    0.7560  216.3190 C.ar  666  TRP666      0.0191
     79  CZ3       -6.7740    0.9530  213.9530 C.ar  666  TRP666      0.0001
     80  CH2       -6.6850    0.2560  215.1650 C.ar  666  TRP666      0.0015
     81  N        -15.0240    5.2630  213.1970 N.3   695  LEU695     -0.1245
     82  CA       -16.2830    5.0330  213.8950 C.3   695  LEU695      0.1561
     83  C        -16.4960    6.0780  214.9800 C.2   695  LEU695      0.2260
     84  O        -15.5350    6.6080  215.5320 O.2   695  LEU695     -0.2867
     85  CB       -16.2990    3.6380  214.5190 C.3   695  LEU695      0.0270
     86  CG       -15.8360    2.4890  213.6230 C.3   695  LEU695      0.0019
     87  CD1      -16.1010    1.1580  214.3040 C.3   695  LEU695      0.0001
     88  CD2      -16.5030    2.5480  212.2540 C.3   695  LEU695      0.0001
     89  N        -20.3040    4.3580  218.7480 N.3   699  GLN699     -0.1245
     90  CA       -20.2420    3.2120  217.8490 C.3   699  GLN699      0.1566
     91  C        -19.1720    2.2240  218.2970 C.2   699  GLN699      0.2260
     92  O        -19.4170    1.0210  218.3770 O.2   699  GLN699     -0.2867
     93  CB       -19.9580    3.6590  216.4130 C.3   699  GLN699      0.0367
     94  CG       -19.8060    2.4960  215.4450 C.3   699  GLN699      0.0905
     95  CD       -19.7020    2.9370  214.0020 C.2   699  GLN699      0.2608
     96  OE1      -19.5210    4.1200  213.7110 O.2   699  GLN699     -0.2717
     97  NE2      -19.8280    1.9850  213.0850 N.am  699  GLN699     -0.0878
     98  N        -20.1810    0.3080  221.2030 N.3   702  LEU702     -0.1231
     99  CA       -21.1870   -0.6590  220.7810 C.3   702  LEU702      0.1693
    100  C        -20.5580   -1.8600  220.0820 C.2   702  LEU702      0.2591
    101  O        -20.7950   -3.0050  220.4660 O.2   702  LEU702     -0.2718
    102  CB       -22.2030    0.0100  219.8520 C.3   702  LEU702      0.0284
    103  CG       -23.1560   -0.9110  219.0870 C.3   702  LEU702      0.0019
    104  CD1      -23.9580   -1.7700  220.0420 C.3   702  LEU702      0.0001
    105  CD2      -24.0760   -0.1000  218.1910 C.3   702  LEU702      0.0001
    106  N        -19.7540   -1.5900  219.0580 N.am  703  VAL703     -0.1980
    107  CA       -19.0970   -2.6500  218.3010 C.3   703  VAL703      0.1595
    108  C        -18.1530   -3.4240  219.2100 C.2   703  VAL703      0.2287
    109  O        -18.0560   -4.6470  219.1190 O.2   703  VAL703     -0.2864
    110  CB       -18.3240   -2.0870  217.0900 C.3   703  VAL703      0.0276
    111  CG1      -17.5130   -3.1850  216.4000 C.3   703  VAL703      0.0022
    112  CG2      -19.2890   -1.4430  216.1050 C.3   703  VAL703      0.0022
    113  N        -20.2660   -5.5990  221.2350 N.3   706  ALA706     -0.1231
    114  CA       -20.8350   -6.6530  220.4010 C.3   706  ALA706      0.1694
    115  C        -19.8610   -7.8130  220.2760 C.2   706  ALA706      0.2592
    116  O        -20.2090   -8.9560  220.5610 O.2   706  ALA706     -0.2718
    117  CB       -21.1930   -6.1110  219.0280 C.3   706  ALA706      0.0304
    118  N        -18.6380   -7.5080  219.8610 N.am  707  HIS707     -0.1976
    119  CA       -17.5890   -8.5120  219.7710 C.3   707  HIS707      0.1656
    120  C        -17.3910   -9.2040  221.1080 C.2   707  HIS707      0.2291
    121  O        -17.3760  -10.4310  221.1870 O.2   707  HIS707     -0.2864
    122  CB       -16.2800   -7.8780  219.3160 C.3   707  HIS707      0.0771
    123  CG       -16.2560   -7.5180  217.8660 C.ar  707  HIS707      0.0820
    124  ND1      -15.0840   -7.2950  217.1770 N.ar  707  HIS707     -0.2267
    125  CD2      -17.2580   -7.3550  216.9710 C.ar  707  HIS707      0.1154
    126  CE1      -15.3660   -7.0000  215.9220 C.ar  707  HIS707      0.1986
    127  NE2      -16.6780   -7.0310  215.7700 N.ar  707  HIS707     -0.2212
    128  N        -20.3660  -11.6370  221.6190 N.3   710  VAL710     -0.1245
    129  CA       -20.3740  -12.7790  220.7130 C.3   710  VAL710      0.1561
    130  C        -19.3330  -13.7950  221.1560 C.2   710  VAL710      0.2260
    131  O        -19.6300  -14.9790  221.3190 O.2   710  VAL710     -0.2867
    132  CB       -20.0840  -12.3510  219.2550 C.3   710  VAL710      0.0252
    133  CG1      -19.9070  -13.5700  218.3580 C.3   710  VAL710      0.0019
    134  CG2      -21.1950  -11.4670  218.7170 C.3   710  VAL710      0.0019
@<TRIPOS>BOND
     1     1     2    1
     2    12    10   ar
     3    12    14   ar
     4     9    10   ar
     5     9     7   ar
     6    10     8   ar
     7    14    13   ar
     8     7     6   ar
     9     8     6   ar
    10     8    11   ar
    11    13    11   ar
    12     2     5    1
    13     2     3    1
    14     6     5    1
    15     3     4    2
    16    70    69    2
    17    88    86    1
    18    69    68    1
    19    97    95   am
    20    23    25   ar
    21    23    21   ar
    22    81    82    1
    23    25    24   ar
    24    86    87    1
    25    86    85    1
    26    96    95    2
    27    21    20   ar
    28    77    79   ar
    29    77    74   ar
    30    82    85    1
    31    82    83    1
    32    79    80   ar
    33    95    94    1
    34    68    71    1
    35    68    67    1
    36    71    72    1
    37    33    31    1
    38    24    22   ar
    39    83    84    2
    40    74    72   ar
    41    74    76   ar
    42    20    22   ar
    43    20    19    1
    44    80    78   ar
    45    72    73   ar
    46    66    65   ar
    47    66    64   ar
    48    94    93    1
    49    65    63   ar
    50    55    54    1
    51   127   126   ar
    52   127   125   ar
    53    19    16    1
    54   126   124   ar
    55    31    32    1
    56    31    30    1
    57   112   110    1
    58    76    78   ar
    59    76    75   ar
    60    47    45    1
    61   111   110    1
    62    93    90    1
    63    54    53    1
    64    64    62   ar
    65    73    75   ar
    66    16    15    1
    67    16    17    1
    68    46    45    1
    69    63    61   ar
    70    40    38    1
    71   125   123   ar
    72    30    27    1
    73   110   107    1
    74   124   123   ar
    75    45    42    1
    76    18    17    2
    77    62    61   ar
    78    90    91    1
    79    90    89    1
    80   123   122    1
    81    53    52    1
    82    61    60    1
    83    38    39    1
    84    38    35    1
    85   105   103    1
    86    91    92    2
    87   107   106    1
    88   107   108    1
    89    34    35    1
    90    34    28   am
    91   133   132    1
    92    35    36    1
    93    27    28    1
    94    27    26    1
    95    28    29    2
    96    42    43    1
    97    42    41    1
    98   134   132    1
    99    44    43    2
   100    52    49    1
   101   117   114    1
   102   106   100   am
   103   103   102    1
   104   103   104    1
   105   109   108    2
   106   132   129    1
   107    60    57    1
   108   122   119    1
   109    36    37    2
   110   119   118    1
   111   119   120    1
   112   102    99    1
   113   118   115   am
   114    57    56    1
   115    57    58    1
   116    56    50   am
   117   100   101    2
   118   100    99    1
   119    49    50    1
   120    49    48    1
   121   115   114    1
   122   115   116    2
   123    50    51    2
   124   114   113    1
   125   129   130    1
   126   129   128    1
   127    99    98    1
   128   120   121    2
   129   130   131    2
   130    58    59    2
