@<TRIPOS>MOLECULE
tmp/4l6vB28.pdb
 141 129 0 0 0
SMALL
GASTEIGER

@<TRIPOS>ATOM
      1  N        -37.8640  -12.5140  233.8890 N.3   339  VAL339     -0.1245
      2  CA       -37.9460  -13.2470  235.1450 C.3   339  VAL339      0.1561
      3  C        -38.3920  -14.6810  234.8890 C.2   339  VAL339      0.2260
      4  O        -37.7280  -15.6280  235.3090 O.2   339  VAL339     -0.2867
      5  CB       -38.9150  -12.5600  236.1400 C.3   339  VAL339      0.0252
      6  CG1      -39.5440  -13.5710  237.1010 C.3   339  VAL339      0.0019
      7  CG2      -38.1850  -11.4790  236.9210 C.3   339  VAL339      0.0019
      8  N        -35.9700  -17.0400  233.2450 N.3   342  SER342     -0.1202
      9  CA       -35.0800  -17.6410  234.2270 C.3   342  SER342      0.2020
     10  C        -35.8020  -18.7480  234.9800 C.2   342  SER342      0.2618
     11  O        -35.2180  -19.7860  235.2920 O.2   342  SER342     -0.2717
     12  CB       -34.5660  -16.5930  235.2120 C.3   342  SER342      0.2103
     13  OG       -33.6320  -15.7250  234.6000 O.3   342  SER342     -0.2182
     14  N        -37.0770  -18.5160  235.2700 N.am  343  LEU343     -0.1979
     15  CA       -37.8910  -19.4910  235.9800 C.3   343  LEU343      0.1596
     16  C        -38.0540  -20.7550  235.1380 C.2   343  LEU343      0.2287
     17  O        -38.0480  -21.8660  235.6690 O.2   343  LEU343     -0.2864
     18  CB       -39.2550  -18.8910  236.3330 C.3   343  LEU343      0.0297
     19  CG       -40.0550  -19.6060  237.4240 C.3   343  LEU343      0.0022
     20  CD1      -39.3790  -19.4530  238.7820 C.3   343  LEU343      0.0001
     21  CD2      -41.4770  -19.0690  237.4750 C.3   343  LEU343      0.0001
     22  N        -34.7470  -22.6850  235.4960 N.3   346  GLN346     -0.1245
     23  CA       -34.6040  -23.3070  236.8070 C.3   346  GLN346      0.1566
     24  C        -35.5810  -24.4630  236.9960 C.2   346  GLN346      0.2260
     25  O        -35.3380  -25.3590  237.8040 O.2   346  GLN346     -0.2867
     26  CB       -34.8070  -22.2740  237.9170 C.3   346  GLN346      0.0367
     27  CG       -33.7380  -21.1950  237.9640 C.3   346  GLN346      0.0905
     28  CD       -32.4240  -21.7030  238.5310 C.2   346  GLN346      0.2608
     29  OE1      -32.3060  -22.8680  238.9090 O.2   346  GLN346     -0.2717
     30  NE2      -31.4280  -20.8280  238.5910 N.am  346  GLN346     -0.0878
     31  N        -30.9920  -18.9500  230.2500 N.3   372  GLN372     -0.1245
     32  CA       -30.5050  -18.0010  231.2440 C.3   372  GLN372      0.1566
     33  C        -29.8100  -16.8210  230.5810 C.2   372  GLN372      0.2260
     34  O        -29.9160  -15.6870  231.0470 O.2   372  GLN372     -0.2867
     35  CB       -29.5470  -18.6710  232.2320 C.3   372  GLN372      0.0367
     36  CG       -30.2200  -19.4970  233.3210 C.3   372  GLN372      0.0905
     37  CD       -30.9550  -18.6480  234.3450 C.2   372  GLN372      0.2608
     38  OE1      -31.6200  -17.6730  234.0020 O.2   372  GLN372     -0.2717
     39  NE2      -30.8150  -19.0040  235.6160 N.am  372  GLN372     -0.0878
     40  N        -32.5070  -14.7080  229.3720 N.3   375  ALA375     -0.1231
     41  CA       -33.0560  -13.9780  230.5100 C.3   375  ALA375      0.1694
     42  C        -32.1570  -12.8210  230.9300 C.2   375  ALA375      0.2592
     43  O        -32.6410  -11.7440  231.2770 O.2   375  ALA375     -0.2718
     44  CB       -33.2690  -14.9180  231.6820 C.3   375  ALA375      0.0304
     45  N        -30.8480  -13.0500  230.8990 N.am  376  GLY376     -0.1957
     46  CA       -29.8980  -12.0380  231.3160 C.3   376  GLY376      0.1869
     47  C        -29.9890  -10.8210  230.4220 C.2   376  GLY376      0.2309
     48  O        -29.9730   -9.6860  230.8970 O.2   376  GLY376     -0.2863
     49  N        -33.2800   -8.7730  231.1550 N.3   379  MET379     -0.1230
     50  CA       -33.2280   -7.9620  232.3700 C.3   379  MET379      0.1702
     51  C        -32.4650   -6.6550  232.1510 C.2   379  MET379      0.2592
     52  O        -32.8690   -5.6070  232.6570 O.2   379  MET379     -0.2718
     53  CB       -32.5920   -8.7500  233.5210 C.3   379  MET379      0.0401
     54  CG       -33.5120   -9.7900  234.1570 C.3   379  MET379      0.0596
     55  SD       -35.0710   -9.1220  234.7930 S.3   379  MET379     -0.1393
     56  CE       -34.5040   -7.7540  235.8000 C.3   379  MET379      0.0692
     57  N        -31.3600   -6.7170  231.4140 N.am  380  VAL380     -0.1980
     58  CA       -30.5990   -5.5130  231.0880 C.3   380  VAL380      0.1595
     59  C        -31.4470   -4.5580  230.2620 C.2   380  VAL380      0.2287
     60  O        -31.5690   -3.3780  230.5940 O.2   380  VAL380     -0.2864
     61  CB       -29.3030   -5.8450  230.3140 C.3   380  VAL380      0.0276
     62  CG1      -28.6740   -4.5820  229.7150 C.3   380  VAL380      0.0022
     63  CG2      -28.3130   -6.5560  231.2220 C.3   380  VAL380      0.0022
     64  N        -34.0660   -2.6150  232.0900 N.3   383  PHE383     -0.1241
     65  CA       -33.5930   -1.4210  232.7820 C.3   383  PHE383      0.1605
     66  C        -33.1250   -0.3590  231.7960 C.2   383  PHE383      0.2264
     67  O        -33.2070    0.8360  232.0800 O.2   383  PHE383     -0.2867
     68  CB       -32.4590   -1.7610  233.7500 C.3   383  PHE383      0.0534
     69  CG       -32.9310   -2.2600  235.0860 C.ar  383  PHE383     -0.0203
     70  CD1      -33.6940   -1.4480  235.9090 C.ar  383  PHE383     -0.0042
     71  CD2      -32.5990   -3.5300  235.5260 C.ar  383  PHE383     -0.0042
     72  CE1      -34.1310   -1.8970  237.1390 C.ar  383  PHE383     -0.0003
     73  CE2      -33.0310   -3.9840  236.7590 C.ar  383  PHE383     -0.0003
     74  CZ       -33.7970   -3.1660  237.5660 C.ar  383  PHE383     -0.0000
     75  N        -25.7860  -10.0410  240.7690 N.3   522  LEU522     -0.1245
     76  CA       -27.0920   -9.4330  240.5280 C.3   522  LEU522      0.1561
     77  C        -27.1620   -8.0120  241.0780 C.2   522  LEU522      0.2260
     78  O        -27.7050   -7.1180  240.4300 O.2   522  LEU522     -0.2867
     79  CB       -28.2060  -10.2840  241.1440 C.3   522  LEU522      0.0270
     80  CG       -28.3940  -11.6990  240.5870 C.3   522  LEU522      0.0019
     81  CD1      -29.6520  -12.3290  241.1660 C.3   522  LEU522      0.0001
     82  CD2      -28.4510  -11.7060  239.0630 C.3   522  LEU522      0.0001
     83  N        -24.8560   -5.5320  238.9930 N.3   525  THR525     -0.1203
     84  CA       -25.4770   -5.2690  237.7000 C.3   525  THR525      0.1994
     85  C        -26.6880   -4.3570  237.8620 C.2   525  THR525      0.2617
     86  O        -26.9520   -3.5080  237.0110 O.2   525  THR525     -0.2717
     87  CB       -25.9160   -6.5650  236.9940 C.3   525  THR525      0.1784
     88  OG1      -24.8130   -7.4780  236.9260 O.3   525  THR525     -0.2211
     89  CG2      -26.4040   -6.2610  235.5810 C.3   525  THR525      0.0376
     90  N        -27.4190   -4.5310  238.9590 N.am  526  ALA526     -0.1979
     91  CA       -28.5690   -3.6820  239.2440 C.3   526  ALA526      0.1597
     92  C        -28.1050   -2.2800  239.6160 C.2   526  ALA526      0.2287
     93  O        -28.7290   -1.2920  239.2330 O.2   526  ALA526     -0.2864
     94  CB       -29.4130   -4.2780  240.3590 C.3   526  ALA526      0.0319
     95  N        -27.2610   -0.4490  236.2990 N.3   529  LEU529     -0.1231
     96  CA       -28.4740   -0.1910  235.5380 C.3   529  LEU529      0.1693
     97  C        -29.4010    0.8030  236.2350 C.2   529  LEU529      0.2591
     98  O        -29.9530    1.6960  235.5920 O.2   529  LEU529     -0.2718
     99  CB       -29.2160   -1.5030  235.2790 C.3   529  LEU529      0.0284
    100  CG       -28.5120   -2.4900  234.3440 C.3   529  LEU529      0.0019
    101  CD1      -29.1930   -3.8500  234.3760 C.3   529  LEU529      0.0001
    102  CD2      -28.4730   -1.9470  232.9210 C.3   529  LEU529      0.0001
    103  N        -29.5720    0.6470  237.5440 N.am  530  ILE530     -0.1980
    104  CA       -30.4480    1.5350  238.3050 C.3   530  ILE530      0.1595
    105  C        -29.8650    2.9410  238.4040 C.2   530  ILE530      0.2287
    106  O        -30.5870    3.9240  238.2390 O.2   530  ILE530     -0.2864
    107  CB       -30.7200    0.9800  239.7200 C.3   530  ILE530      0.0276
    108  CG1      -31.6360   -0.2420  239.6150 C.3   530  ILE530      0.0022
    109  CG2      -31.3600    2.0440  240.6180 C.3   530  ILE530      0.0022
    110  CD1      -31.8550   -0.9820  240.9170 C.3   530  ILE530      0.0001
    111  N        -23.4530   -8.4690  233.4100 N.3   578  MET578     -0.1245
    112  CA       -24.4480   -9.5130  233.1730 C.3   578  MET578      0.1570
    113  C        -23.7730  -10.7590  232.6180 C.2   578  MET578      0.2261
    114  O        -24.0040  -11.8670  233.1020 O.2   578  MET578     -0.2867
    115  CB       -25.5310   -9.0330  232.2040 C.3   578  MET578      0.0387
    116  CG       -26.5640  -10.1060  231.8360 C.3   578  MET578      0.0595
    117  SD       -26.8420  -10.2780  230.0610 S.3   578  MET578     -0.1393
    118  CE       -25.2010  -10.6860  229.4870 C.3   578  MET578      0.0692
    119  N        -21.9420  -12.4110  235.3150 N.3   581  THR581     -0.1203
    120  CA       -22.8410  -13.0580  236.2620 C.3   581  THR581      0.1994
    121  C        -23.3240  -14.3850  235.6970 C.2   581  THR581      0.2617
    122  O        -23.4420  -15.3730  236.4200 O.2   581  THR581     -0.2717
    123  CB       -24.0620  -12.1750  236.5920 C.3   581  THR581      0.1784
    124  OG1      -23.6250  -10.8650  236.9740 O.3   581  THR581     -0.2211
    125  CG2      -24.8760  -12.7910  237.7250 C.3   581  THR581      0.0376
    126  N        -23.5970  -14.4010  234.3970 N.am  582  LEU582     -0.1979
    127  CA       -24.0370  -15.6150  233.7240 C.3   582  LEU582      0.1596
    128  C        -22.8990  -16.6190  233.6170 C.2   582  LEU582      0.2287
    129  O        -23.1260  -17.8280  233.6310 O.2   582  LEU582     -0.2864
    130  CB       -24.5870  -15.2940  232.3380 C.3   582  LEU582      0.0297
    131  CG       -25.9250  -14.5570  232.3120 C.3   582  LEU582      0.0022
    132  CD1      -26.1860  -14.0440  230.9140 C.3   582  LEU582      0.0001
    133  CD2      -27.0600  -15.4610  232.7770 C.3   582  LEU582      0.0001
    134  N        -22.7940  -18.2170  236.9930 N.3   585  LEU585     -0.1245
    135  CA       -24.0120  -19.0060  237.0760 C.3   585  LEU585      0.1561
    136  C        -23.8830  -20.3330  236.3490 C.2   585  LEU585      0.2260
    137  O        -24.0910  -21.3940  236.9330 O.2   585  LEU585     -0.2867
    138  CB       -25.1780  -18.2030  236.5030 C.3   585  LEU585      0.0270
    139  CG       -26.5670  -18.8400  236.5050 C.3   585  LEU585      0.0019
    140  CD1      -27.5960  -17.7460  236.6020 C.3   585  LEU585      0.0001
    141  CD2      -26.8090  -19.6650  235.2510 C.3   585  LEU585      0.0001
@<TRIPOS>BOND
     1    40    41    1
     2   118   117    1
     3    62    61    1
     4   117   116    1
     5    31    32    1
     6    59    60    2
     7    59    58    1
     8    61    58    1
     9    61    63    1
    10    47    48    2
    11    47    46    1
    12    41    42    1
    13    41    44    1
    14    33    34    2
    15    33    32    1
    16    45    42   am
    17    45    46    1
    18   132   131    1
    19    42    43    2
    20    58    57    1
    21    49    50    1
    22    32    35    1
    23    57    51   am
    24    66    67    2
    25    66    65    1
    26   116   115    1
    27    64    65    1
    28    51    50    1
    29    51    52    2
    30   115   112    1
    31    35    36    1
    32   131   130    1
    33   131   133    1
    34   130   127    1
    35    50    53    1
    36   113   114    2
    37   113   112    1
    38    65    68    1
    39   102   100    1
    40   112   111    1
    41     8     9    1
    42    36    37    1
    43    53    54    1
    44   128   129    2
    45   128   127    1
    46   127   126    1
    47    68    69    1
    48     1     2    1
    49    38    37    2
    50    54    55    1
    51     9    10    1
    52     9    12    1
    53   100   101    1
    54   100    99    1
    55    37    39   am
    56   126   121   am
    57    13    12    1
    58    55    56    1
    59     3     2    1
    60     3     4    2
    61    10    14   am
    62    10    11    2
    63    69    71   ar
    64    69    70   ar
    65    16    17    2
    66    16    15    1
    67     2     5    1
    68   141   139    1
    69    14    15    1
    70    99    96    1
    71   119   120    1
    72    22    23    1
    73    71    73   ar
    74    96    97    1
    75    96    95    1
    76    89    87    1
    77    98    97    2
    78   121   120    1
    79   121   122    2
    80    70    72   ar
    81    15    18    1
    82     5     7    1
    83     5     6    1
    84    97   103   am
    85   120   123    1
    86    18    19    1
    87   136   137    2
    88   136   135    1
    89   138   139    1
    90   138   135    1
    91   139   140    1
    92   123   124    1
    93   123   125    1
    94    73    74   ar
    95    23    24    1
    96    23    26    1
    97    88    87    1
    98   134   135    1
    99    87    84    1
   100    24    25    2
   101    86    85    2
   102    72    74   ar
   103    19    21    1
   104    19    20    1
   105   103   104    1
   106    84    85    1
   107    84    83    1
   108    85    90   am
   109    26    27    1
   110    27    28    1
   111   106   105    2
   112   104   105    1
   113   104   107    1
   114    28    30   am
   115    28    29    2
   116    90    91    1
   117    82    80    1
   118    93    92    2
   119    91    92    1
   120    91    94    1
   121   108   107    1
   122   108   110    1
   123   107   109    1
   124    78    77    2
   125    76    75    1
   126    76    77    1
   127    76    79    1
   128    80    79    1
   129    80    81    1
