@<TRIPOS>MOLECULE
tmp/4l6vB44.pdb
 165 163 0 0 0
SMALL
GASTEIGER

@<TRIPOS>ATOM
      1  N        -39.4890  -33.0930  222.7560 N.3   121  TRP121     -0.1241
      2  CA       -40.7320  -32.3270  222.8040 C.3   121  TRP121      0.1605
      3  C        -41.7730  -32.9020  221.8520 C.2   121  TRP121      0.2264
      4  O        -42.9090  -33.1500  222.2510 O.2   121  TRP121     -0.2867
      5  CB       -40.4710  -30.8550  222.4710 C.3   121  TRP121      0.0550
      6  CG       -41.7170  -30.0180  222.3540 C.ar  121  TRP121      0.0003
      7  CD1      -42.8810  -30.1630  223.0560 C.ar  121  TRP121      0.0946
      8  CD2      -41.9230  -28.9130  221.4680 C.ar  121  TRP121      0.0152
      9  NE1      -43.7920  -29.2130  222.6680 N.ar  121  TRP121     -0.2442
     10  CE2      -43.2290  -28.4340  221.6910 C.ar  121  TRP121      0.0810
     11  CE3      -41.1290  -28.2820  220.5070 C.ar  121  TRP121      0.0012
     12  CZ2      -43.7570  -27.3540  220.9900 C.ar  121  TRP121      0.0191
     13  CZ3      -41.6550  -27.2110  219.8120 C.ar  121  TRP121      0.0001
     14  CH2      -42.9570  -26.7570  220.0570 C.ar  121  TRP121      0.0015
     15  N        -45.5330  -34.8820  222.9370 N.3   125  ILE125     -0.1231
     16  CA       -46.8440  -34.2790  222.6800 C.3   125  ILE125      0.1692
     17  C        -47.6880  -35.0610  221.6710 C.2   125  ILE125      0.2593
     18  O        -48.8590  -34.7370  221.4660 O.2   125  ILE125     -0.2718
     19  CB       -46.7140  -32.8210  222.1770 C.3   125  ILE125      0.0266
     20  CG1      -45.9390  -32.7640  220.8550 C.3   125  ILE125      0.0019
     21  CG2      -46.0580  -31.9530  223.2460 C.3   125  ILE125      0.0020
     22  CD1      -45.9010  -31.3860  220.2260 C.3   125  ILE125      0.0001
     23  N        -47.1010  -36.0800  221.0460 N.am  126  GLY126     -0.1942
     24  CA       -47.8530  -36.9880  220.1950 C.3   126  GLY126      0.2014
     25  C        -47.3370  -37.1470  218.7760 C.2   126  GLY126      0.2638
     26  O        -47.9470  -37.8560  217.9770 O.2   126  GLY126     -0.2714
     27  N        -46.2230  -36.5000  218.4510 N.am  127  MET127     -0.1976
     28  CA       -45.6090  -36.6810  217.1390 C.3   127  MET127      0.1605
     29  C        -45.0330  -38.0940  217.0530 C.2   127  MET127      0.2287
     30  O        -44.2480  -38.4980  217.9120 O.2   127  MET127     -0.2864
     31  CB       -44.5140  -35.6380  216.8910 C.3   127  MET127      0.0413
     32  CG       -44.9960  -34.1860  216.9410 C.3   127  MET127      0.0598
     33  SD       -46.1500  -33.7690  215.6200 S.3   127  MET127     -0.1393
     34  CE       -45.7400  -32.0490  215.3370 C.3   127  MET127      0.0692
     35  N        -46.1890  -36.2270  210.2220 N.3   132  GLU132     -0.1245
     36  CA       -46.8610  -35.2990  211.1240 C.3   132  GLU132      0.1567
     37  C        -46.0460  -34.0210  211.3130 C.2   132  GLU132      0.2260
     38  O        -46.6050  -32.9400  211.4950 O.2   132  GLU132     -0.2867
     39  CB       -47.1160  -35.9650  212.4770 C.3   132  GLU132      0.0388
     40  CG       -48.3630  -36.8410  212.4990 C.3   132  GLU132      0.1160
     41  CD       -48.4020  -37.7970  213.6780 C.2   132  GLU132      0.3649
     42  OE1      -49.4520  -38.4460  213.8780 O.co2 132  GLU132     -0.2457
     43  OE2      -47.3900  -37.9050  214.4020 O.co2 132  GLU132     -0.2457
     44  N        -46.1890  -32.0970  207.9880 N.3   135  SER135     -0.1202
     45  CA       -47.5470  -31.5740  207.9160 C.3   135  SER135      0.2020
     46  C        -47.6640  -30.3580  208.8220 C.2   135  SER135      0.2619
     47  O        -48.4330  -29.4360  208.5510 O.2   135  SER135     -0.2717
     48  CB       -48.5660  -32.6420  208.3150 C.3   135  SER135      0.2103
     49  OG       -49.8900  -32.1540  208.1880 O.3   135  SER135     -0.2182
     50  N        -46.8890  -30.3640  209.9020 N.am  136  GLY136     -0.1956
     51  CA       -46.8550  -29.2440  210.8200 C.3   136  GLY136      0.1869
     52  C        -46.0260  -28.1180  210.2440 C.2   136  GLY136      0.2309
     53  O        -46.3000  -26.9440  210.4880 O.2   136  GLY136     -0.2863
     54  N        -48.1250  -26.2370  207.7560 N.3   139  PHE139     -0.1241
     55  CA       -49.1920  -25.5410  208.4650 C.3   139  PHE139      0.1605
     56  C        -48.6940  -24.2200  209.0410 C.2   139  PHE139      0.2264
     57  O        -49.4200  -23.2280  209.0540 O.2   139  PHE139     -0.2867
     58  CB       -49.7680  -26.4120  209.5840 C.3   139  PHE139      0.0534
     59  CG       -50.7260  -25.6800  210.4800 C.ar  139  PHE139     -0.0203
     60  CD1      -51.9680  -25.2840  210.0130 C.ar  139  PHE139     -0.0042
     61  CD2      -50.3850  -25.3890  211.7910 C.ar  139  PHE139     -0.0042
     62  CE1      -52.8490  -24.6060  210.8350 C.ar  139  PHE139     -0.0003
     63  CE2      -51.2630  -24.7130  212.6180 C.ar  139  PHE139     -0.0003
     64  CZ       -52.4960  -24.3220  212.1390 C.ar  139  PHE139     -0.0000
     65  N        -56.0150  -20.4450  225.2910 N.3   184  SER184     -0.1217
     66  CA       -54.8230  -21.0580  224.7260 C.3   184  SER184      0.1889
     67  C        -54.3160  -22.1740  225.6330 C.2   184  SER184      0.2288
     68  O        -53.7880  -23.1730  225.1570 O.2   184  SER184     -0.2866
     69  CB       -53.7350  -20.0080  224.5000 C.3   184  SER184      0.2089
     70  OG       -54.2370  -18.9190  223.7430 O.3   184  SER184     -0.2183
     71  N        -56.9730  -24.9920  225.4290 N.3   187  ALA187     -0.1231
     72  CA       -56.8540  -25.7210  224.1770 C.3   187  ALA187      0.1694
     73  C        -55.7390  -26.7600  224.2460 C.2   187  ALA187      0.2592
     74  O        -55.8420  -27.8230  223.6340 O.2   187  ALA187     -0.2718
     75  CB       -56.6110  -24.7560  223.0290 C.3   187  ALA187      0.0304
     76  N        -54.6750  -26.4600  224.9860 N.am  188  TRP188     -0.1976
     77  CA       -53.5710  -27.4070  225.1200 C.3   188  TRP188      0.1640
     78  C        -53.9700  -28.5540  226.0360 C.2   188  TRP188      0.2290
     79  O        -53.6100  -29.7030  225.7860 O.2   188  TRP188     -0.2864
     80  CB       -52.3110  -26.7300  225.6570 C.3   188  TRP188      0.0576
     81  CG       -51.0850  -27.6070  225.5760 C.ar  188  TRP188      0.0006
     82  CD1      -50.2780  -27.9800  226.6090 C.ar  188  TRP188      0.0946
     83  CD2      -50.5350  -28.2210  224.3990 C.ar  188  TRP188      0.0152
     84  NE1      -49.2590  -28.7790  226.1530 N.ar  188  TRP188     -0.2442
     85  CE2      -49.3930  -28.9430  224.8000 C.ar  188  TRP188      0.0810
     86  CE3      -50.8910  -28.2260  223.0460 C.ar  188  TRP188      0.0012
     87  CZ2      -48.6100  -29.6630  223.9010 C.ar  188  TRP188      0.0191
     88  CZ3      -50.1110  -28.9400  222.1550 C.ar  188  TRP188      0.0001
     89  CH2      -48.9850  -29.6490  222.5860 C.ar  188  TRP188      0.0015
     90  N        -56.7640  -29.6330  226.1190 N.3   190  GLY190     -0.1210
     91  CA       -57.5780  -30.3940  225.1960 C.3   190  GLY190      0.1956
     92  C        -56.7530  -31.3030  224.3080 C.2   190  GLY190      0.2611
     93  O        -57.1390  -32.4400  224.0570 O.2   190  GLY190     -0.2717
     94  N        -55.6150  -30.8060  223.8310 N.am  191  HIS191     -0.1975
     95  CA       -54.7470  -31.6010  222.9690 C.3   191  HIS191      0.1656
     96  C        -54.1380  -32.7680  223.7390 C.2   191  HIS191      0.2291
     97  O        -53.9670  -33.8580  223.1940 O.2   191  HIS191     -0.2864
     98  CB       -53.6360  -30.7410  222.3600 C.3   191  HIS191      0.0771
     99  CG       -52.7440  -31.4920  221.4200 C.ar  191  HIS191      0.0820
    100  ND1      -51.4300  -31.7890  221.7110 N.ar  191  HIS191     -0.2267
    101  CD2      -52.9850  -32.0180  220.1960 C.ar  191  HIS191      0.1154
    102  CE1      -50.8980  -32.4580  220.7030 C.ar  191  HIS191      0.1986
    103  NE2      -51.8210  -32.6110  219.7710 N.ar  191  HIS191     -0.2212
    104  N        -56.6630  -35.6900  224.3050 N.3   194  HIS194     -0.1226
    105  CA       -57.1530  -36.2300  223.0400 C.3   194  HIS194      0.1752
    106  C        -56.0730  -36.9440  222.2380 C.2   194  HIS194      0.2595
    107  O        -56.3630  -37.8910  221.5090 O.2   194  HIS194     -0.2718
    108  CB       -57.7410  -35.1110  222.1780 C.3   194  HIS194      0.0759
    109  CG       -59.2360  -35.1040  222.1290 C.ar  194  HIS194      0.0818
    110  ND1      -60.0150  -34.6300  223.1630 N.ar  194  HIS194     -0.2268
    111  CD2      -60.0960  -35.5090  221.1650 C.ar  194  HIS194      0.1154
    112  CE1      -61.2900  -34.7460  222.8390 C.ar  194  HIS194      0.1986
    113  NE2      -61.3670  -35.2770  221.6320 N.ar  194  HIS194     -0.2212
    114  N        -54.8310  -36.4920  222.3820 N.am  195  VAL195     -0.1980
    115  CA       -53.7500  -36.9340  221.5070 C.3   195  VAL195      0.1595
    116  C        -52.5190  -37.4010  222.2810 C.2   195  VAL195      0.2287
    117  O        -52.1480  -38.5730  222.2170 O.2   195  VAL195     -0.2864
    118  CB       -53.3400  -35.8040  220.5420 C.3   195  VAL195      0.0276
    119  CG1      -52.3430  -36.3120  219.5170 C.3   195  VAL195      0.0022
    120  CG2      -54.5690  -35.2280  219.8420 C.3   195  VAL195      0.0022
    121  N        -51.6810  -41.5410  222.6450 N.3   199  GLU199     -0.1245
    122  CA       -50.6130  -42.0560  221.7940 C.3   199  GLU199      0.1567
    123  C        -49.4020  -42.4760  222.6210 C.2   199  GLU199      0.2260
    124  O        -48.5230  -43.1860  222.1310 O.2   199  GLU199     -0.2867
    125  CB       -50.2060  -41.0120  220.7530 C.3   199  GLU199      0.0388
    126  CG       -49.8230  -41.6040  219.4000 C.3   199  GLU199      0.1160
    127  CD       -50.2350  -40.7240  218.2360 C.2   199  GLU199      0.3649
    128  OE1      -49.4040  -40.5180  217.3280 O.co2 199  GLU199     -0.2457
    129  OE2      -51.3870  -40.2420  218.2230 O.co2 199  GLU199     -0.2457
    130  N        -54.3410  -41.2580  218.0070 N.3   205  VAL205     -0.1231
    131  CA       -55.4870  -40.3920  217.7470 C.3   205  VAL205      0.1692
    132  C        -55.0560  -39.1960  216.9030 C.2   205  VAL205      0.2593
    133  O        -54.1690  -38.4350  217.2930 O.2   205  VAL205     -0.2718
    134  CB       -56.1370  -39.8990  219.0560 C.3   205  VAL205      0.0266
    135  CG1      -57.3120  -38.9700  218.7560 C.3   205  VAL205      0.0020
    136  CG2      -56.6000  -41.0820  219.8930 C.3   205  VAL205      0.0020
    137  N        -55.6930  -39.0420  215.7470 N.am  206  GLY206     -0.1942
    138  CA       -55.3680  -37.9760  214.8150 C.3   206  GLY206      0.2014
    139  C        -56.5990  -37.4490  214.1050 C.2   206  GLY206      0.2638
    140  O        -57.7210  -37.8370  214.4300 O.2   206  GLY206     -0.2714
    141  N        -56.3840  -36.5620  213.1350 N.am  207  TRP207     -0.1973
    142  CA       -57.4740  -35.8950  212.4240 C.3   207  TRP207      0.1640
    143  C        -58.4720  -36.8860  211.8300 C.2   207  TRP207      0.2290
    144  O        -59.6210  -36.5350  211.5600 O.2   207  TRP207     -0.2864
    145  CB       -56.9170  -35.0010  211.3130 C.3   207  TRP207      0.0576
    146  CG       -55.9790  -33.9440  211.8090 C.ar  207  TRP207      0.0006
    147  CD1      -54.6440  -33.8430  211.5470 C.ar  207  TRP207      0.0946
    148  CD2      -56.3050  -32.8420  212.6640 C.ar  207  TRP207      0.0152
    149  NE1      -54.1190  -32.7430  212.1830 N.ar  207  TRP207     -0.2442
    150  CE2      -55.1190  -32.1130  212.8760 C.ar  207  TRP207      0.0810
    151  CE3      -57.4850  -32.4020  213.2700 C.ar  207  TRP207      0.0012
    152  CZ2      -55.0790  -30.9670  213.6680 C.ar  207  TRP207      0.0191
    153  CZ3      -57.4440  -31.2640  214.0560 C.ar  207  TRP207      0.0001
    154  CH2      -56.2490  -30.5600  214.2480 C.ar  207  TRP207      0.0015
    155  N        -60.0530  -38.2080  215.7450 N.3   210  PHE210     -0.1241
    156  CA       -60.0790  -37.4370  216.9870 C.3   210  PHE210      0.1605
    157  C        -61.4990  -37.0530  217.3830 C.2   210  PHE210      0.2264
    158  O        -61.8090  -36.9170  218.5670 O.2   210  PHE210     -0.2867
    159  CB       -59.2280  -36.1850  216.8520 C.3   210  PHE210      0.0534
    160  CG       -59.9360  -35.0330  216.1950 C.ar  210  PHE210     -0.0203
    161  CD1      -60.0500  -34.9660  214.8170 C.ar  210  PHE210     -0.0042
    162  CD2      -60.4730  -34.0080  216.9570 C.ar  210  PHE210     -0.0042
    163  CE1      -60.6910  -33.9020  214.2110 C.ar  210  PHE210     -0.0003
    164  CE2      -61.1170  -32.9430  216.3560 C.ar  210  PHE210     -0.0003
    165  CZ       -61.2260  -32.8900  214.9820 C.ar  210  PHE210     -0.0000
@<TRIPOS>BOND
     1    54    55    1
     2    45    44    1
     3    45    48    1
     4    45    46    1
     5    49    48    1
     6    55    56    1
     7    55    58    1
     8    47    46    2
     9    46    50   am
    10    56    57    2
    11    58    59    1
    12    50    51    1
    13    60    59   ar
    14    60    62   ar
    15    35    36    1
    16    52    53    2
    17    52    51    1
    18    59    61   ar
    19    62    64   ar
    20    36    37    1
    21    36    39    1
    22    37    38    2
    23   145   146    1
    24   145   142    1
    25   147   146   ar
    26   147   149   ar
    27   144   143    2
    28    61    63   ar
    29   146   148   ar
    30   143   142    1
    31    64    63   ar
    32   149   150   ar
    33   142   141    1
    34    39    40    1
    35    40    41    1
    36   148   150   ar
    37   148   151   ar
    38   150   152   ar
    39   141   139   am
    40   151   153   ar
    41   152   154   ar
    42    41    42   ar
    43    41    43   ar
    44   153   154   ar
    45   139   140    2
    46   139   138    1
    47   163   161   ar
    48   163   165   ar
    49   138   137    1
    50   161   160   ar
    51   165   164   ar
    52    34    33    1
    53    33    32    1
    54   155   156    1
    55   137   132   am
    56   160   159    1
    57   160   162   ar
    58   164   162   ar
    59   159   156    1
    60    31    32    1
    61    31    28    1
    62   132   133    2
    63   132   131    1
    64   156   157    1
    65    29    28    1
    66    29    30    2
    67    28    27    1
    68   128   127   ar
    69   157   158    2
    70   131   130    1
    71   131   134    1
    72    26    25    2
    73   129   127   ar
    74   127   126    1
    75    27    25   am
    76   135   134    1
    77    25    24    1
    78   134   136    1
    79   126   125    1
    80   119   118    1
    81   103   101   ar
    82   103   102   ar
    83    13    14   ar
    84    13    11   ar
    85   120   118    1
    86    14    12   ar
    87    24    23    1
    88   101    99   ar
    89    22    20    1
    90    11     8   ar
    91   118   115    1
    92   102   100   ar
    93   125   122    1
    94    20    19    1
    95    12    10   ar
    96    23    17   am
    97   111   113   ar
    98   111   109   ar
    99    99   100   ar
   100    99    98    1
   101    18    17    2
   102     8    10   ar
   103     8     6   ar
   104   115   116    1
   105   115   114    1
   106   107   106    2
   107   113   112   ar
   108    17    16    1
   109    10     9   ar
   110   122   123    1
   111   122   121    1
   112     3     4    2
   113     3     2    1
   114   109   108    1
   115   109   110   ar
   116   124   123    2
   117    88    89   ar
   118    88    86   ar
   119    19    16    1
   120    19    21    1
   121   108   105    1
   122   117   116    2
   123   106   114   am
   124   106   105    1
   125     6     5    1
   126     6     7   ar
   127    98    95    1
   128     5     2    1
   129    89    87   ar
   130     9     7   ar
   131    16    15    1
   132     1     2    1
   133   112   110   ar
   134    95    96    1
   135    95    94    1
   136    75    72    1
   137   105   104    1
   138    86    83   ar
   139    97    96    2
   140    74    73    2
   141    70    69    1
   142    94    92   am
   143    87    85   ar
   144    93    92    2
   145    72    73    1
   146    72    71    1
   147    73    76   am
   148    92    91    1
   149    83    85   ar
   150    83    81   ar
   151    69    66    1
   152    66    65    1
   153    66    67    1
   154    85    84   ar
   155    76    77    1
   156    77    80    1
   157    77    78    1
   158    68    67    2
   159    91    90    1
   160    81    80    1
   161    81    82   ar
   162    79    78    2
   163    84    82   ar
