@<TRIPOS>MOLECULE
tmp/4l6vN05.pdb
 72 70 0 0 0
SMALL
GASTEIGER

@<TRIPOS>ATOM
      1  N        -68.7750 -113.0720  283.6150 N.3    47  PHE47      -0.1227
      2  CA       -68.8490 -112.4590  282.3030 C.3    47  PHE47       0.1736
      3  C        -68.8590 -110.9480  282.4820 C.2    47  PHE47       0.2595
      4  O        -68.8930 -110.2010  281.5040 O.2    47  PHE47      -0.2718
      5  CB       -70.0980 -112.9250  281.5520 C.3    47  PHE47       0.0547
      6  CG       -70.3730 -112.1420  280.2860 C.ar   47  PHE47      -0.0202
      7  CD1      -69.4470 -112.0380  279.2720 C.ar   47  PHE47      -0.0042
      8  CD2      -71.6130 -111.5030  280.1370 C.ar   47  PHE47      -0.0042
      9  CE1      -69.7350 -111.3620  278.1300 C.ar   47  PHE47      -0.0003
     10  CE2      -71.8960 -110.8570  278.9740 C.ar   47  PHE47      -0.0003
     11  CZ       -70.9840 -110.7460  277.9440 C.ar   47  PHE47      -0.0000
     12  N        -68.8380 -110.5020  283.7390 N.am   48  LEU48      -0.1980
     13  CA       -68.7450 -109.0820  284.0430 C.3    48  LEU48       0.1596
     14  C        -67.2840 -108.6810  284.2200 C.2    48  LEU48       0.2287
     15  O        -66.9630 -107.4950  284.2970 O.2    48  LEU48      -0.2864
     16  CB       -69.5440 -108.7470  285.3050 C.3    48  LEU48       0.0297
     17  CG       -71.0660 -108.8110  285.1830 C.3    48  LEU48       0.0022
     18  CD1      -71.6700 -108.5950  286.5510 C.3    48  LEU48       0.0001
     19  CD2      -71.6020 -107.7680  284.2360 C.3    48  LEU48       0.0001
     20  N        -64.8400 -109.6250  281.9080 N.3    50  PRO50      -0.2102
     21  CA       -64.5760 -109.1050  280.5620 C.3    50  PRO50       0.1504
     22  C        -65.3260 -107.8000  280.2980 C.2    50  PRO50       0.2576
     23  O        -65.0330 -107.1010  279.3290 O.2    50  PRO50      -0.2718
     24  CB       -65.0880 -110.2170  279.6430 C.3    50  PRO50       0.0282
     25  CG       -64.9980 -111.4490  280.4450 C.3    50  PRO50       0.0208
     26  CD       -65.2040 -111.0560  281.8770 C.3    50  PRO50       0.0893
     27  N        -66.3050 -107.4990  281.1460 N.am   51  SER51      -0.1953
     28  CA       -66.9940 -106.2160  281.1110 C.3    51  SER51       0.1924
     29  C        -66.1920 -105.1310  281.8240 C.2    51  SER51       0.2314
     30  O        -66.2310 -103.9650  281.4330 O.2    51  SER51      -0.2863
     31  CB       -68.3780 -106.3420  281.7490 C.3    51  SER51       0.2116
     32  OG       -69.1980 -107.1410  280.9730 O.3    51  SER51      -0.2180
     33  N        -63.6130 -103.5150  279.7340 N.3    54  PHE54      -0.1227
     34  CA       -64.2460 -102.6220  278.7700 C.3    54  PHE54       0.1736
     35  C        -64.2230 -101.1850  279.2800 C.2    54  PHE54       0.2595
     36  O        -64.0560 -100.2420  278.5070 O.2    54  PHE54      -0.2718
     37  CB       -65.6840 -103.0640  278.4920 C.3    54  PHE54       0.0547
     38  CG       -66.4530 -102.2020  277.5150 C.ar   54  PHE54      -0.0202
     39  CD1      -66.0110 -101.9710  276.2430 C.ar   54  PHE54      -0.0042
     40  CD2      -67.6630 -101.6610  277.8680 C.ar   54  PHE54      -0.0042
     41  CE1      -66.7230 -101.2570  275.3020 C.ar   54  PHE54      -0.0003
     42  CE2      -68.4340 -100.9300  276.9280 C.ar   54  PHE54      -0.0003
     43  CZ       -67.9250 -100.7210  275.6920 C.ar   54  PHE54      -0.0000
     44  N        -64.3880 -101.0320  280.5910 N.am   55  LEU55      -0.1980
     45  CA       -64.3790  -99.7190  281.2250 C.3    55  LEU55       0.1596
     46  C        -62.9870  -99.1080  281.1370 C.2    55  LEU55       0.2287
     47  O        -62.8360  -97.9110  280.8910 O.2    55  LEU55      -0.2864
     48  CB       -64.8230  -99.8220  282.6850 C.3    55  LEU55       0.0297
     49  CG       -66.3000 -100.1340  282.9260 C.3    55  LEU55       0.0022
     50  CD1      -66.5140 -100.3380  284.4070 C.3    55  LEU55       0.0001
     51  CD2      -67.1980  -99.0230  282.4450 C.3    55  LEU55       0.0001
     52  N        -62.5140  -97.9300  277.3460 N.3    58  ALA58      -0.1231
     53  CA       -63.1910  -96.6820  277.0140 C.3    58  ALA58       0.1694
     54  C        -62.6330  -95.5230  277.8330 C.2    58  ALA58       0.2592
     55  O        -62.6740  -94.3700  277.4040 O.2    58  ALA58      -0.2718
     56  CB       -64.6920  -96.8180  277.2350 C.3    58  ALA58       0.0304
     57  N        -62.1120  -95.8370  279.0150 N.am   59  GLY59      -0.1957
     58  CA       -61.5390  -94.8300  279.8890 C.3    59  GLY59       0.1869
     59  C        -60.2050  -94.3110  279.3870 C.2    59  GLY59       0.2309
     60  O        -59.9390  -93.1100  279.4420 O.2    59  GLY59      -0.2863
     61  N        -59.3030  -94.2590  276.3540 N.3    61  ILE61      -0.1231
     62  CA       -59.5780  -93.5530  275.1060 C.3    61  ILE61       0.1692
     63  C        -60.2870  -92.2260  275.3560 C.2    61  ILE61       0.2592
     64  O        -59.9210  -91.1990  274.7840 O.2    61  ILE61      -0.2718
     65  CB       -60.4410  -94.4060  274.1590 C.3    61  ILE61       0.0266
     66  CG1      -59.5850  -95.5780  273.6360 C.3    61  ILE61       0.0019
     67  CG2      -61.0150  -93.5740  273.0380 C.3    61  ILE61       0.0020
     68  CD1      -60.3730  -96.6370  272.9170 C.3    61  ILE61       0.0001
     69  N        -61.3050  -92.2580  276.2100 N.am   62  GLY62      -0.1957
     70  CA       -62.0940  -91.0770  276.5100 C.3    62  GLY62       0.1869
     71  C        -61.2790  -89.9540  277.1150 C.2    62  GLY62       0.2309
     72  O        -61.4100  -88.7960  276.7170 O.2    62  GLY62      -0.2863
@<TRIPOS>BOND
     1    68    66    1
     2    67    65    1
     3    66    65    1
     4    65    62    1
     5    64    63    2
     6    62    63    1
     7    62    61    1
     8    41    43   ar
     9    41    39   ar
    10    63    69   am
    11    43    42   ar
    12    69    70    1
    13    39    38   ar
    14    70    71    1
    15    72    71    2
    16    42    40   ar
    17    53    56    1
    18    53    52    1
    19    53    54    1
    20    55    54    2
    21    38    40   ar
    22    38    37    1
    23    54    57   am
    24    11     9   ar
    25    11    10   ar
    26     9     7   ar
    27    37    34    1
    28    36    35    2
    29    34    35    1
    30    34    33    1
    31    10     8   ar
    32    57    58    1
    33     7     6   ar
    34    35    44   am
    35    23    22    2
    36    59    60    2
    37    59    58    1
    38    24    25    1
    39    24    21    1
    40     8     6   ar
    41     6     5    1
    42    22    21    1
    43    22    27   am
    44    25    26    1
    45    21    20    1
    46    44    45    1
    47    47    46    2
    48    32    31    1
    49    28    27    1
    50    28    31    1
    51    28    29    1
    52    46    45    1
    53    45    48    1
    54    30    29    2
    55     4     3    2
    56     5     2    1
    57    26    20    1
    58     2     3    1
    59     2     1    1
    60    51    49    1
    61     3    12   am
    62    48    49    1
    63    49    50    1
    64    12    13    1
    65    13    14    1
    66    13    16    1
    67    14    15    2
    68    19    17    1
    69    17    16    1
    70    17    18    1
