@<TRIPOS>MOLECULE
tmp/4l6vN06.pdb
 96 94 0 0 0
SMALL
GASTEIGER

@<TRIPOS>ATOM
      1  N        -55.3100 -105.4680  264.8030 N.3    21  PHE21      -0.1241
      2  CA       -55.2780 -106.1530  266.0910 C.3    21  PHE21       0.1605
      3  C        -55.2270 -107.6740  265.9460 C.2    21  PHE21       0.2264
      4  O        -54.7390 -108.3720  266.8350 O.2    21  PHE21      -0.2867
      5  CB       -56.4980 -105.7580  266.9270 C.3    21  PHE21       0.0534
      6  CG       -56.3580 -104.4200  267.5980 C.ar   21  PHE21      -0.0203
      7  CD1      -55.1740 -103.7140  267.6140 C.ar   21  PHE21      -0.0042
      8  CD2      -57.4610 -103.9070  268.2690 C.ar   21  PHE21      -0.0042
      9  CE1      -55.0360 -102.4750  268.2590 C.ar   21  PHE21      -0.0003
     10  CE2      -57.3580 -102.6730  268.9230 C.ar   21  PHE21      -0.0003
     11  CZ       -56.1400 -101.9310  268.9240 C.ar   21  PHE21      -0.0000
     12  N        -53.7710 -110.2050  268.4400 N.3    25  ILE25      -0.1245
     13  CA       -54.8810 -110.5740  269.3150 C.3    25  ILE25       0.1561
     14  C        -55.5060 -111.9180  268.9500 C.2    25  ILE25       0.2260
     15  O        -55.8950 -112.6850  269.8300 O.2    25  ILE25      -0.2867
     16  CB       -55.9880 -109.5020  269.2880 C.3    25  ILE25       0.0252
     17  CG1      -55.4130 -108.1960  269.9470 C.3    25  ILE25       0.0019
     18  CG2      -57.2060 -109.9840  270.0590 C.3    25  ILE25       0.0019
     19  CD1      -56.4310 -107.1740  270.2930 C.3    25  ILE25       0.0001
     20  N        -56.6900 -115.1680  271.2410 N.3    29  PHE29      -0.1241
     21  CA       -58.1490 -115.1200  271.2670 C.3    29  PHE29       0.1605
     22  C        -58.7840 -116.3810  270.6890 C.2    29  PHE29       0.2264
     23  O        -59.5290 -116.3150  269.7110 O.2    29  PHE29      -0.2867
     24  CB       -58.6480 -113.8950  270.4990 C.3    29  PHE29       0.0534
     25  CG       -60.1510 -113.7340  270.4340 C.ar   29  PHE29      -0.0203
     26  CD1      -60.9240 -113.6580  271.5590 C.ar   29  PHE29      -0.0042
     27  CD2      -60.7860 -113.6060  269.2260 C.ar   29  PHE29      -0.0042
     28  CE1      -62.2850 -113.4320  271.5390 C.ar   29  PHE29      -0.0003
     29  CE2      -62.1810 -113.3620  269.1600 C.ar   29  PHE29      -0.0003
     30  CZ       -62.8890 -113.3190  270.3120 C.ar   29  PHE29      -0.0000
     31  N        -61.4460 -119.2570  271.3600 N.3    31  ALA31      -0.1231
     32  CA       -62.6440 -119.5010  272.1640 C.3    31  ALA31       0.1694
     33  C        -62.8860 -118.3460  273.1370 C.2    31  ALA31       0.2592
     34  O        -63.7670 -117.5130  272.9190 O.2    31  ALA31      -0.2718
     35  CB       -62.5310 -120.8320  272.9180 C.3    31  ALA31       0.0304
     36  N        -62.1040 -118.3150  274.2100 N.am   32  PHE32      -0.1962
     37  CA       -62.1400 -117.2320  275.1930 C.3    32  PHE32       0.1771
     38  C        -63.4910 -117.0820  275.9000 C.2    32  PHE32       0.2619
     39  O        -64.2160 -116.1080  275.6910 O.2    32  PHE32      -0.2715
     40  CB       -61.7550 -115.9000  274.5390 C.3    32  PHE32       0.0574
     41  CG       -61.5160 -114.7910  275.5290 C.ar   32  PHE32      -0.0200
     42  CD1      -60.4540 -114.8580  276.4160 C.ar   32  PHE32      -0.0042
     43  CD2      -62.3490 -113.6850  275.5730 C.ar   32  PHE32      -0.0042
     44  CE1      -60.2280 -113.8460  277.3290 C.ar   32  PHE32      -0.0003
     45  CE2      -62.1270 -112.6690  276.4860 C.ar   32  PHE32      -0.0003
     46  CZ       -61.0650 -112.7510  277.3640 C.ar   32  PHE32      -0.0000
     47  N        -63.8210 -118.0720  276.7230 N.am   33  TYR33      -0.1974
     48  CA       -64.8480 -117.9370  277.7530 C.3    33  TYR33       0.1639
     49  C        -64.2060 -118.1190  279.1230 C.2    33  TYR33       0.2290
     50  O        -64.2120 -119.2210  279.6720 O.2    33  TYR33      -0.2864
     51  CB       -65.9920 -118.9370  277.5610 C.3    33  TYR33       0.0560
     52  CG       -66.9540 -118.5820  276.4470 C.ar   33  TYR33      -0.0198
     53  CD1      -66.7060 -118.9440  275.1310 C.ar   33  TYR33      -0.0009
     54  CD2      -68.1230 -117.8830  276.7240 C.ar   33  TYR33      -0.0009
     55  CE1      -67.5970 -118.6150  274.1210 C.ar   33  TYR33       0.0417
     56  CE2      -69.0150 -117.5520  275.7270 C.ar   33  TYR33       0.0417
     57  CZ       -68.7490 -117.9190  274.4270 C.ar   33  TYR33       0.1957
     58  OH       -69.6420 -117.5860  273.4350 O.3    33  TYR33      -0.2866
     59  N        -68.7750 -113.0720  283.6150 N.3    47  PHE47      -0.1241
     60  CA       -68.8490 -112.4590  282.3030 C.3    47  PHE47       0.1605
     61  C        -68.8590 -110.9480  282.4820 C.2    47  PHE47       0.2264
     62  O        -68.8930 -110.2010  281.5040 O.2    47  PHE47      -0.2867
     63  CB       -70.0980 -112.9250  281.5520 C.3    47  PHE47       0.0534
     64  CG       -70.3730 -112.1420  280.2860 C.ar   47  PHE47      -0.0203
     65  CD1      -69.4470 -112.0380  279.2720 C.ar   47  PHE47      -0.0042
     66  CD2      -71.6130 -111.5030  280.1370 C.ar   47  PHE47      -0.0042
     67  CE1      -69.7350 -111.3620  278.1300 C.ar   47  PHE47      -0.0003
     68  CE2      -71.8960 -110.8570  278.9740 C.ar   47  PHE47      -0.0003
     69  CZ       -70.9840 -110.7460  277.9440 C.ar   47  PHE47      -0.0000
     70  N        -62.9300 -104.7710  282.0230 N.3    53  ILE53      -0.1245
     71  CA       -61.8300 -104.3070  281.1830 C.3    53  ILE53       0.1561
     72  C        -62.3350 -103.3820  280.0790 C.2    53  ILE53       0.2260
     73  O        -61.5800 -102.5670  279.5480 O.2    53  ILE53      -0.2867
     74  CB       -61.0600 -105.4890  280.5510 C.3    53  ILE53       0.0252
     75  CG1      -61.9890 -106.3350  279.6770 C.3    53  ILE53       0.0019
     76  CG2      -60.4380 -106.3550  281.6340 C.3    53  ILE53       0.0019
     77  CD1      -61.8700 -106.0550  278.1950 C.3    53  ILE53       0.0001
     78  N        -60.8650  -99.7940  278.8370 N.3    57  ILE57      -0.1245
     79  CA       -60.6670  -99.5030  277.4210 C.3    57  ILE57       0.1561
     80  C        -61.2410  -98.1450  277.0270 C.2    57  ILE57       0.2260
     81  O        -60.5450  -97.3120  276.4470 O.2    57  ILE57      -0.2867
     82  CB       -61.3110 -100.5860  276.5340 C.3    57  ILE57       0.0252
     83  CG1      -60.4910 -101.8850  276.6720 C.3    57  ILE57       0.0019
     84  CG2      -61.4200 -100.1300  275.0990 C.3    57  ILE57       0.0019
     85  CD1      -61.1570 -103.0940  276.0750 C.3    57  ILE57       0.0001
     86  N        -52.3800  -96.6270  278.9670 N.3    98  PHE98      -0.1241
     87  CA       -52.3640  -97.5000  280.1350 C.3    98  PHE98       0.1605
     88  C        -52.3300  -96.6550  281.4040 C.2    98  PHE98       0.2264
     89  O        -53.0550  -96.9260  282.3620 O.2    98  PHE98      -0.2867
     90  CB       -51.1700  -98.4560  280.0900 C.3    98  PHE98       0.0534
     91  CG       -51.3490  -99.6870  280.9360 C.ar   98  PHE98      -0.0203
     92  CD1      -52.0600 -100.7740  280.4560 C.ar   98  PHE98      -0.0042
     93  CD2      -50.8020  -99.7590  282.2060 C.ar   98  PHE98      -0.0042
     94  CE1      -52.2280 -101.9080  281.2290 C.ar   98  PHE98      -0.0003
     95  CE2      -50.9660 -100.8920  282.9840 C.ar   98  PHE98      -0.0003
     96  CZ       -51.6790 -101.9670  282.4930 C.ar   98  PHE98      -0.0000
@<TRIPOS>BOND
     1     1     2    1
     2     3     2    1
     3     3     4    2
     4     2     5    1
     5     5     6    1
     6     6     7   ar
     7     6     8   ar
     8     7     9   ar
     9     9    11   ar
    10     8    10   ar
    11    12    13    1
    12    10    11   ar
    13    14    13    1
    14    14    15    2
    15    29    27   ar
    16    29    30   ar
    17    27    25   ar
    18    16    13    1
    19    16    17    1
    20    16    18    1
    21    23    22    2
    22    17    19    1
    23    30    28   ar
    24    25    24    1
    25    25    26   ar
    26    24    21    1
    27    22    21    1
    28    20    21    1
    29    31    32    1
    30    28    26   ar
    31    32    35    1
    32    32    33    1
    33    34    33    2
    34    33    36   am
    35    58    57    1
    36    55    57   ar
    37    55    53   ar
    38    36    37    1
    39    57    56   ar
    40    40    37    1
    41    40    41    1
    42    84    82    1
    43    53    52   ar
    44    37    38    1
    45    41    43   ar
    46    41    42   ar
    47    43    45   ar
    48    39    38    2
    49    56    54   ar
    50    38    47   am
    51    85    83    1
    52    42    44   ar
    53    81    80    2
    54    52    54   ar
    55    52    51    1
    56    45    46   ar
    57    82    83    1
    58    82    79    1
    59    47    48    1
    60    80    79    1
    61    44    46   ar
    62    79    78    1
    63    51    48    1
    64    48    49    1
    65    69    67   ar
    66    69    68   ar
    67    67    65   ar
    68    77    75    1
    69    86    87    1
    70    68    66   ar
    71    49    50    2
    72    65    64   ar
    73    73    72    2
    74    75    74    1
    75    72    71    1
    76    90    87    1
    77    90    91    1
    78    87    88    1
    79    66    64   ar
    80    64    63    1
    81    92    91   ar
    82    92    94   ar
    83    74    71    1
    84    74    76    1
    85    91    93   ar
    86    71    70    1
    87    94    96   ar
    88    88    89    2
    89    62    61    2
    90    63    60    1
    91    93    95   ar
    92    60    61    1
    93    60    59    1
    94    96    95   ar
