@<TRIPOS>MOLECULE
tmp/4l6zA00.pdb
 170 164 0 0 0
SMALL
GASTEIGER

@<TRIPOS>ATOM
      1  N         29.1660   -5.3670   17.1730 N.3   106  ASP106     -0.1239
      2  CA        27.8380   -4.7580   17.1250 C.3   106  ASP106      0.1674
      3  C         27.6890   -3.5760   18.1060 C.2   106  ASP106      0.2266
      4  O         27.0960   -2.5550   17.7520 O.2   106  ASP106     -0.2867
      5  CB        26.7600   -5.8230   17.3430 C.3   106  ASP106      0.1410
      6  CG        26.6690   -6.7950   16.1540 C.2   106  ASP106      0.3668
      7  OD1       27.2000   -6.4690   15.0550 O.co2 106  ASP106     -0.2456
      8  OD2       26.0540   -7.8680   16.3010 O.co2 106  ASP106     -0.2456
      9  N         29.4700   -0.6940   16.5340 N.3   109  LEU109     -0.1231
     10  CA        28.6820   -0.1430   15.4050 C.3   109  LEU109      0.1693
     11  C         27.5740    0.7960   15.9100 C.2   109  LEU109      0.2591
     12  O         27.3130    1.8550   15.3100 O.2   109  LEU109     -0.2718
     13  CB        28.0810   -1.2630   14.5540 C.3   109  LEU109      0.0284
     14  CG        29.0650   -2.0210   13.6740 C.3   109  LEU109      0.0019
     15  CD1       28.4720   -3.3010   13.0920 C.3   109  LEU109      0.0001
     16  CD2       29.5730   -1.1080   12.5620 C.3   109  LEU109      0.0001
     17  N         26.9630    0.4300   17.0390 N.am  110  VAL110     -0.1980
     18  CA        25.9600    1.2970   17.6690 C.3   110  VAL110      0.1595
     19  C         26.6400    2.5650   18.2130 C.2   110  VAL110      0.2287
     20  O         26.2150    3.6770   17.9310 O.2   110  VAL110     -0.2864
     21  CB        25.1660    0.5670   18.7870 C.3   110  VAL110      0.0276
     22  CG1       24.2620    1.5600   19.5660 C.3   110  VAL110      0.0022
     23  CG2       24.3300   -0.6170   18.2030 C.3   110  VAL110      0.0022
     24  N         27.3710    5.1720   15.6450 N.3   113  ASP113     -0.1239
     25  CA        26.2250    5.9530   15.2490 C.3   113  ASP113      0.1674
     26  C         25.8340    6.8980   16.3550 C.2   113  ASP113      0.2266
     27  O         25.1970    7.9080   16.0940 O.2   113  ASP113     -0.2867
     28  CB        25.0490    5.0440   14.8430 C.3   113  ASP113      0.1410
     29  CG        25.1390    4.5580   13.3860 C.2   113  ASP113      0.3668
     30  OD1       26.0160    5.0620   12.6200 O.co2 113  ASP113     -0.2456
     31  OD2       24.3100    3.6810   12.9930 O.co2 113  ASP113     -0.2456
     32  N         10.3980   -4.5040    6.5230 N.3   205  TRP205     -0.1227
     33  CA        10.7040   -3.9500    7.8420 C.3   205  TRP205      0.1737
     34  C         12.1870   -3.9550    8.1640 C.2   205  TRP205      0.2595
     35  O         12.8790   -4.9100    7.8310 O.2   205  TRP205     -0.2718
     36  CB         9.9910   -4.7320    8.9370 C.3   205  TRP205      0.0564
     37  CG         8.5020   -4.7230    8.8410 C.ar  205  TRP205      0.0003
     38  CD1        7.7100   -5.7030    8.3300 C.ar  205  TRP205      0.0946
     39  CD2        7.6340   -3.6550    9.2210 C.ar  205  TRP205      0.0152
     40  NE1        6.3720   -5.3160    8.4000 N.ar  205  TRP205     -0.2442
     41  CE2        6.3080   -4.0580    8.9190 C.ar  205  TRP205      0.0810
     42  CE3        7.8420   -2.4120    9.8170 C.ar  205  TRP205      0.0012
     43  CZ2        5.2080   -3.2720    9.2070 C.ar  205  TRP205      0.0191
     44  CZ3        6.7450   -1.6200   10.1060 C.ar  205  TRP205      0.0001
     45  CH2        5.4460   -2.0380    9.7770 C.ar  205  TRP205      0.0015
     46  N         12.6280   -2.9080    8.8900 N.am  206  HIS206     -0.1961
     47  CA        13.9290   -2.8230    9.5150 C.3   206  HIS206      0.1787
     48  C         13.7530   -2.2190   10.9170 C.2   206  HIS206      0.2621
     49  O         13.5330   -1.0040   11.0810 O.2   206  HIS206     -0.2715
     50  CB        14.9090   -2.0270    8.6660 C.3   206  HIS206      0.0785
     51  CG        16.3150   -2.0820    9.1850 C.ar  206  HIS206      0.0821
     52  ND1       17.2130   -3.0500    8.8000 N.ar  206  HIS206     -0.2267
     53  CD2       16.9510   -1.3170   10.1100 C.ar  206  HIS206      0.1154
     54  CE1       18.3550   -2.8640    9.4500 C.ar  206  HIS206      0.1986
     55  NE2       18.2170   -1.8310   10.2690 N.ar  206  HIS206     -0.2212
     56  N         13.7520   -3.0880   11.9330 N.am  207  GLY207     -0.1940
     57  CA        13.7100   -2.6240   13.3210 C.3   207  GLY207      0.2014
     58  C         15.1110   -2.2580   13.7680 C.2   207  GLY207      0.2640
     59  O         16.0810   -2.9310   13.3730 O.2   207  GLY207     -0.2714
     60  N         15.2350   -1.2570   14.6260 N.am  208  THR208     -0.1936
     61  CA        16.5040   -0.7860   15.1330 C.3   208  THR208      0.2028
     62  C         16.5160   -0.2100   16.6010 C.2   208  THR208      0.2642
     63  O         15.5160    0.0130   17.1350 O.2   208  THR208     -0.2714
     64  CB        17.0320    0.2990   14.1610 C.3   208  THR208      0.1808
     65  OG1       18.4180    0.2450   14.1050 O.3   208  THR208     -0.2208
     66  CG2       16.6570    1.6210   14.5770 C.3   208  THR208      0.0379
     67  N         17.7130   -0.0090   17.1470 N.am  209  ASN209     -0.1971
     68  CA        17.9820    0.7310   18.3790 C.3   209  ASN209      0.1688
     69  C         17.5170    2.1840   18.1600 C.2   209  ASN209      0.2292
     70  O         17.8230    2.7880   17.1840 O.2   209  ASN209     -0.2864
     71  CB        19.4950    0.8700   18.6250 C.3   209  ASN209      0.1181
     72  CG        20.0840   -0.1850   19.5010 C.2   209  ASN209      0.2629
     73  OD1       20.2200   -0.0070   20.6760 O.2   209  ASN209     -0.2716
     74  ND2       20.4920   -1.2540   18.9150 N.am  209  ASN209     -0.0877
     75  N         20.2870    4.6720   16.9540 N.3   212  VAL212     -0.1245
     76  CA        20.8710    4.7930   15.6170 C.3   212  VAL212      0.1561
     77  C         19.8660    5.3980   14.6080 C.2   212  VAL212      0.2260
     78  O         20.1860    5.5400   13.4060 O.2   212  VAL212     -0.2867
     79  CB        21.4350    3.4460   15.1280 C.3   212  VAL212      0.0252
     80  CG1       22.2930    2.7730   16.2100 C.3   212  VAL212      0.0019
     81  CG2       20.3100    2.5090   14.6920 C.3   212  VAL212      0.0019
     82  N         23.1100    1.3580    6.0350 N.3   222  ARG222     -0.1245
     83  CA        24.4710    1.2060    5.5390 C.3   222  ARG222      0.1563
     84  C         24.9840   -0.2210    5.7870 C.2   222  ARG222      0.2260
     85  O         24.4900   -0.9400    6.6700 O.2   222  ARG222     -0.2867
     86  CB        25.3820    2.2060    6.2890 C.3   222  ARG222      0.0307
     87  CG        25.2470    3.6740    5.8600 C.3   222  ARG222      0.0489
     88  CD        25.4130    4.6720    7.0460 C.3   222  ARG222      0.2205
     89  NE        24.3760    4.4410    8.0570 N.pl3 222  ARG222     -0.0865
     90  CZ        24.5260    4.6150    9.3830 C.cat 222  ARG222      0.5346
     91  NH1       25.6570    5.0860    9.9060 N.pl3 222  ARG222      0.1354
     92  NH2       23.5400    4.2760   10.2010 N.pl3 222  ARG222      0.1354
     93  N         28.3750   -1.6260    7.0300 N.3   224  MET224     -0.1245
     94  CA        29.5740   -1.0920    7.6620 C.3   224  MET224      0.1570
     95  C         30.6410   -2.1690    7.6670 C.2   224  MET224      0.2261
     96  O         30.3150   -3.3700    7.6870 O.2   224  MET224     -0.2867
     97  CB        29.2570   -0.6380    9.0940 C.3   224  MET224      0.0387
     98  CG        28.1780    0.4560    9.2050 C.3   224  MET224      0.0595
     99  SD        28.6410    1.9270    8.2750 S.3   224  MET224     -0.1393
    100  CE        30.1470    2.4460    9.1060 C.3   224  MET224      0.0692
    101  N         30.1760   -5.3210   10.0820 N.3   227  SER227     -0.1217
    102  CA        28.7910   -5.7820   10.2360 C.3   227  SER227      0.1889
    103  C         28.6570   -7.2200    9.7090 C.2   227  SER227      0.2288
    104  O         29.4060   -7.6590    8.8510 O.2   227  SER227     -0.2866
    105  CB        27.8090   -4.8690    9.5310 C.3   227  SER227      0.2089
    106  OG        28.0110   -4.9110    8.1560 O.3   227  SER227     -0.2183
    107  N         19.8280   -6.0820    6.3910 N.3   236  TYR236     -0.1227
    108  CA        18.8510   -7.0780    6.7770 C.3   236  TYR236      0.1736
    109  C         17.4840   -6.4480    6.9220 C.2   236  TYR236      0.2595
    110  O         17.3230   -5.3760    7.5340 O.2   236  TYR236     -0.2718
    111  CB        19.2190   -7.6940    8.1390 C.3   236  TYR236      0.0548
    112  CG        20.4510   -8.6180    8.1330 C.ar  236  TYR236     -0.0200
    113  CD1       20.2900   -9.9840    8.2310 C.ar  236  TYR236     -0.0009
    114  CD2       21.7490   -8.1180    8.0580 C.ar  236  TYR236     -0.0009
    115  CE1       21.3610  -10.8340    8.2460 C.ar  236  TYR236      0.0417
    116  CE2       22.8580   -8.9910    8.0560 C.ar  236  TYR236      0.0417
    117  CZ        22.6320  -10.3500    8.1530 C.ar  236  TYR236      0.1957
    118  OH        23.6430  -11.2820    8.1260 O.3   236  TYR236     -0.2866
    119  N         16.5120   -7.1640    6.3670 N.am  237  PHE237     -0.1962
    120  CA        15.1150   -6.8080    6.4420 C.3   237  PHE237      0.1771
    121  C         14.2550   -8.0290    6.7210 C.2   237  PHE237      0.2619
    122  O         14.6450   -9.1840    6.4900 O.2   237  PHE237     -0.2715
    123  CB        14.6420   -6.2200    5.1090 C.3   237  PHE237      0.0574
    124  CG        15.3840   -5.0020    4.6440 C.ar  237  PHE237     -0.0200
    125  CD1       14.9080   -3.7270    4.9410 C.ar  237  PHE237     -0.0042
    126  CD2       16.5170   -5.1150    3.8580 C.ar  237  PHE237     -0.0042
    127  CE1       15.5720   -2.5960    4.4790 C.ar  237  PHE237     -0.0003
    128  CE2       17.1790   -3.9930    3.3900 C.ar  237  PHE237     -0.0003
    129  CZ        16.7100   -2.7220    3.6810 C.ar  237  PHE237     -0.0000
    130  N         13.0300   -7.7760    7.1440 N.am  238  ALA238     -0.1977
    131  CA        12.0620   -8.8550    7.3430 C.3   238  ALA238      0.1597
    132  C         10.7190   -8.5090    6.7090 C.2   238  ALA238      0.2287
    133  O         10.2900   -7.3210    6.7060 O.2   238  ALA238     -0.2864
    134  CB        11.8790   -9.0760    8.8060 C.3   238  ALA238      0.0319
    135  N          9.5460  -10.3750   13.4050 N.3   243  LYS243     -0.1231
    136  CA        10.9960  -10.5990   13.3020 C.3   243  LYS243      0.1693
    137  C         11.7970   -9.2920   13.5260 C.2   243  LYS243      0.2592
    138  O         12.7350   -9.2410   14.3260 O.2   243  LYS243     -0.2718
    139  CB        11.3440  -11.2000   11.9190 C.3   243  LYS243      0.0285
    140  CG        12.8290  -11.3750   11.6360 C.3   243  LYS243      0.0035
    141  CD        13.4350  -12.4470   12.5350 C.3   243  LYS243      0.0206
    142  CE        14.9410  -12.5250   12.4060 C.3   243  LYS243      0.1093
    143  NZ        15.5840  -13.3740   13.4950 N.3   243  LYS243     -0.1314
    144  N         11.4320   -8.2370   12.8040 N.am  244  SER244     -0.1952
    145  CA        12.0950   -6.9570   12.9680 C.3   244  SER244      0.1924
    146  C         11.8840   -6.3420   14.3330 C.2   244  SER244      0.2314
    147  O         12.7550   -5.6390   14.8200 O.2   244  SER244     -0.2863
    148  CB        11.6340   -5.9770   11.8970 C.3   244  SER244      0.2116
    149  OG        12.2270   -6.2740   10.6580 O.3   244  SER244     -0.2180
    150  N         14.4810   -6.6810   17.1280 N.3   247  TYR247     -0.1241
    151  CA        15.6920   -5.8340   17.1090 C.3   247  TYR247      0.1605
    152  C         15.4220   -4.4090   17.5270 C.2   247  TYR247      0.2264
    153  O         16.3150   -3.5840   17.4530 O.2   247  TYR247     -0.2867
    154  CB        16.3660   -5.8490   15.7270 C.3   247  TYR247      0.0534
    155  CG        16.6170   -7.2400   15.2420 C.ar  247  TYR247     -0.0201
    156  CD1       17.8480   -7.8770   15.4890 C.ar  247  TYR247     -0.0009
    157  CD2       15.6300   -7.9490   14.5740 C.ar  247  TYR247     -0.0009
    158  CE1       18.0990   -9.1750   15.0520 C.ar  247  TYR247      0.0417
    159  CE2       15.8630   -9.2900   14.1470 C.ar  247  TYR247      0.0417
    160  CZ        17.1150   -9.8770   14.3870 C.ar  247  TYR247      0.1957
    161  OH        17.3590  -11.1680   13.9600 O.3   247  TYR247     -0.2866
    162  N         14.7290  -13.6750    6.3430 N.3   336  GLU336     -0.1245
    163  CA        15.6100  -12.5350    6.3630 C.3   336  GLU336      0.1567
    164  C         15.9380  -12.2020    4.9400 C.2   336  GLU336      0.2260
    165  O         16.4940  -13.0430    4.2220 O.2   336  GLU336     -0.2867
    166  CB        16.8840  -12.8060    7.1790 C.3   336  GLU336      0.0388
    167  CG        16.5340  -13.3420    8.6200 C.3   336  GLU336      0.1160
    168  CD        17.7210  -13.4380    9.5740 C.2   336  GLU336      0.3649
    169  OE1       18.8370  -12.9360    9.2930 O.co2 336  GLU336     -0.2457
    170  OE2       17.5130  -13.9850   10.6550 O.co2 336  GLU336     -0.2457
@<TRIPOS>BOND
     1   128   129   ar
     2   128   126   ar
     3   129   127   ar
     4   126   124   ar
     5   165   164    2
     6   127   125   ar
     7   124   125   ar
     8   124   123    1
     9   164   163    1
    10   123   120    1
    11    83    84    1
    12    83    82    1
    13    83    86    1
    14    84    85    2
    15    87    86    1
    16    87    88    1
    17   162   163    1
    18   163   166    1
    19   119   120    1
    20   119   109   am
    21   107   108    1
    22   120   121    1
    23   122   121    2
    24    32    33    1
    25   133   132    2
    26   132   131    1
    27   121   130   am
    28   108   109    1
    29   108   111    1
    30   109   110    2
    31    93    94    1
    32    88    89    1
    33   130   131    1
    34   166   167    1
    35   131   134    1
    36    94    95    1
    37    94    97    1
    38    95    96    2
    39    35    34    2
    40    33    34    1
    41    33    36    1
    42   116   114   ar
    43   116   117   ar
    44    89    90    2
    45   114   112   ar
    46   118   117    1
    47   112   111    1
    48   112   113   ar
    49   117   115   ar
    50   106   105    1
    51    34    46   am
    52   113   115   ar
    53    99   100    1
    54    99    98    1
    55    38    40   ar
    56    38    37   ar
    57    40    41   ar
    58   167   168    1
    59    50    51    1
    60    50    47    1
    61    52    51   ar
    62    52    54   ar
    63    37    36    1
    64    37    39   ar
    65   104   103    2
    66    46    47    1
    67    41    43   ar
    68    41    39   ar
    69    97    98    1
    70    51    53   ar
    71    43    45   ar
    72    39    42   ar
    73   169   168   ar
    74    90    91    1
    75    90    92    1
    76    54    55   ar
    77    47    48    1
    78   105   102    1
    79   168   170   ar
    80   103   102    1
    81    45    44   ar
    82    42    44   ar
    83   101   102    1
    84    53    55   ar
    85   149   148    1
    86    48    49    2
    87    48    56   am
    88   140   139    1
    89   140   141    1
    90   148   145    1
    91   139   136    1
    92    56    57    1
    93   142   141    1
    94   142   143    1
    95    16    14    1
    96    30    29   ar
    97   144   145    1
    98   144   137   am
    99   145   146    1
   100    31    29   ar
   101    15    14    1
   102   136   135    1
   103   136   137    1
   104    57    58    1
   105    59    58    2
   106    29    28    1
   107    78    77    2
   108   137   138    2
   109    14    13    1
   110    58    60   am
   111   161   160    1
   112    65    64    1
   113   159   160   ar
   114   159   157   ar
   115    64    66    1
   116    64    61    1
   117   146   147    2
   118   160   158   ar
   119    13    10    1
   120   157   155   ar
   121    77    76    1
   122    60    61    1
   123    81    79    1
   124    28    25    1
   125   158   156   ar
   126     7     6   ar
   127    79    76    1
   128    79    80    1
   129    61    62    1
   130   155   156   ar
   131   155   154    1
   132    25    24    1
   133    25    26    1
   134    12    11    2
   135    10    11    1
   136    10     9    1
   137    76    75    1
   138   154   151    1
   139    11    17   am
   140    27    26    2
   141     6     8   ar
   142     6     5    1
   143    62    63    2
   144    62    67   am
   145    17    18    1
   146   151   150    1
   147   151   152    1
   148     2     1    1
   149     2     5    1
   150     2     3    1
   151    67    68    1
   152    70    69    2
   153   153   152    2
   154    18    19    1
   155    18    21    1
   156     4     3    2
   157    20    19    2
   158    69    68    1
   159    23    21    1
   160    68    71    1
   161    71    72    1
   162    21    22    1
   163    74    72   am
   164    72    73    2
