@<TRIPOS>MOLECULE
tmp/4l70A00.pdb
 170 164 0 0 0
SMALL
GASTEIGER

@<TRIPOS>ATOM
      1  N         29.0470   -5.3010   16.9230 N.3   106  ASP106     -0.1239
      2  CA        27.7170   -4.6960   16.9080 C.3   106  ASP106      0.1674
      3  C         27.5240   -3.5610   17.9200 C.2   106  ASP106      0.2266
      4  O         26.9670   -2.5080   17.5720 O.2   106  ASP106     -0.2867
      5  CB        26.6350   -5.7800   17.0840 C.3   106  ASP106      0.1410
      6  CG        26.5090   -6.6800   15.8500 C.2   106  ASP106      0.3668
      7  OD1       27.1840   -6.4060   14.8190 O.co2 106  ASP106     -0.2456
      8  OD2       25.7390   -7.6740   15.8990 O.co2 106  ASP106     -0.2456
      9  N         29.3950   -0.6800   16.4760 N.3   109  LEU109     -0.1231
     10  CA        28.6320   -0.0580   15.3620 C.3   109  LEU109      0.1693
     11  C         27.5300    0.8990   15.8590 C.2   109  LEU109      0.2591
     12  O         27.3000    2.0220   15.2800 O.2   109  LEU109     -0.2718
     13  CB        28.0310   -1.1120   14.4300 C.3   109  LEU109      0.0284
     14  CG        28.9880   -1.9030   13.5120 C.3   109  LEU109      0.0019
     15  CD1       28.3500   -3.1340   12.9160 C.3   109  LEU109      0.0001
     16  CD2       29.5710   -0.9720   12.4360 C.3   109  LEU109      0.0001
     17  N         26.8390    0.4700   16.9120 N.am  110  VAL110     -0.1980
     18  CA        25.8610    1.3300   17.5900 C.3   110  VAL110      0.1595
     19  C         26.5790    2.5520   18.1730 C.2   110  VAL110      0.2287
     20  O         26.1590    3.6580   17.9600 O.2   110  VAL110     -0.2864
     21  CB        25.0790    0.5750   18.7010 C.3   110  VAL110      0.0276
     22  CG1       24.1570    1.5350   19.5080 C.3   110  VAL110      0.0022
     23  CG2       24.2430   -0.5790   18.1220 C.3   110  VAL110      0.0022
     24  N         27.4020    5.2030   15.6930 N.3   113  ASP113     -0.1239
     25  CA        26.2760    6.0160   15.2930 C.3   113  ASP113      0.1674
     26  C         25.8470    7.0050   16.3790 C.2   113  ASP113      0.2266
     27  O         25.2880    8.0510   16.0790 O.2   113  ASP113     -0.2867
     28  CB        25.0730    5.1340   14.8820 C.3   113  ASP113      0.1410
     29  CG        25.1850    4.6260   13.4450 C.2   113  ASP113      0.3668
     30  OD1       26.2260    4.9150   12.7430 O.co2 113  ASP113     -0.2456
     31  OD2       24.2210    3.9570   13.0020 O.co2 113  ASP113     -0.2456
     32  N         10.3850   -4.4500    6.5700 N.3   205  TRP205     -0.1227
     33  CA        10.6460   -3.8960    7.8890 C.3   205  TRP205      0.1737
     34  C         12.1220   -3.8860    8.1690 C.2   205  TRP205      0.2595
     35  O         12.8450   -4.8190    7.7730 O.2   205  TRP205     -0.2718
     36  CB         9.9900   -4.7410    8.9750 C.3   205  TRP205      0.0564
     37  CG         8.4840   -4.7610    8.8510 C.ar  205  TRP205      0.0003
     38  CD1        7.7120   -5.7390    8.3110 C.ar  205  TRP205      0.0946
     39  CD2        7.5920   -3.7080    9.2220 C.ar  205  TRP205      0.0152
     40  NE1        6.3820   -5.3970    8.3910 N.ar  205  TRP205     -0.2442
     41  CE2        6.2810   -4.1340    8.9000 C.ar  205  TRP205      0.0810
     42  CE3        7.7680   -2.4740    9.8240 C.ar  205  TRP205      0.0012
     43  CZ2        5.1600   -3.3590    9.1530 C.ar  205  TRP205      0.0191
     44  CZ3        6.6520   -1.6900   10.0630 C.ar  205  TRP205      0.0001
     45  CH2        5.3700   -2.1330    9.7420 C.ar  205  TRP205      0.0015
     46  N         12.5690   -2.8390    8.8640 N.am  206  HIS206     -0.1961
     47  CA        13.8910   -2.7950    9.4540 C.3   206  HIS206      0.1787
     48  C         13.7320   -2.1950   10.8750 C.2   206  HIS206      0.2621
     49  O         13.3850   -1.0290   11.0350 O.2   206  HIS206     -0.2715
     50  CB        14.8400   -1.9780    8.5810 C.3   206  HIS206      0.0785
     51  CG        16.2660   -1.9850    9.0670 C.ar  206  HIS206      0.0821
     52  ND1       17.1510   -2.9830    8.7510 N.ar  206  HIS206     -0.2267
     53  CD2       16.9620   -1.0940    9.8280 C.ar  206  HIS206      0.1154
     54  CE1       18.3220   -2.7310    9.3210 C.ar  206  HIS206      0.1986
     55  NE2       18.2260   -1.6040   10.0060 N.ar  206  HIS206     -0.2212
     56  N         13.8900   -3.0150   11.9210 N.am  207  GLY207     -0.1940
     57  CA        13.7940   -2.5130   13.2890 C.3   207  GLY207      0.2014
     58  C         15.1820   -2.2040   13.7960 C.2   207  GLY207      0.2640
     59  O         16.1040   -2.9360   13.4710 O.2   207  GLY207     -0.2714
     60  N         15.3760   -1.1670   14.6020 N.am  208  THR208     -0.1936
     61  CA        16.6640   -0.8400   15.2330 C.3   208  THR208      0.2028
     62  C         16.5870   -0.2250   16.6630 C.2   208  THR208      0.2642
     63  O         15.5820    0.0680   17.1050 O.2   208  THR208     -0.2714
     64  CB        17.5010    0.1910   14.4290 C.3   208  THR208      0.1808
     65  OG1       16.9100    1.4590   14.5410 O.3   208  THR208     -0.2208
     66  CG2       17.6520   -0.1520   12.9860 C.3   208  THR208      0.0379
     67  N         17.7380   -0.0440   17.2830 N.am  209  ASN209     -0.1971
     68  CA        17.9680    0.7630   18.4560 C.3   209  ASN209      0.1688
     69  C         17.5070    2.1970   18.1920 C.2   209  ASN209      0.2292
     70  O         17.8090    2.7510   17.1890 O.2   209  ASN209     -0.2864
     71  CB        19.4770    0.8820   18.7130 C.3   209  ASN209      0.1181
     72  CG        20.0250   -0.1700   19.6170 C.2   209  ASN209      0.2629
     73  OD1       20.1130    0.0180   20.7900 O.2   209  ASN209     -0.2716
     74  ND2       20.4450   -1.2540   19.0530 N.am  209  ASN209     -0.0877
     75  N         20.2850    4.6600   16.9540 N.3   212  VAL212     -0.1245
     76  CA        20.8430    4.7520   15.6000 C.3   212  VAL212      0.1561
     77  C         19.8670    5.4080   14.6110 C.2   212  VAL212      0.2260
     78  O         20.1950    5.5570   13.4150 O.2   212  VAL212     -0.2867
     79  CB        21.3600    3.3730   15.0980 C.3   212  VAL212      0.0252
     80  CG1       22.2260    2.6870   16.1900 C.3   212  VAL212      0.0019
     81  CG2       20.2180    2.4760   14.6460 C.3   212  VAL212      0.0019
     82  N         22.9920    1.2580    6.0260 N.3   222  ARG222     -0.1245
     83  CA        24.3810    1.1740    5.5790 C.3   222  ARG222      0.1563
     84  C         24.9060   -0.2220    5.8490 C.2   222  ARG222      0.2260
     85  O         24.3820   -0.9360    6.7060 O.2   222  ARG222     -0.2867
     86  CB        25.2300    2.2020    6.3720 C.3   222  ARG222      0.0307
     87  CG        25.0650    3.6610    5.9160 C.3   222  ARG222      0.0489
     88  CD        25.2650    4.6650    7.1000 C.3   222  ARG222      0.2205
     89  NE        24.2390    4.3860    8.1280 N.pl3 222  ARG222     -0.0865
     90  CZ        24.4200    4.4590    9.4500 C.cat 222  ARG222      0.5346
     91  NH1       25.5590    4.9080    9.9710 N.pl3 222  ARG222      0.1354
     92  NH2       23.4410    4.0820   10.2730 N.pl3 222  ARG222      0.1354
     93  N         28.5340   -1.7210    6.9260 N.3   224  MET224     -0.1245
     94  CA        29.8170   -1.2620    7.4680 C.3   224  MET224      0.1570
     95  C         30.8030   -2.4260    7.4450 C.2   224  MET224      0.2261
     96  O         30.3880   -3.6090    7.3850 O.2   224  MET224     -0.2867
     97  CB        29.6000   -0.6870    8.8740 C.3   224  MET224      0.0387
     98  CG        28.2410    0.1270    9.0410 C.3   224  MET224      0.0595
     99  SD        28.3040    1.8310    8.4530 S.3   224  MET224     -0.1393
    100  CE        29.9860    2.2760    8.9230 C.3   224  MET224      0.0692
    101  N         30.0020   -5.2700    9.7920 N.3   227  SER227     -0.1217
    102  CA        28.6050   -5.7720    9.7370 C.3   227  SER227      0.1889
    103  C         28.6470   -7.2630    9.5110 C.2   227  SER227      0.2288
    104  O         29.4440   -7.7120    8.7410 O.2   227  SER227     -0.2866
    105  CB        27.8580   -5.2240    8.5110 C.3   227  SER227      0.2089
    106  OG        27.6180   -3.8620    8.6040 O.3   227  SER227     -0.2183
    107  N         19.8130   -6.0920    6.5360 N.3   236  TYR236     -0.1227
    108  CA        18.8080   -7.0700    6.8940 C.3   236  TYR236      0.1736
    109  C         17.4340   -6.4410    7.0300 C.2   236  TYR236      0.2595
    110  O         17.2650   -5.4360    7.7220 O.2   236  TYR236     -0.2718
    111  CB        19.1500   -7.6800    8.2890 C.3   236  TYR236      0.0548
    112  CG        20.3780   -8.5860    8.2900 C.ar  236  TYR236     -0.0200
    113  CD1       20.2210   -9.9730    8.3480 C.ar  236  TYR236     -0.0009
    114  CD2       21.6560   -8.0760    8.2760 C.ar  236  TYR236     -0.0009
    115  CE1       21.2740  -10.8160    8.3560 C.ar  236  TYR236      0.0417
    116  CE2       22.7830   -8.9410    8.2520 C.ar  236  TYR236      0.0417
    117  CZ        22.5700  -10.3120    8.2920 C.ar  236  TYR236      0.1957
    118  OH        23.6040  -11.2410    8.2460 O.3   236  TYR236     -0.2866
    119  N         16.4650   -7.0840    6.4000 N.am  237  PHE237     -0.1962
    120  CA        15.0700   -6.7360    6.5030 C.3   237  PHE237      0.1771
    121  C         14.2530   -7.9770    6.8290 C.2   237  PHE237      0.2619
    122  O         14.7020   -9.0870    6.6640 O.2   237  PHE237     -0.2715
    123  CB        14.5720   -6.1640    5.1820 C.3   237  PHE237      0.0574
    124  CG        15.3170   -4.9830    4.6980 C.ar  237  PHE237     -0.0200
    125  CD1       14.8760   -3.7180    4.9840 C.ar  237  PHE237     -0.0042
    126  CD2       16.4750   -5.1250    3.9370 C.ar  237  PHE237     -0.0042
    127  CE1       15.5560   -2.5980    4.5340 C.ar  237  PHE237     -0.0003
    128  CE2       17.1660   -4.0220    3.4780 C.ar  237  PHE237     -0.0003
    129  CZ        16.6910   -2.7360    3.7530 C.ar  237  PHE237     -0.0000
    130  N         13.0300   -7.7700    7.2600 N.am  238  ALA238     -0.1977
    131  CA        12.0640   -8.8470    7.4440 C.3   238  ALA238      0.1597
    132  C         10.7380   -8.4920    6.7830 C.2   238  ALA238      0.2287
    133  O         10.3200   -7.3000    6.7280 O.2   238  ALA238     -0.2864
    134  CB        11.8610   -9.0750    8.9130 C.3   238  ALA238      0.0319
    135  N          9.5180  -10.2300   13.4560 N.3   243  LYS243     -0.1231
    136  CA        10.9650  -10.4900   13.3890 C.3   243  LYS243      0.1693
    137  C         11.8020   -9.2070   13.5880 C.2   243  LYS243      0.2592
    138  O         12.7360   -9.1550   14.4020 O.2   243  LYS243     -0.2718
    139  CB        11.2910  -11.1600   12.0520 C.3   243  LYS243      0.0285
    140  CG        12.7510  -11.4270   11.8080 C.3   243  LYS243      0.0035
    141  CD        13.2650  -12.5330   12.6710 C.3   243  LYS243      0.0206
    142  CE        14.7540  -12.8030   12.4190 C.3   243  LYS243      0.1093
    143  NZ        15.3610  -13.4600   13.6380 N.3   243  LYS243     -0.1314
    144  N         11.4890   -8.1580   12.8230 N.am  244  SER244     -0.1952
    145  CA        12.1370   -6.8700   13.0000 C.3   244  SER244      0.1924
    146  C         11.9340   -6.2450   14.3770 C.2   244  SER244      0.2314
    147  O         12.8240   -5.5960   14.8870 O.2   244  SER244     -0.2863
    148  CB        11.6780   -5.8980   11.9180 C.3   244  SER244      0.2116
    149  OG        12.2830   -6.2560   10.6850 O.3   244  SER244     -0.2180
    150  N         14.4550   -6.5580   17.2120 N.3   247  TYR247     -0.1241
    151  CA        15.6740   -5.7630   17.2090 C.3   247  TYR247      0.1605
    152  C         15.4140   -4.3300   17.6680 C.2   247  TYR247      0.2264
    153  O         16.3250   -3.5300   17.6990 O.2   247  TYR247     -0.2867
    154  CB        16.3270   -5.7950   15.8210 C.3   247  TYR247      0.0534
    155  CG        16.6750   -7.1930   15.3680 C.ar  247  TYR247     -0.0201
    156  CD1       17.9040   -7.7730   15.7070 C.ar  247  TYR247     -0.0009
    157  CD2       15.7840   -7.9400   14.6570 C.ar  247  TYR247     -0.0009
    158  CE1       18.2350   -9.0820   15.3060 C.ar  247  TYR247      0.0417
    159  CE2       16.0870   -9.2610   14.2410 C.ar  247  TYR247      0.0417
    160  CZ        17.3200   -9.8080   14.5620 C.ar  247  TYR247      0.1957
    161  OH        17.5890  -11.0740   14.1500 O.3   247  TYR247     -0.2866
    162  N         14.7130  -13.6850    6.4910 N.3   336  GLU336     -0.1245
    163  CA        15.6090  -12.5250    6.5170 C.3   336  GLU336      0.1567
    164  C         15.9640  -12.1750    5.0860 C.2   336  GLU336      0.2260
    165  O         16.4600  -13.0360    4.3380 O.2   336  GLU336     -0.2867
    166  CB        16.8620  -12.7990    7.3380 C.3   336  GLU336      0.0388
    167  CG        16.5090  -13.3480    8.7360 C.3   336  GLU336      0.1160
    168  CD        17.6730  -13.4420    9.6910 C.2   336  GLU336      0.3649
    169  OE1       18.7630  -12.9040    9.4100 O.co2 336  GLU336     -0.2457
    170  OE2       17.4930  -14.1060   10.7390 O.co2 336  GLU336     -0.2457
@<TRIPOS>BOND
     1   128   129   ar
     2   128   126   ar
     3   129   127   ar
     4   126   124   ar
     5   165   164    2
     6   127   125   ar
     7   124   125   ar
     8   124   123    1
     9   164   163    1
    10   123   120    1
    11    83    84    1
    12    83    82    1
    13    83    86    1
    14    84    85    2
    15    87    86    1
    16    87    88    1
    17   119   120    1
    18   119   109   am
    19   162   163    1
    20   120   121    1
    21   163   166    1
    22   107   108    1
    23    32    33    1
    24   122   121    2
    25   133   132    2
    26   132   131    1
    27   121   130   am
    28   108   109    1
    29   108   111    1
    30    93    94    1
    31   109   110    2
    32    88    89    1
    33   130   131    1
    34   166   167    1
    35    96    95    2
    36   131   134    1
    37    95    94    1
    38    94    97    1
    39    35    34    2
    40    33    34    1
    41    33    36    1
    42    89    90    2
    43    34    46   am
    44   118   117    1
    45   116   114   ar
    46   116   117   ar
    47   114   112   ar
    48   111   112    1
    49   112   113   ar
    50   117   115   ar
    51    38    40   ar
    52    38    37   ar
    53   113   115   ar
    54    40    41   ar
    55    99   100    1
    56    99    98    1
    57   105   106    1
    58   105   102    1
    59    50    51    1
    60    50    47    1
    61   167   168    1
    62   104   103    2
    63    52    51   ar
    64    52    54   ar
    65    37    36    1
    66    37    39   ar
    67    46    47    1
    68    97    98    1
    69    41    43   ar
    70    41    39   ar
    71    51    53   ar
    72    43    45   ar
    73    39    42   ar
    74    54    55   ar
    75   169   168   ar
    76    90    91    1
    77    90    92    1
    78    47    48    1
    79   103   102    1
    80   168   170   ar
    81   102   101    1
    82    45    44   ar
    83    42    44   ar
    84    53    55   ar
    85   149   148    1
    86    48    49    2
    87    48    56   am
    88   140   139    1
    89   140   141    1
    90   148   145    1
    91    56    57    1
    92   139   136    1
    93   142   141    1
    94   142   143    1
    95    16    14    1
    96    30    29   ar
    97   144   145    1
    98   144   137   am
    99    15    14    1
   100    66    64    1
   101   145   146    1
   102    31    29   ar
   103    57    58    1
   104   136   135    1
   105   136   137    1
   106    78    77    2
   107    29    28    1
   108    59    58    2
   109    14    13    1
   110   137   138    2
   111    58    60   am
   112   161   160    1
   113   159   160   ar
   114   159   157   ar
   115   146   147    2
   116    64    65    1
   117    64    61    1
   118    13    10    1
   119   160   158   ar
   120    60    61    1
   121    77    76    1
   122    81    79    1
   123   157   155   ar
   124     7     6   ar
   125    28    25    1
   126    79    76    1
   127    79    80    1
   128    61    62    1
   129    12    11    2
   130    25    24    1
   131    25    26    1
   132   158   156   ar
   133    10    11    1
   134    10     9    1
   135   155   156   ar
   136   155   154    1
   137    76    75    1
   138   154   151    1
   139     6     8   ar
   140     6     5    1
   141    11    17   am
   142    27    26    2
   143    62    63    2
   144    62    67   am
   145     2     1    1
   146     2     5    1
   147     2     3    1
   148    17    18    1
   149    70    69    2
   150   151   150    1
   151   151   152    1
   152    67    68    1
   153     4     3    2
   154    18    19    1
   155    18    21    1
   156   152   153    2
   157    20    19    2
   158    23    21    1
   159    69    68    1
   160    68    71    1
   161    21    22    1
   162    71    72    1
   163    74    72   am
   164    72    73    2
