@<TRIPOS>MOLECULE
tmp/4l7bB00.pdb
 127 118 0 0 0
SMALL
GASTEIGER

@<TRIPOS>ATOM
      1  N         -4.7090   -2.8010  -33.4210 N.3    14  TYR14      -0.1241
      2  CA        -4.5890   -3.4890  -32.1370 C.3    14  TYR14       0.1605
      3  C         -5.9160   -4.0990  -31.6950 C.2    14  TYR14       0.2264
      4  O         -6.9530   -3.4350  -31.7130 O.2    14  TYR14      -0.2867
      5  CB        -4.0910   -2.5220  -31.0580 C.3    14  TYR14       0.0534
      6  CG        -3.9120   -3.1590  -29.6940 C.ar   14  TYR14      -0.0201
      7  CD1       -4.9570   -3.1880  -28.7730 C.ar   14  TYR14      -0.0009
      8  CD2       -2.6990   -3.7320  -29.3240 C.ar   14  TYR14      -0.0009
      9  CE1       -4.8000   -3.7700  -27.5260 C.ar   14  TYR14       0.0417
     10  CE2       -2.5320   -4.3160  -28.0780 C.ar   14  TYR14       0.0417
     11  CZ        -3.5850   -4.3350  -27.1850 C.ar   14  TYR14       0.1957
     12  OH        -3.4230   -4.9120  -25.9460 O.3    14  TYR14      -0.2866
     13  N          0.7940   -1.5720  -34.2870 N.3    43  SER43      -0.1202
     14  CA        -0.2870   -0.6720  -33.8980 C.3    43  SER43       0.2020
     15  C          0.2840    0.7300  -33.7140 C.2    43  SER43       0.2619
     16  O          1.4870    0.8940  -33.5090 O.2    43  SER43      -0.2717
     17  CB        -0.9420   -1.1450  -32.6010 C.3    43  SER43       0.2103
     18  OG         0.0060   -1.2370  -31.5510 O.3    43  SER43      -0.2182
     19  N         -0.5810    1.7370  -33.7880 N.am   44  GLY44      -0.1956
     20  CA        -0.1510    3.1310  -33.6810 C.3    44  GLY44       0.1869
     21  C          0.6480    3.6100  -34.8820 C.2    44  GLY44       0.2309
     22  O          1.4050    4.5760  -34.7840 O.2    44  GLY44      -0.2863
     23  N          4.1180    0.4580  -33.1690 N.3    60  ARG60      -0.1245
     24  CA         4.6790   -0.3990  -32.1240 C.3    60  ARG60       0.1563
     25  C          4.1410   -1.8230  -32.2490 C.2    60  ARG60       0.2260
     26  O          2.9670   -2.0220  -32.5620 O.2    60  ARG60      -0.2867
     27  CB         4.3450    0.1640  -30.7350 C.3    60  ARG60       0.0307
     28  CG         4.4510   -0.8490  -29.6000 C.3    60  ARG60       0.0489
     29  CD         4.1050   -0.2570  -28.2440 C.3    60  ARG60       0.2205
     30  NE         5.2220    0.4870  -27.6650 N.pl3  60  ARG60      -0.0865
     31  CZ         5.3730    0.7540  -26.3670 C.cat  60  ARG60       0.5346
     32  NH1        4.4790    0.3400  -25.4700 N.pl3  60  ARG60       0.1354
     33  NH2        6.4340    1.4400  -25.9560 N.pl3  60  ARG60       0.1354
     34  N          3.0310   -4.5000  -30.1080 N.3    62  ASN62      -0.1240
     35  CA         2.5770   -4.8950  -28.7770 C.3    62  ASN62       0.1653
     36  C          2.2010   -6.3800  -28.7750 C.2    62  ASN62       0.2266
     37  O          1.2870   -6.7920  -29.4920 O.2    62  ASN62      -0.2867
     38  CB         1.3760   -4.0400  -28.3480 C.3    62  ASN62       0.1155
     39  CG         1.4120   -3.6740  -26.8760 C.2    62  ASN62       0.2627
     40  OD1        2.1560   -2.7810  -26.4680 O.2    62  ASN62      -0.2716
     41  ND2        0.5950   -4.3480  -26.0740 N.am   62  ASN62      -0.0877
     42  N          6.1070    5.6110  -32.4420 N.3    94  ASN94      -0.1225
     43  CA         4.8060    5.0100  -32.1550 C.3    94  ASN94       0.1785
     44  C          3.7530    6.1040  -32.0020 C.2    94  ASN94       0.2597
     45  O          4.0540    7.1830  -31.4960 O.2    94  ASN94      -0.2718
     46  CB         4.8760    4.1660  -30.8800 C.3    94  ASN94       0.1169
     47  CG         3.5690    3.4560  -30.5730 C.2    94  ASN94       0.2627
     48  OD1        2.8430    3.0450  -31.4790 O.2    94  ASN94      -0.2716
     49  ND2        3.2650    3.3070  -29.2900 N.am   94  ASN94      -0.0877
     50  N          2.5230    5.8130  -32.4280 N.am   95  ARG95      -0.1979
     51  CA         1.4310    6.7950  -32.4440 C.3    95  ARG95       0.1597
     52  C          1.8250    7.9880  -33.3180 C.2    95  ARG95       0.2287
     53  O          1.7840    9.1450  -32.8950 O.2    95  ARG95      -0.2864
     54  CB         1.0430    7.2100  -31.0160 C.3    95  ARG95       0.0334
     55  CG         0.4760    6.0520  -30.2040 C.3    95  ARG95       0.0492
     56  CD         0.9230    6.0310  -28.7490 C.3    95  ARG95       0.2205
     57  NE        -0.1100    6.5360  -27.8420 N.pl3  95  ARG95      -0.0865
     58  CZ        -0.3200    6.1020  -26.5970 C.cat  95  ARG95       0.5346
     59  NH1        0.4190    5.1280  -26.0680 N.pl3  95  ARG95       0.1354
     60  NH2       -1.2920    6.6430  -25.8700 N.pl3  95  ARG95       0.1354
     61  N          0.2100   10.6730  -30.9000 N.3   142  GLY142     -0.1225
     62  CA        -1.2000   10.5370  -31.2570 C.3   142  GLY142      0.1811
     63  C         -1.6650   11.7340  -32.0670 C.2   142  GLY142      0.2280
     64  O         -2.8290   12.1300  -31.9980 O.2   142  GLY142     -0.2866
     65  N         -6.3650   13.7770  -28.5500 N.3   188  SER188     -0.1202
     66  CA        -5.2110   12.9310  -28.8480 C.3   188  SER188      0.2020
     67  C         -5.7080   11.6520  -29.5170 C.2   188  SER188      0.2619
     68  O         -6.6740   11.0410  -29.0560 O.2   188  SER188     -0.2717
     69  CB        -4.4340   12.5970  -27.5730 C.3   188  SER188      0.2103
     70  OG        -5.2080   11.8060  -26.6880 O.3   188  SER188     -0.2182
     71  N         -5.0510   11.2570  -30.6040 N.am  189  GLY189     -0.1956
     72  CA        -5.4600   10.0820  -31.3720 C.3   189  GLY189      0.1869
     73  C         -6.7360   10.3060  -32.1610 C.2   189  GLY189      0.2309
     74  O         -7.5520    9.3940  -32.3020 O.2   189  GLY189     -0.2863
     75  N        -13.5060    9.1550  -24.5800 N.3   210  GLN210     -0.1245
     76  CA       -13.3170    9.0950  -26.0270 C.3   210  GLN210      0.1566
     77  C        -14.4350    9.8970  -26.6810 C.2   210  GLN210      0.2260
     78  O        -15.5730    9.8820  -26.2090 O.2   210  GLN210     -0.2867
     79  CB       -13.3210    7.6480  -26.5300 C.3   210  GLN210      0.0367
     80  CG       -12.0350    6.8830  -26.2430 C.3   210  GLN210      0.0905
     81  CD       -11.8570    6.5200  -24.7790 C.2   210  GLN210      0.2608
     82  OE1      -12.8280    6.3300  -24.0480 O.2   210  GLN210     -0.2717
     83  NE2      -10.6050    6.4120  -24.3480 N.am  210  GLN210     -0.0878
     84  N        -11.3790    6.7780  -30.3800 N.3   235  SER235     -0.1202
     85  CA       -10.0300    7.3340  -30.4580 C.3   235  SER235      0.2020
     86  C         -9.1290    6.3230  -31.1620 C.2   235  SER235      0.2618
     87  O         -9.4900    5.1510  -31.2920 O.2   235  SER235     -0.2717
     88  CB        -9.4890    7.6400  -29.0610 C.3   235  SER235      0.2103
     89  OG        -9.3920    6.4620  -28.2780 O.3   235  SER235     -0.2182
     90  N         -7.9600    6.7800  -31.6080 N.am  236  ALA236     -0.1979
     91  CA        -7.0290    5.9500  -32.3810 C.3   236  ALA236      0.1597
     92  C         -7.7070    5.3610  -33.6210 C.2   236  ALA236      0.2287
     93  O         -7.5010    4.1950  -33.9650 O.2   236  ALA236     -0.2864
     94  CB        -6.4420    4.8470  -31.5070 C.3   236  ALA236      0.0319
     95  N        -11.1360    2.9130  -30.6660 N.3   252  TYR252     -0.1241
     96  CA       -11.2530    2.4560  -29.2850 C.3   252  TYR252      0.1605
     97  C        -12.1470    3.4360  -28.5290 C.2   252  TYR252      0.2264
     98  O        -11.9360    4.6450  -28.6050 O.2   252  TYR252     -0.2867
     99  CB        -9.8600    2.3900  -28.6530 C.3   252  TYR252      0.0534
    100  CG        -9.8410    2.0860  -27.1710 C.ar  252  TYR252     -0.0201
    101  CD1      -10.2100    0.8330  -26.6930 C.ar  252  TYR252     -0.0009
    102  CD2       -9.4350    3.0480  -26.2500 C.ar  252  TYR252     -0.0009
    103  CE1      -10.1870    0.5490  -25.3370 C.ar  252  TYR252      0.0417
    104  CE2       -9.4070    2.7740  -24.8930 C.ar  252  TYR252      0.0417
    105  CZ        -9.7830    1.5250  -24.4410 C.ar  252  TYR252      0.1957
    106  OH        -9.7560    1.2580  -23.0910 O.3   252  TYR252     -0.2866
    107  N        -13.4410   -2.4700  -28.8820 N.3   257  PHE257     -0.1241
    108  CA       -12.6940   -2.1020  -30.0810 C.3   257  PHE257      0.1605
    109  C        -13.6480   -2.1690  -31.2650 C.2   257  PHE257      0.2264
    110  O        -14.2100   -3.2250  -31.5570 O.2   257  PHE257     -0.2867
    111  CB       -11.5120   -3.0470  -30.2890 C.3   257  PHE257      0.0534
    112  CG       -10.4960   -2.9920  -29.1840 C.ar  257  PHE257     -0.0203
    113  CD1      -10.6650   -3.7480  -28.0310 C.ar  257  PHE257     -0.0042
    114  CD2       -9.3760   -2.1800  -29.2920 C.ar  257  PHE257     -0.0042
    115  CE1       -9.7330   -3.6970  -27.0080 C.ar  257  PHE257     -0.0003
    116  CE2       -8.4400   -2.1250  -28.2720 C.ar  257  PHE257     -0.0003
    117  CZ        -8.6190   -2.8860  -27.1280 C.ar  257  PHE257     -0.0000
    118  N         -8.1440   -1.0310  -33.1900 N.3   282  SER282     -0.1202
    119  CA        -7.7880    0.3780  -33.0160 C.3   282  SER282      0.2020
    120  C         -6.3370    0.6200  -33.4230 C.2   282  SER282      0.2619
    121  O         -5.5330   -0.3110  -33.4600 O.2   282  SER282     -0.2717
    122  CB        -7.9870    0.7990  -31.5590 C.3   282  SER282      0.2103
    123  OG        -7.0760    0.1290  -30.7040 O.3   282  SER282     -0.2182
    124  N         -6.0100    1.8740  -33.7220 N.am  283  GLY283     -0.1956
    125  CA        -4.6450    2.2540  -34.0810 C.3   283  GLY283      0.1869
    126  C         -4.2160    1.7700  -35.4540 C.2   283  GLY283      0.2309
    127  O         -3.0580    1.4010  -35.6520 O.2   283  GLY283     -0.2863
@<TRIPOS>BOND
     1   127   126    2
     2   126   125    1
     3    21    22    2
     4    21    20    1
     5    13    14    1
     6   125   124    1
     7    93    92    2
     8    14    15    1
     9    14    17    1
    10    19    15   am
    11    19    20    1
    12   124   120   am
    13    15    16    2
    14    92    91    1
    15   121   120    2
    16   120   119    1
    17     1     2    1
    18    52    53    2
    19    52    51    1
    20   118   119    1
    21    23    24    1
    22   119   122    1
    23    17    18    1
    24    26    25    2
    25    51    50    1
    26    51    54    1
    27    42    43    1
    28    50    44   am
    29    91    90    1
    30    91    94    1
    31    74    73    2
    32    25    24    1
    33    73    72    1
    34    43    44    1
    35    43    46    1
    36     2     3    1
    37     2     5    1
    38    24    27    1
    39    63    64    2
    40    63    62    1
    41    44    45    2
    42     4     3    2
    43    90    86   am
    44   122   123    1
    45   110   109    2
    46    48    47    2
    47    72    71    1
    48    87    86    2
    49   109   108    1
    50    62    61    1
    51    86    85    1
    52     5     6    1
    53    54    55    1
    54    46    47    1
    55    27    28    1
    56    95    96    1
    57    71    67   am
    58    47    49   am
    59    85    84    1
    60    85    88    1
    61   111   108    1
    62   111   112    1
    63    55    56    1
    64    34    35    1
    65   108   107    1
    66     6     8   ar
    67     6     7   ar
    68    28    29    1
    69    67    68    2
    70    67    66    1
    71    37    36    2
    72     8    10   ar
    73   114   112   ar
    74   114   116   ar
    75    96    99    1
    76    96    97    1
    77   112   113   ar
    78    88    89    1
    79    66    65    1
    80    66    69    1
    81    35    36    1
    82    35    38    1
    83     7     9   ar
    84    56    57    1
    85    99   100    1
    86    98    97    2
    87    38    39    1
    88   116   117   ar
    89    29    30    1
    90    10    11   ar
    91   113   115   ar
    92    57    58    2
    93    30    31    2
    94    69    70    1
    95     9    11   ar
    96    11    12    1
    97   100   101   ar
    98   100   102   ar
    99   117   115   ar
   100    39    40    2
   101    39    41   am
   102   101   103   ar
   103    77    78    2
   104    77    76    1
   105    58    59    1
   106    58    60    1
   107    79    80    1
   108    79    76    1
   109    31    33    1
   110    31    32    1
   111   102   104   ar
   112    80    81    1
   113    76    75    1
   114   103   105   ar
   115   104   105   ar
   116    81    83   am
   117    81    82    2
   118   105   106    1
