@<TRIPOS>MOLECULE
tmp/4l7cB00.pdb
 127 118 0 0 0
SMALL
GASTEIGER

@<TRIPOS>ATOM
      1  N        -52.5720   45.0840   -6.1170 N.3     9  TYR9       -0.1241
      2  CA       -51.2920   45.7470   -5.8720 C.3     9  TYR9        0.1605
      3  C        -51.0200   46.8680   -6.8700 C.2     9  TYR9        0.2264
      4  O        -51.2070   46.7040   -8.0740 O.2     9  TYR9       -0.2867
      5  CB       -50.1440   44.7370   -5.9360 C.3     9  TYR9        0.0534
      6  CG       -48.7830   45.3400   -5.6530 C.ar    9  TYR9       -0.0201
      7  CD1      -48.0260   45.9120   -6.6720 C.ar    9  TYR9       -0.0009
      8  CD2      -48.2510   45.3340   -4.3670 C.ar    9  TYR9       -0.0009
      9  CE1      -46.7810   46.4650   -6.4190 C.ar    9  TYR9        0.0417
     10  CE2      -47.0060   45.8840   -4.1040 C.ar    9  TYR9        0.0417
     11  CZ       -46.2750   46.4480   -5.1330 C.ar    9  TYR9        0.1957
     12  OH       -45.0390   46.9940   -4.8760 O.3     9  TYR9       -0.2866
     13  N        -52.5340   41.7560   -1.5680 N.3    38  SER38      -0.1202
     14  CA       -52.5140   41.2770   -2.9450 C.3    38  SER38       0.2020
     15  C        -52.2670   39.7730   -2.9340 C.2    38  SER38       0.2619
     16  O        -51.8800   39.2090   -1.9080 O.2    38  SER38      -0.2717
     17  CB       -51.4130   41.9800   -3.7370 C.3    38  SER38       0.2103
     18  OG       -50.1410   41.7630   -3.1500 O.3    38  SER38      -0.2182
     19  N        -52.4880   39.1280   -4.0750 N.am   39  GLY39      -0.1956
     20  CA       -52.3300   37.6790   -4.1840 C.3    39  GLY39       0.1869
     21  C        -53.4410   36.8920   -3.5110 C.2    39  GLY39       0.2309
     22  O        -53.2960   35.6930   -3.2680 O.2    39  GLY39      -0.2863
     23  N        -51.2810   38.7640    0.7620 N.3    55  ARG55      -0.1245
     24  CA       -50.0520   39.3030    1.3460 C.3    55  ARG55       0.1563
     25  C        -50.0760   40.8300    1.3360 C.2    55  ARG55       0.2260
     26  O        -50.4350   41.4400    0.3280 O.2    55  ARG55      -0.2867
     27  CB       -48.8360   38.7950    0.5630 C.3    55  ARG55       0.0307
     28  CG       -47.5580   39.6100    0.7230 C.3    55  ARG55       0.0489
     29  CD       -46.4420   39.0680   -0.1580 C.3    55  ARG55       0.2205
     30  NE       -45.5350   38.1830    0.5750 N.pl3  55  ARG55      -0.0865
     31  CZ       -44.2260   38.3830    0.7500 C.cat  55  ARG55       0.5346
     32  NH1      -43.6060   39.4440    0.2350 N.pl3  55  ARG55       0.1354
     33  NH2      -43.5190   37.4970    1.4440 N.pl3  55  ARG55       0.1354
     34  N        -47.9760   43.7320    1.0200 N.3    57  ASN57      -0.1240
     35  CA       -46.7260   44.3700    0.6120 C.3    57  ASN57       0.1653
     36  C        -46.7690   45.8670    0.8990 C.2    57  ASN57       0.2266
     37  O        -47.3890   46.6280    0.1530 O.2    57  ASN57      -0.2867
     38  CB       -46.4590   44.1350   -0.8760 C.3    57  ASN57       0.1155
     39  CG       -46.1710   42.6810   -1.1940 C.2    57  ASN57       0.2627
     40  OD1      -45.0700   42.1900   -0.9470 O.2    57  ASN57      -0.2716
     41  ND2      -47.1580   41.9870   -1.7520 N.am   57  ASN57      -0.0877
     42  N        -50.2380   33.2080    0.3630 N.3    89  ASN89      -0.1225
     43  CA       -50.0800   34.2910   -0.6070 C.3    89  ASN89       0.1785
     44  C        -50.0580   33.7160   -2.0210 C.2    89  ASN89       0.2597
     45  O        -49.4560   32.6670   -2.2520 O.2    89  ASN89      -0.2718
     46  CB       -48.7930   35.0740   -0.3170 C.3    89  ASN89       0.1169
     47  CG       -48.4250   36.0500   -1.4240 C.2    89  ASN89       0.2627
     48  OD1      -47.2760   36.0930   -1.8610 O.2    89  ASN89      -0.2716
     49  ND2      -49.3960   36.8350   -1.8830 N.am   89  ASN89      -0.0877
     50  N        -50.7140   34.4070   -2.9540 N.am   90  ARG90      -0.1979
     51  CA       -50.8480   33.9580   -4.3450 C.3    90  ARG90       0.1597
     52  C        -51.6440   32.6530   -4.3820 C.2    90  ARG90       0.2287
     53  O        -51.1710   31.6200   -4.8600 O.2    90  ARG90      -0.2864
     54  CB       -49.4790   33.8340   -5.0320 C.3    90  ARG90       0.0334
     55  CG       -48.7330   35.1590   -5.1080 C.3    90  ARG90       0.0492
     56  CD       -47.2910   35.0020   -5.5610 C.3    90  ARG90       0.2205
     57  NE       -46.4330   34.4810   -4.4970 N.pl3  90  ARG90      -0.0865
     58  CZ       -45.1000   34.4720   -4.5250 C.cat  90  ARG90       0.5346
     59  NH1      -44.4330   34.9590   -5.5680 N.pl3  90  ARG90       0.1354
     60  NH2      -44.4250   33.9690   -3.4970 N.pl3  90  ARG90       0.1354
     61  N        -49.6240   30.9020   -7.2560 N.3   137  GLY137     -0.1225
     62  CA       -50.1990   31.5520   -8.4310 C.3   137  GLY137      0.1811
     63  C        -51.0660   30.5730   -9.2030 C.2   137  GLY137      0.2280
     64  O        -51.2050   30.6790  -10.4220 O.2   137  GLY137     -0.2866
     65  N        -48.2390   30.6310  -14.9070 N.3   183  SER183     -0.1202
     66  CA       -48.2920   30.9520  -13.4840 C.3   183  SER183      0.2020
     67  C        -48.9920   32.2970  -13.3030 C.2   183  SER183      0.2619
     68  O        -48.6700   33.2680  -13.9900 O.2   183  SER183     -0.2717
     69  CB       -46.8840   31.0150  -12.8950 C.3   183  SER183      0.2103
     70  OG       -46.9320   31.2070  -11.4920 O.3   183  SER183     -0.2182
     71  N        -49.9460   32.3480  -12.3770 N.am  184  GLY184     -0.1956
     72  CA       -50.7360   33.5540  -12.1410 C.3   184  GLY184      0.1869
     73  C        -51.7200   33.8350  -13.2630 C.2   184  GLY184      0.2309
     74  O        -51.9680   34.9930  -13.6020 O.2   184  GLY184     -0.2863
     75  N        -45.0890   37.6420  -20.1290 N.3   205  GLN205     -0.1245
     76  CA       -46.5020   37.6690  -19.7660 C.3   205  GLN205      0.1566
     77  C        -47.3050   37.2680  -20.9980 C.2   205  GLN205      0.2260
     78  O        -46.9590   37.6470  -22.1190 O.2   205  GLN205     -0.2867
     79  CB       -46.9250   39.0550  -19.2730 C.3   205  GLN205      0.0367
     80  CG       -46.5370   39.3490  -17.8310 C.3   205  GLN205      0.0905
     81  CD       -45.0380   39.4460  -17.6110 C.2   205  GLN205      0.2608
     82  OE1      -44.2710   39.6710  -18.5470 O.2   205  GLN205     -0.2717
     83  NE2      -44.6140   39.2880  -16.3610 N.am  205  GLN205     -0.0878
     84  N        -50.5490   38.9350  -16.3770 N.3   230  SER230     -0.1202
     85  CA       -50.4470   37.9200  -15.3300 C.3   230  SER230      0.2020
     86  C        -51.0210   38.4840  -14.0340 C.2   230  SER230      0.2618
     87  O        -51.1830   39.7000  -13.9000 O.2   230  SER230     -0.2717
     88  CB       -48.9900   37.5070  -15.1230 C.3   230  SER230      0.2103
     89  OG       -48.2040   38.6070  -14.7010 O.3   230  SER230     -0.2182
     90  N        -51.3180   37.5960  -13.0860 N.am  231  ALA231     -0.1979
     91  CA       -51.9630   37.9690  -11.8240 C.3   231  ALA231      0.1597
     92  C        -53.2520   38.7480  -12.0900 C.2   231  ALA231      0.2287
     93  O        -53.4580   39.8420  -11.5590 O.2   231  ALA231     -0.2864
     94  CB       -51.0090   38.7700  -10.9470 C.3   231  ALA231      0.0319
     95  N        -50.6830   42.3580  -14.6450 N.3   247  TYR247     -0.1241
     96  CA       -49.3400   42.8880  -14.8540 C.3   247  TYR247      0.1605
     97  C        -48.8100   42.3610  -16.1830 C.2   247  TYR247      0.2264
     98  O        -48.7720   41.1490  -16.3930 O.2   247  TYR247     -0.2867
     99  CB       -48.4370   42.4470  -13.6990 C.3   247  TYR247      0.0534
    100  CG       -47.0250   42.9900  -13.7450 C.ar  247  TYR247     -0.0201
    101  CD1      -46.7750   44.3510  -13.5990 C.ar  247  TYR247     -0.0009
    102  CD2      -45.9360   42.1370  -13.9100 C.ar  247  TYR247     -0.0009
    103  CE1      -45.4830   44.8500  -13.6320 C.ar  247  TYR247      0.0417
    104  CE2      -44.6410   42.6270  -13.9420 C.ar  247  TYR247      0.0417
    105  CZ       -44.4200   43.9840  -13.8070 C.ar  247  TYR247      0.1957
    106  OH       -43.1340   44.4740  -13.8390 O.3   247  TYR247     -0.2866
    107  N        -49.3230   48.2010  -14.4610 N.3   252  PHE252     -0.1241
    108  CA       -50.4530   47.5840  -13.7790 C.3   252  PHE252      0.1605
    109  C        -51.7260   48.0030  -14.5040 C.2   252  PHE252      0.2264
    110  O        -52.0740   49.1830  -14.5290 O.2   252  PHE252     -0.2867
    111  CB       -50.4790   47.9930  -12.3070 C.3   252  PHE252      0.0534
    112  CG       -49.2550   47.5660  -11.5470 C.ar  252  PHE252     -0.0203
    113  CD1      -49.1950   46.3160  -10.9490 C.ar  252  PHE252     -0.0042
    114  CD2      -48.1510   48.4040  -11.4510 C.ar  252  PHE252     -0.0042
    115  CE1      -48.0650   45.9140  -10.2580 C.ar  252  PHE252     -0.0003
    116  CE2      -47.0190   48.0100  -10.7590 C.ar  252  PHE252     -0.0003
    117  CZ       -46.9750   46.7620  -10.1610 C.ar  252  PHE252     -0.0000
    118  N        -52.7770   44.7140   -9.9600 N.3   277  SER277     -0.1202
    119  CA       -52.5410   43.3000  -10.2540 C.3   277  SER277      0.2020
    120  C        -52.7300   42.4470   -9.0010 C.2   277  SER277      0.2619
    121  O        -52.5530   42.9270   -7.8800 O.2   277  SER277     -0.2717
    122  CB       -51.1270   43.0990  -10.8040 C.3   277  SER277      0.2103
    123  OG       -50.1470   43.3900   -9.8210 O.3   277  SER277     -0.2182
    124  N        -53.0890   41.1810   -9.2030 N.am  278  GLY278     -0.1956
    125  CA       -53.2610   40.2350   -8.1030 C.3   278  GLY278      0.1869
    126  C        -54.5120   40.4820   -7.2820 C.2   278  GLY278      0.2309
    127  O        -54.4730   40.4340   -6.0510 O.2   278  GLY278     -0.2863
@<TRIPOS>BOND
     1    78    77    2
     2    77    76    1
     3    75    76    1
     4    76    79    1
     5    79    80    1
     6    82    81    2
     7    80    81    1
     8    81    83   am
     9    98    97    2
    10    84    85    1
    11    97    96    1
    12    85    88    1
    13    85    86    1
    14    88    89    1
    15    65    66    1
    16    96    95    1
    17    96    99    1
    18   110   109    2
    19   109   108    1
    20   107   108    1
    21    86    87    2
    22    86    90   am
    23    68    67    2
    24   104   102   ar
    25   104   105   ar
    26   102   100   ar
    27   106   105    1
    28   105   103   ar
    29   108   111    1
    30   100    99    1
    31   100   101   ar
    32   103   101   ar
    33    74    73    2
    34    66    67    1
    35    66    69    1
    36    67    71   am
    37    73    72    1
    38    90    91    1
    39    69    70    1
    40    71    72    1
    41   111   112    1
    42    92    91    1
    43    92    93    2
    44    91    94    1
    45   112   114   ar
    46   112   113   ar
    47   114   116   ar
    48   113   115   ar
    49   122   119    1
    50   122   123    1
    51   116   117   ar
    52    64    63    2
    53   115   117   ar
    54   119   118    1
    55   119   120    1
    56    63    62    1
    57   124   120   am
    58   124   125    1
    59   120   121    2
    60    62    61    1
    61   125   126    1
    62     4     3    2
    63   126   127    2
    64     3     2    1
    65     7     9   ar
    66     7     6   ar
    67     9    11   ar
    68     1     2    1
    69     5     2    1
    70     5     6    1
    71     6     8   ar
    72    59    58    1
    73    56    55    1
    74    56    57    1
    75    11    12    1
    76    11    10   ar
    77    55    54    1
    78    54    51    1
    79    53    52    2
    80    58    57    2
    81    58    60    1
    82    52    51    1
    83     8    10   ar
    84    51    50    1
    85    20    19    1
    86    20    21    1
    87    19    15   am
    88    17    18    1
    89    17    14    1
    90    21    22    2
    91    50    44   am
    92    14    15    1
    93    14    13    1
    94    15    16    2
    95    45    44    2
    96    44    43    1
    97    49    47   am
    98    48    47    2
    99    41    39   am
   100    47    46    1
   101    39    40    2
   102    39    38    1
   103    38    35    1
   104    43    46    1
   105    43    42    1
   106    29    30    1
   107    29    28    1
   108    37    36    2
   109    32    31    1
   110    26    25    2
   111    27    28    1
   112    27    24    1
   113    30    31    2
   114    35    36    1
   115    35    34    1
   116    31    33    1
   117    23    24    1
   118    25    24    1
