@<TRIPOS>MOLECULE
tmp/4l7fA00.pdb
 186 173 0 0 0
SMALL
GASTEIGER

@<TRIPOS>ATOM
      1  N         -5.0040   60.0570    7.5750 N.3    28  ILE28      -0.1245
      2  CA        -4.4300   58.8080    8.1260 C.3    28  ILE28       0.1561
      3  C         -3.2690   58.2630    7.2600 C.2    28  ILE28       0.2260
      4  O         -2.7710   57.1590    7.4870 O.2    28  ILE28      -0.2867
      5  CB        -5.5080   57.6840    8.3600 C.3    28  ILE28       0.0252
      6  CG1       -6.2360   57.3120    7.0610 C.3    28  ILE28       0.0019
      7  CG2       -6.4910   58.0930    9.4440 C.3    28  ILE28       0.0019
      8  CD1       -7.1460   56.0910    7.1680 C.3    28  ILE28       0.0001
      9  N         -1.1900   59.5290    3.0960 N.3    30  SER30      -0.1202
     10  CA         0.0470   58.7650    3.0700 C.3    30  SER30       0.2020
     11  C          1.0810   59.6190    2.3190 C.2    30  SER30       0.2619
     12  O          0.9910   60.8530    2.3320 O.2    30  SER30      -0.2717
     13  CB        -0.1840   57.4020    2.3850 C.3    30  SER30       0.2103
     14  OG        -0.8930   56.5160    3.2410 O.3    30  SER30      -0.2182
     15  N          2.0520   58.9690    1.6810 N.am   31  GLY31      -0.1956
     16  CA         2.9780   59.6540    0.7830 C.3    31  GLY31       0.1869
     17  C          3.1660   58.9060   -0.5230 C.2    31  GLY31       0.2309
     18  O          2.8160   57.7260   -0.6240 O.2    31  GLY31      -0.2863
     19  N          1.8980   58.2800   -3.5110 N.3    33  GLN33      -0.1231
     20  CA         0.8240   58.0420   -4.4760 C.3    33  GLN33       0.1698
     21  C         -0.5030   58.7310   -4.1210 C.2    33  GLN33       0.2592
     22  O         -1.4160   58.7960   -4.9670 O.2    33  GLN33      -0.2718
     23  CB         0.6280   56.5450   -4.7020 C.3    33  GLN33       0.0381
     24  CG         0.1790   56.2180   -6.1180 C.3    33  GLN33       0.0905
     25  CD         1.0600   55.1660   -6.7570 C.2    33  GLN33       0.2608
     26  OE1        1.3720   55.2340   -7.9570 O.2    33  GLN33      -0.2717
     27  NE2        1.4840   54.1850   -5.9520 N.am   33  GLN33      -0.0878
     28  N         -0.6020   59.2410   -2.8880 N.am   34  GLY34      -0.1957
     29  CA        -1.7470   60.0590   -2.4830 C.3    34  GLY34       0.1869
     30  C         -2.0240   60.1000   -0.9950 C.2    34  GLY34       0.2309
     31  O         -1.2290   59.6230   -0.1840 O.2    34  GLY34      -0.2863
     32  N         -4.8280   59.5680    2.2700 N.3    36  VAL36      -0.1245
     33  CA        -5.8890   58.7150    2.7610 C.3    36  VAL36       0.1561
     34  C         -6.4720   59.3230    4.0250 C.2    36  VAL36       0.2260
     35  O         -5.7300   59.6640    4.9320 O.2    36  VAL36      -0.2867
     36  CB        -5.3640   57.2890    3.0910 C.3    36  VAL36       0.0252
     37  CG1       -6.5230   56.3480    3.3010 C.3    36  VAL36       0.0019
     38  CG2       -4.5000   56.7920    1.9750 C.3    36  VAL36       0.0019
     39  N        -12.2150   54.4580    5.1070 N.3    49  ALA49      -0.1245
     40  CA       -11.0020   55.0920    4.6340 C.3    49  ALA49       0.1562
     41  C        -11.2450   55.5610    3.2040 C.2    49  ALA49       0.2260
     42  O        -11.7760   54.7980    2.3740 O.2    49  ALA49      -0.2867
     43  CB        -9.8550   54.1080    4.6530 C.3    49  ALA49       0.0290
     44  N         -9.2460   57.1830   -0.0590 N.3    51  LYS51      -0.1231
     45  CA        -8.0220   57.6470   -0.6830 C.3    51  LYS51       0.1693
     46  C         -8.2630   58.4110   -1.9780 C.2    51  LYS51       0.2592
     47  O         -9.0860   58.0070   -2.8110 O.2    51  LYS51      -0.2718
     48  CB        -7.0270   56.5210   -0.9160 C.3    51  LYS51       0.0285
     49  CG        -7.5060   55.3730   -1.7090 C.3    51  LYS51       0.0035
     50  CD        -6.2720   54.5210   -2.0940 C.3    51  LYS51       0.0206
     51  CE        -6.7140   53.1020   -2.3940 C.3    51  LYS51       0.1093
     52  NZ        -5.5490   52.1780   -2.4500 N.3    51  LYS51      -0.1314
     53  N         -7.5310   59.5040   -2.1300 N.am   52  LYS52      -0.1966
     54  CA        -7.5440   60.3040   -3.3520 C.3    52  LYS52       0.1728
     55  C         -6.3120   59.9610   -4.1800 C.2    52  LYS52       0.2616
     56  O         -5.1690   60.1450   -3.7060 O.2    52  LYS52      -0.2715
     57  CB        -7.5380   61.7810   -2.9910 C.3    52  LYS52       0.0311
     58  CG        -7.3400   62.7380   -4.1790 C.3    52  LYS52       0.0038
     59  CD        -7.2070   64.1680   -3.7080 C.3    52  LYS52       0.0206
     60  CE        -7.2010   65.1170   -4.9150 C.3    52  LYS52       0.1093
     61  NZ        -6.8800   66.5340   -4.5390 N.3    52  LYS52      -0.1314
     62  N         -6.5320   59.4410   -5.3910 N.am   53  LEU53      -0.1977
     63  CA        -5.4590   59.3040   -6.3770 C.3    53  LEU53       0.1596
     64  C         -5.5110   60.5270   -7.2830 C.2    53  LEU53       0.2287
     65  O         -6.4980   60.7150   -8.0480 O.2    53  LEU53      -0.2864
     66  CB        -5.6080   58.0260   -7.2130 C.3    53  LEU53       0.0297
     67  CG        -6.1360   56.7120   -6.6150 C.3    53  LEU53       0.0022
     68  CD1       -5.9290   55.5570   -7.5710 C.3    53  LEU53       0.0001
     69  CD2       -5.5050   56.3850   -5.3060 C.3    53  LEU53       0.0001
     70  N         -5.4080   48.4870   -9.6100 N.3    69  GLU69      -0.1245
     71  CA        -6.0490   48.6340   -8.3170 C.3    69  GLU69       0.1567
     72  C         -7.5840   48.6800   -8.4320 C.2    69  GLU69       0.2260
     73  O         -8.3020   47.9200   -7.7670 O.2    69  GLU69      -0.2867
     74  CB        -5.4920   49.8830   -7.6380 C.3    69  GLU69       0.0388
     75  CG        -5.9540   50.0960   -6.2230 C.3    69  GLU69       0.1160
     76  CD        -4.8980   50.8230   -5.4080 C.2    69  GLU69       0.3649
     77  OE1       -5.0860   52.0240   -5.1230 O.co2  69  GLU69      -0.2457
     78  OE2       -3.8680   50.1910   -5.0760 O.co2  69  GLU69      -0.2457
     79  N         -8.4040   43.9440    0.9110 N.3    82  ILE82      -0.1245
     80  CA        -9.2590   45.0760    1.2210 C.3    82  ILE82       0.1561
     81  C        -10.3570   45.1780    0.1240 C.2    82  ILE82       0.2260
     82  O        -10.0700   45.0960   -1.0720 O.2    82  ILE82      -0.2867
     83  CB        -8.4780   46.4130    1.3720 C.3    82  ILE82       0.0252
     84  CG1       -9.3520   47.4910    2.0560 C.3    82  ILE82       0.0019
     85  CG2       -7.9320   46.9090    0.0330 C.3    82  ILE82       0.0019
     86  CD1       -9.6340   47.2090    3.5270 C.3    82  ILE82       0.0001
     87  N        -12.9400   52.4560    1.2580 N.3   104  MET104     -0.1230
     88  CA       -12.7950   51.0990    1.8290 C.3   104  MET104      0.1702
     89  C        -13.3130   51.1310    3.2510 C.2   104  MET104      0.2592
     90  O        -13.3960   52.2050    3.8320 O.2   104  MET104     -0.2718
     91  CB       -11.2970   50.7090    1.8770 C.3   104  MET104      0.0401
     92  CG       -10.5510   50.7290    0.5120 C.3   104  MET104      0.0596
     93  SD        -8.7630   51.0600    0.6520 S.3   104  MET104     -0.1393
     94  CE        -8.7840   52.8400    0.8930 C.3   104  MET104      0.0692
     95  N        -13.6590   49.9750    3.8230 N.am  105  GLU105     -0.1966
     96  CA       -14.0230   49.9080    5.2440 C.3   105  GLU105      0.1733
     97  C        -12.7950   50.2820    6.0770 C.2   105  GLU105      0.2616
     98  O        -11.6680   49.9010    5.7320 O.2   105  GLU105     -0.2715
     99  CB       -14.5020   48.5070    5.6240 C.3   105  GLU105      0.0429
    100  CG       -15.7100   47.9760    4.8480 C.3   105  GLU105      0.1163
    101  CD       -17.0560   48.1490    5.5670 C.2   105  GLU105      0.3649
    102  OE1      -17.1500   48.8770    6.5790 O.co2 105  GLU105     -0.2457
    103  OE2      -18.0430   47.5460    5.1000 O.co2 105  GLU105     -0.2457
    104  N        -12.9910   51.0370    7.1580 N.am  106  LEU106     -0.1963
    105  CA       -11.8500   51.4950    7.9530 C.3   106  LEU106      0.1728
    106  C        -11.3450   50.3830    8.8590 C.2   106  LEU106      0.2616
    107  O        -12.1340   49.7360    9.5720 O.2   106  LEU106     -0.2715
    108  CB       -12.1890   52.7480    8.7750 C.3   106  LEU106      0.0311
    109  CG       -11.0350   53.3820    9.5930 C.3   106  LEU106      0.0022
    110  CD1       -9.9340   53.9560    8.7210 C.3   106  LEU106      0.0001
    111  CD2      -11.5480   54.4470   10.5640 C.3   106  LEU106      0.0001
    112  N        -10.0280   50.1480    8.8160 N.am  107  MET107     -0.1963
    113  CA        -9.4080   49.1760    9.7220 C.3   107  MET107      0.1736
    114  C         -8.6500   49.9180   10.8180 C.2   107  MET107      0.2616
    115  O         -8.1010   50.9930   10.6120 O.2   107  MET107     -0.2715
    116  CB        -8.4980   48.2190    8.9430 C.3   107  MET107      0.0427
    117  CG        -9.2630   47.4480    7.8190 C.3   107  MET107      0.0599
    118  SD       -10.2290   46.0830    8.4580 S.3   107  MET107     -0.1393
    119  CE        -8.9120   44.8480    8.5210 C.3   107  MET107      0.0692
    120  N         -8.6200   49.3130   11.9930 N.am  108  ASP108     -0.1957
    121  CA        -8.1240   49.9070   13.2180 C.3   108  ASP108      0.1840
    122  C         -6.6060   50.1700   13.2660 C.2   108  ASP108      0.2622
    123  O         -6.1160   51.0810   13.9450 O.2   108  ASP108     -0.2715
    124  CB        -8.5390   48.9200   14.3300 C.3   108  ASP108      0.1450
    125  CG       -10.0430   48.6620   14.3210 C.2   108  ASP108      0.3671
    126  OD1      -10.7670   49.5730   14.7810 O.co2 108  ASP108     -0.2456
    127  OD2      -10.4980   47.6030   13.8230 O.co2 108  ASP108     -0.2456
    128  N         -5.8510   49.3040   12.5980 N.am  109  ALA109     -0.1963
    129  CA        -4.3900   49.3840   12.7370 C.3   109  ALA109      0.1728
    130  C         -3.7590   49.0270   11.4330 C.2   109  ALA109      0.2616
    131  O         -4.3980   48.4020   10.6070 O.2   109  ALA109     -0.2715
    132  CB        -3.8830   48.3770   13.8000 C.3   109  ALA109      0.0334
    133  N         -2.4820   49.3720   11.2710 N.am  110  ASN110     -0.1972
    134  CA        -1.7100   48.7570   10.2070 C.3   110  ASN110      0.1688
    135  C         -0.6930   47.7510   10.7720 C.2   110  ASN110      0.2292
    136  O         -0.4570   47.6930   11.9990 O.2   110  ASN110     -0.2864
    137  CB        -1.0810   49.8100    9.3050 C.3   110  ASN110      0.1181
    138  CG        -0.0840   50.6620   10.0380 C.2   110  ASN110      0.2629
    139  OD1        0.8710   50.1430   10.6340 O.2   110  ASN110     -0.2716
    140  ND2       -0.2860   51.9720   10.0010 N.am  110  ASN110     -0.0877
    141  N          2.2870   48.8530   12.9720 N.3   113  GLN113     -0.1245
    142  CA         1.9620   49.0970   14.3730 C.3   113  GLN113      0.1566
    143  C          1.8510   47.7820   15.1370 C.2   113  GLN113      0.2260
    144  O          2.2890   47.7080   16.2910 O.2   113  GLN113     -0.2867
    145  CB         0.6340   49.8610   14.5210 C.3   113  GLN113      0.0367
    146  CG         0.6310   51.2360   13.8430 C.3   113  GLN113      0.0905
    147  CD        -0.7560   51.8160   13.7300 C.2   113  GLN113      0.2608
    148  OE1       -1.7130   51.0890   13.5570 O.2   113  GLN113     -0.2717
    149  NE2       -0.8690   53.1380   13.8380 N.am  113  GLN113     -0.0878
    150  N          3.4610   48.2890    5.7650 N.3   151  SER151     -0.1202
    151  CA         2.7100   49.5420    5.6630 C.3   151  SER151      0.2020
    152  C          1.4930   49.4150    4.7380 C.2   151  SER151      0.2618
    153  O          0.5610   50.2180    4.8400 O.2   151  SER151     -0.2717
    154  CB         3.6160   50.6920    5.1980 C.3   151  SER151      0.2103
    155  OG         4.1460   50.3890    3.9210 O.3   151  SER151     -0.2182
    156  N          1.4870   48.4050    3.8560 N.am  152  ASN152     -0.1974
    157  CA         0.3530   48.1600    2.9460 C.3   152  ASN152      0.1688
    158  C         -0.5410   46.9940    3.3490 C.2   152  ASN152      0.2292
    159  O         -1.2200   46.3740    2.5180 O.2   152  ASN152     -0.2864
    160  CB         0.8590   47.9970    1.5150 C.3   152  ASN152      0.1181
    161  CG         1.4490   49.2780    0.9840 C.2   152  ASN152      0.2629
    162  OD1        1.1970   50.3750    1.5150 O.2   152  ASN152     -0.2716
    163  ND2        2.2980   49.1530   -0.0190 N.am  152  ASN152     -0.0877
    164  N         -3.3390   46.0090    6.5960 N.3   154  VAL154     -0.1245
    165  CA        -4.0800   46.5520    7.7370 C.3   154  VAL154      0.1561
    166  C         -4.6970   45.3960    8.5470 C.2   154  VAL154      0.2260
    167  O         -4.8410   44.2750    8.0590 O.2   154  VAL154     -0.2867
    168  CB        -5.2100   47.5670    7.3080 C.3   154  VAL154      0.0252
    169  CG1       -4.6060   48.9260    6.9200 C.3   154  VAL154      0.0019
    170  CG2       -6.0530   46.9790    6.1440 C.3   154  VAL154      0.0019
    171  N         -3.6150   45.6820    1.2610 N.3   164  LEU164     -0.1231
    172  CA        -4.2050   46.8940    0.6640 C.3   164  LEU164      0.1693
    173  C         -3.9020   47.1230   -0.8040 C.2   164  LEU164      0.2592
    174  O         -4.6120   47.9100   -1.4700 O.2   164  LEU164     -0.2718
    175  CB        -3.7250   48.1490    1.3940 C.3   164  LEU164      0.0284
    176  CG        -4.1730   48.3430    2.8270 C.3   164  LEU164      0.0019
    177  CD1       -3.3580   49.4940    3.3970 C.3   164  LEU164      0.0001
    178  CD2       -5.6530   48.6150    2.8780 C.3   164  LEU164      0.0001
    179  N         -2.8370   46.5170   -1.3150 N.am  165  ASP165     -0.1974
    180  CA        -2.4730   46.8160   -2.7010 C.3   165  ASP165      0.1709
    181  C         -2.0940   45.5720   -3.5000 C.2   165  ASP165      0.2293
    182  O         -2.1390   44.4510   -2.9730 O.2   165  ASP165     -0.2864
    183  CB        -1.4020   47.8920   -2.7580 C.3   165  ASP165      0.1436
    184  CG        -0.0410   47.4000   -2.3200 C.2   165  ASP165      0.3671
    185  OD1        0.0700   46.3200   -1.6570 O.co2 165  ASP165     -0.2456
    186  OD2        0.9380   48.1200   -2.6550 O.co2 165  ASP165     -0.2456
@<TRIPOS>BOND
     1    70    71    1
     2    72    71    1
     3    72    73    2
     4    71    74    1
     5    65    64    2
     6    26    25    2
     7    74    75    1
     8    68    67    1
     9    64    63    1
    10    66    67    1
    11    66    63    1
    12    25    24    1
    13    25    27   am
    14    67    69    1
    15    63    62    1
    16    75    76    1
    17    24    23    1
    18    76    77   ar
    19    76    78   ar
    20    62    55   am
    21    22    21    2
    22    60    61    1
    23    60    59    1
    24    23    20    1
    25    20    21    1
    26    20    19    1
    27    55    56    2
    28    55    54    1
    29    58    59    1
    30    58    57    1
    31    21    28   am
    32   181   182    2
    33   181   180    1
    34    54    57    1
    35    54    53    1
    36    28    29    1
    37    47    46    2
    38   183   180    1
    39   183   184    1
    40   180   179    1
    41   186   184   ar
    42    29    30    1
    43    52    51    1
    44    51    50    1
    45   184   185   ar
    46    53    46   am
    47    50    49    1
    48    46    45    1
    49    49    48    1
    50   174   173    2
    51   179   173   am
    52    82    81    2
    53    30    31    2
    54    48    45    1
    55   173   172    1
    56    45    44    1
    57    18    17    2
    58    17    16    1
    59   163   161   am
    60    85    83    1
    61    81    80    1
    62    92    93    1
    63    92    91    1
    64    93    94    1
    65   172   171    1
    66   172   175    1
    67    16    15    1
    68    79    80    1
    69   161   162    2
    70   161   160    1
    71    80    83    1
    72    87    88    1
    73    83    84    1
    74   175   176    1
    75   160   157    1
    76    15    11   am
    77    88    91    1
    78    88    89    1
    79    38    36    1
    80    84    86    1
    81    32    33    1
    82    11    12    2
    83    11    10    1
    84    42    41    2
    85    13    10    1
    86    13    14    1
    87   159   158    2
    88    33    36    1
    89    33    34    1
    90   176   178    1
    91   176   177    1
    92   157   158    1
    93   157   156    1
    94    10     9    1
    95    36    37    1
    96    41    40    1
    97    89    95   am
    98    89    90    2
    99    95    96    1
   100   156   152   am
   101   155   154    1
   102    34    35    2
   103    40    43    1
   104    40    39    1
   105   152   153    2
   106   152   151    1
   107   100   101    1
   108   100    99    1
   109   103   101   ar
   110   154   151    1
   111    96    99    1
   112    96    97    1
   113   101   102   ar
   114   151   150    1
   115    98    97    2
   116    97   104   am
   117   170   168    1
   118   164   165    1
   119   169   168    1
   120     6     8    1
   121     6     5    1
   122   104   105    1
   123     3     4    2
   124     3     2    1
   125   168   165    1
   126     1     2    1
   127   165   166    1
   128   117   118    1
   129   117   116    1
   130   105   108    1
   131   105   106    1
   132   167   166    2
   133     2     5    1
   134     5     7    1
   135   118   119    1
   136   110   109    1
   137   108   109    1
   138   112   106   am
   139   112   113    1
   140   106   107    2
   141   116   113    1
   142   137   138    1
   143   137   134    1
   144   109   111    1
   145   113   114    1
   146   140   138   am
   147   138   139    2
   148   134   135    1
   149   134   133    1
   150   131   130    2
   151   115   114    2
   152   135   136    2
   153   114   120   am
   154   133   130   am
   155   130   129    1
   156   120   121    1
   157   128   129    1
   158   128   122   am
   159   129   132    1
   160   141   142    1
   161   121   122    1
   162   121   124    1
   163   122   123    2
   164   148   147    2
   165   147   149   am
   166   147   146    1
   167   127   125   ar
   168   146   145    1
   169   125   124    1
   170   125   126   ar
   171   142   145    1
   172   142   143    1
   173   143   144    2
