@<TRIPOS>MOLECULE
tmp/4l7gA00.pdb
 144 138 0 0 0
SMALL
GASTEIGER

@<TRIPOS>ATOM
      1  N          5.0720    2.8390   12.6130 N.3    13  GLY13      -0.1210
      2  CA         5.5780    2.4320   13.9050 C.3    13  GLY13       0.1956
      3  C          5.7020    0.9330   14.0960 C.2    13  GLY13       0.2612
      4  O          6.1780    0.4730   15.1320 O.2    13  GLY13      -0.2717
      5  N          5.2900    0.1580   13.1010 N.am   14  GLN14      -0.1965
      6  CA         5.2760   -1.2880   13.2700 C.3    14  GLN14       0.1733
      7  C          6.1680   -2.0260   12.2860 C.2    14  GLN14       0.2616
      8  O          6.0890   -3.2470   12.1800 O.2    14  GLN14      -0.2715
      9  CB         3.8410   -1.8250   13.2160 C.3    14  GLN14       0.0408
     10  CG         2.9580   -1.2410   14.3050 C.3    14  GLN14       0.0908
     11  CD         1.5990   -1.9130   14.4080 C.2    14  GLN14       0.2608
     12  OE1        1.0160   -2.3180   13.4080 O.2    14  GLN14      -0.2717
     13  NE2        1.0940   -2.0330   15.6280 N.am   14  GLN14      -0.0878
     14  N          7.0210   -1.2870   11.5810 N.am   15  GLY15      -0.1955
     15  CA         7.9940   -1.8880   10.6810 C.3    15  GLY15       0.1869
     16  C          7.5250   -1.9740    9.2410 C.2    15  GLY15       0.2309
     17  O          6.3320   -1.8840    8.9440 O.2    15  GLY15      -0.2863
     18  N          9.1030   -8.8590    8.1380 N.3    32  LEU32      -0.1245
     19  CA         9.7480   -7.6070    8.5550 C.3    32  LEU32       0.1561
     20  C         11.1720   -7.4780    8.0190 C.2    32  LEU32       0.2260
     21  O         11.9850   -8.3790    8.1960 O.2    32  LEU32      -0.2867
     22  CB         9.7650   -7.5230   10.0780 C.3    32  LEU32       0.0270
     23  CG        10.4810   -6.3170   10.6790 C.3    32  LEU32       0.0019
     24  CD1        9.6800   -5.0340   10.4980 C.3    32  LEU32       0.0001
     25  CD2       10.7550   -6.5630   12.1540 C.3    32  LEU32       0.0001
     26  N         14.6270   -6.1950    8.4120 N.3    34  ASP34      -0.1239
     27  CA        15.3370   -5.7670    9.6190 C.3    34  ASP34       0.1674
     28  C         16.8520   -5.7140    9.4320 C.2    34  ASP34       0.2266
     29  O         17.5270   -6.7450    9.5360 O.2    34  ASP34      -0.2867
     30  CB        14.9930   -6.7170   10.7840 C.3    34  ASP34       0.1410
     31  CG        15.5400   -6.2410   12.1150 C.2    34  ASP34       0.3668
     32  OD1       16.0010   -5.0810   12.1790 O.co2  34  ASP34      -0.2456
     33  OD2       15.4890   -7.0210   13.0870 O.co2  34  ASP34      -0.2456
     34  N         18.7890   -4.5870   11.5470 N.3    36  GLY36      -0.1210
     35  CA        19.3290   -4.6560   12.8940 C.3    36  GLY36       0.1956
     36  C         19.4840   -6.0490   13.4740 C.2    36  GLY36       0.2612
     37  O         19.7670   -6.1760   14.6590 O.2    36  GLY36      -0.2717
     38  N         19.3040   -7.0900   12.6710 N.am   37  SER37      -0.1952
     39  CA        19.4610   -8.4630   13.1570 C.3    37  SER37       0.1924
     40  C         19.8340   -9.3510   11.9900 C.2    37  SER37       0.2314
     41  O         19.8500   -8.8960   10.8520 O.2    37  SER37      -0.2863
     42  CB        18.1850   -8.9650   13.8320 C.3    37  SER37       0.2116
     43  OG        17.1370   -9.1050   12.8820 O.3    37  SER37      -0.2180
     44  N         15.2350  -10.7220   23.4710 N.3    73  TYR73      -0.1227
     45  CA        15.5440   -9.3220   23.2080 C.3    73  TYR73       0.1736
     46  C         15.3590   -8.5460   24.5050 C.2    73  TYR73       0.2596
     47  O         14.9350   -9.1090   25.5140 O.2    73  TYR73      -0.2718
     48  CB        14.5920   -8.7460   22.1570 C.3    73  TYR73       0.0548
     49  CG        14.5340   -9.4880   20.8380 C.ar   73  TYR73      -0.0200
     50  CD1       13.3160   -9.9010   20.3120 C.ar   73  TYR73      -0.0009
     51  CD2       15.6860   -9.7440   20.1050 C.ar   73  TYR73      -0.0009
     52  CE1       13.2490  -10.5630   19.1070 C.ar   73  TYR73       0.0417
     53  CE2       15.6280  -10.4110   18.8920 C.ar   73  TYR73       0.0417
     54  CZ        14.4020  -10.8150   18.4010 C.ar   73  TYR73       0.1957
     55  OH        14.3190  -11.4680   17.1950 O.3    73  TYR73      -0.2866
     56  N         15.6600   -7.2500   24.4810 N.am   74  THR74      -0.1953
     57  CA        15.4070   -6.4000   25.6380 C.3    74  THR74       0.1897
     58  C         13.9360   -6.4770   26.0220 C.2    74  THR74       0.2313
     59  O         13.5980   -6.6960   27.1850 O.2    74  THR74      -0.2863
     60  CB        15.7720   -4.9350   25.3610 C.3    74  THR74       0.1794
     61  OG1       17.1750   -4.8370   25.1010 O.3    74  THR74      -0.2208
     62  CG2       15.4170   -4.0670   26.5600 C.3    74  THR74       0.0378
     63  N          5.7740  -11.2390   23.5820 N.3   109  LYS109     -0.1231
     64  CA         5.9450   -9.8330   23.2160 C.3   109  LYS109      0.1693
     65  C          6.7920   -9.6230   21.9620 C.2   109  LYS109      0.2592
     66  O          7.4990   -8.6250   21.8440 O.2   109  LYS109     -0.2718
     67  CB         6.5340   -9.0360   24.3850 C.3   109  LYS109      0.0285
     68  CG         5.5970   -8.8970   25.5750 C.3   109  LYS109      0.0035
     69  CD         6.2480   -8.0910   26.6860 C.3   109  LYS109      0.0206
     70  CE         5.3340   -7.9640   27.8940 C.3   109  LYS109      0.1093
     71  NZ         5.8900   -7.0150   28.9090 N.3   109  LYS109     -0.1314
     72  N          6.7140  -10.5610   21.0250 N.am  110  PHE110     -0.1976
     73  CA         7.4840  -10.4670   19.7900 C.3   110  PHE110      0.1639
     74  C          6.6020  -10.0200   18.6320 C.2   110  PHE110      0.2290
     75  O          6.8380   -8.9780   18.0140 O.2   110  PHE110     -0.2864
     76  CB         8.1270  -11.8090   19.4500 C.3   110  PHE110      0.0560
     77  CG         8.8520  -11.8110   18.1340 C.ar  110  PHE110     -0.0200
     78  CD1        9.9770  -11.0230   17.9500 C.ar  110  PHE110     -0.0042
     79  CD2        8.4130  -12.5980   17.0790 C.ar  110  PHE110     -0.0042
     80  CE1       10.6490  -11.0220   16.7460 C.ar  110  PHE110     -0.0003
     81  CE2        9.0890  -12.6020   15.8710 C.ar  110  PHE110     -0.0003
     82  CZ        10.2050  -11.8130   15.7040 C.ar  110  PHE110     -0.0000
     83  N          3.3940   -8.4560   16.8220 N.3   112  ILE112     -0.1245
     84  CA         2.6520   -7.2520   17.1440 C.3   112  ILE112      0.1561
     85  C          1.2670   -7.2930   16.5280 C.2   112  ILE112      0.2260
     86  O          1.1130   -7.5300   15.3300 O.2   112  ILE112     -0.2867
     87  CB         3.3800   -5.9950   16.6390 C.3   112  ILE112      0.0252
     88  CG1        4.7450   -5.8620   17.3130 C.3   112  ILE112      0.0019
     89  CG2        2.5320   -4.7500   16.8930 C.3   112  ILE112      0.0019
     90  CD1        5.5770   -4.7450   16.7440 C.3   112  ILE112      0.0001
     91  N          2.7550   -8.6250    9.7160 N.3   117  TRP117     -0.1241
     92  CA         3.9010   -9.4760    9.3940 C.3   117  TRP117      0.1605
     93  C          3.9880  -10.6930   10.3050 C.2   117  TRP117      0.2264
     94  O          3.5320  -10.6700   11.4600 O.2   117  TRP117     -0.2867
     95  CB         5.2370   -8.7000    9.3160 C.3   117  TRP117      0.0550
     96  CG         5.6290   -7.8410   10.5110 C.ar  117  TRP117      0.0003
     97  CD1        5.5020   -6.4780   10.6150 C.ar  117  TRP117      0.0946
     98  CD2        6.2610   -8.2760   11.7290 C.ar  117  TRP117      0.0152
     99  NE1        5.9910   -6.0430   11.8240 N.ar  117  TRP117     -0.2442
    100  CE2        6.4690   -7.1210   12.5260 C.ar  117  TRP117      0.0810
    101  CE3        6.6810   -9.5200   12.2170 C.ar  117  TRP117      0.0012
    102  CZ2        7.0510   -7.1800   13.7960 C.ar  117  TRP117      0.0191
    103  CZ3        7.2590   -9.5800   13.4780 C.ar  117  TRP117      0.0001
    104  CH2        7.4470   -8.4150   14.2530 C.ar  117  TRP117      0.0015
    105  N         10.5870  -12.3150   10.4470 N.3   120  ILE120     -0.1245
    106  CA        11.6170  -11.2910   10.4250 C.3   120  ILE120      0.1561
    107  C         12.7490  -11.7070    9.4850 C.2   120  ILE120      0.2260
    108  O         13.1750  -12.8680    9.4920 O.2   120  ILE120     -0.2867
    109  CB        12.1520  -11.0630   11.8550 C.3   120  ILE120      0.0252
    110  CG1       13.0910   -9.8580   11.9160 C.3   120  ILE120      0.0019
    111  CG2       12.8160  -12.3380   12.4030 C.3   120  ILE120      0.0019
    112  CD1       13.3160   -9.4000   13.3370 C.3   120  ILE120      0.0001
    113  N         19.3300    0.9510   11.3370 N.3   223  ASP223     -0.1225
    114  CA        18.4190   -0.1360   11.7160 C.3   223  ASP223      0.1805
    115  C         16.9840    0.0840   11.2440 C.2   223  ASP223      0.2598
    116  O         16.2050    0.8010   11.8860 O.2   223  ASP223     -0.2718
    117  CB        18.4200   -0.2900   13.2270 C.3   223  ASP223      0.1424
    118  CG        17.6120   -1.4890   13.6910 C.2   223  ASP223      0.3668
    119  OD1       17.1800   -2.2810   12.8270 O.co2 223  ASP223     -0.2456
    120  OD2       17.4280   -1.6500   14.9170 O.co2 223  ASP223     -0.2456
    121  N         16.6270   -0.5670   10.1450 N.am  224  SER224     -0.1938
    122  CA        15.2640   -0.4780    9.6290 C.3   224  SER224      0.2055
    123  C         14.2410   -1.1020   10.5780 C.2   224  SER224      0.2644
    124  O         13.0550   -0.8270   10.4530 O.2   224  SER224     -0.2714
    125  CB        15.1600   -1.1410    8.2600 C.3   224  SER224      0.2130
    126  OG        15.4480   -2.5250    8.3460 O.3   224  SER224     -0.2179
    127  N         14.6870   -1.9350   11.5140 N.am  225  GLY225     -0.1939
    128  CA        13.7980   -2.5850   12.4690 C.3   225  GLY225      0.2014
    129  C         13.6200   -1.8490   13.7810 C.2   225  GLY225      0.2640
    130  O         13.0960   -2.4090   14.7410 O.2   225  GLY225     -0.2714
    131  N         14.0730   -0.6010   13.8360 N.am  226  THR226     -0.1936
    132  CA        13.7710    0.2740   14.9620 C.3   226  THR226      0.2028
    133  C         13.0330    1.4710   14.3950 C.2   226  THR226      0.2642
    134  O         13.4470    2.0230   13.3900 O.2   226  THR226     -0.2714
    135  CB        15.0570    0.7380   15.6650 C.3   226  THR226      0.1808
    136  OG1       15.6410   -0.3870   16.3230 O.3   226  THR226     -0.2208
    137  CG2       14.7600    1.8450   16.6930 C.3   226  THR226      0.0379
    138  N         11.9140    1.8480   15.0080 N.am  227  THR227     -0.1950
    139  CA        11.1580    2.9880   14.5050 C.3   227  THR227      0.1897
    140  C         11.9110    4.3030   14.7130 C.2   227  THR227      0.2313
    141  O         12.0740    5.0940   13.7870 O.2   227  THR227     -0.2863
    142  CB         9.7950    3.1060   15.1910 C.3   227  THR227      0.1794
    143  OG1        9.0270    1.9220   14.9350 O.3   227  THR227     -0.2208
    144  CG2        9.0440    4.3520   14.6980 C.3   227  THR227      0.0378
@<TRIPOS>BOND
     1    20    21    2
     2    20    19    1
     3    18    19    1
     4   125   126    1
     5   125   122    1
     6    26    27    1
     7    19    22    1
     8    17    16    2
     9    16    15    1
    10    95    92    1
    11    95    96    1
    12    92    91    1
    13    92    93    1
    14    28    29    2
    15    28    27    1
    16   107   108    2
    17   107   106    1
    18    27    30    1
    19   122   121    1
    20   122   123    1
    21    22    23    1
    22   121   115   am
    23    93    94    2
    24   106   105    1
    25   106   109    1
    26   124   123    2
    27    24    23    1
    28    96    97   ar
    29    96    98   ar
    30   123   127   am
    31    97    99   ar
    32    23    25    1
    33    15    14    1
    34    30    31    1
    35    41    40    2
    36   115   114    1
    37   115   116    2
    38   113   114    1
    39   127   128    1
    40    34    35    1
    41    14     7   am
    42   114   117    1
    43    98   101   ar
    44    98   100   ar
    45    99   100   ar
    46   109   110    1
    47   109   111    1
    48   110   112    1
    49    40    39    1
    50    31    32   ar
    51    31    33   ar
    52     8     7    2
    53   101   103   ar
    54     7     6    1
    55   128   129    1
    56   100   102   ar
    57     1     2    1
    58    38    39    1
    59    38    36   am
    60   119   118   ar
    61    43    42    1
    62    35    36    1
    63     5     6    1
    64     5     3   am
    65    39    42    1
    66     9     6    1
    67     9    10    1
    68   117   118    1
    69   134   133    2
    70    12    11    2
    71    36    37    2
    72   103   104   ar
    73   118   120   ar
    74   129   131   am
    75   129   130    2
    76   141   140    2
    77   102   104   ar
    78   131   132    1
    79     2     3    1
    80     3     4    2
    81    10    11    1
    82   133   132    1
    83   133   138   am
    84    11    13   am
    85   139   140    1
    86   139   138    1
    87   139   142    1
    88   144   142    1
    89   143   142    1
    90   132   135    1
    91    86    85    2
    92   135   136    1
    93   135   137    1
    94    82    81   ar
    95    82    80   ar
    96    81    79   ar
    97    85    84    1
    98    87    89    1
    99    87    84    1
   100    87    88    1
   101    90    88    1
   102    80    78   ar
   103    83    84    1
   104    79    77   ar
   105    55    54    1
   106    78    77   ar
   107    75    74    2
   108    77    76    1
   109    54    53   ar
   110    54    52   ar
   111    74    73    1
   112    53    51   ar
   113    52    50   ar
   114    76    73    1
   115    73    72    1
   116    51    49   ar
   117    50    49   ar
   118    49    48    1
   119    72    65   am
   120    66    65    2
   121    65    64    1
   122    48    45    1
   123    45    44    1
   124    45    46    1
   125    64    63    1
   126    64    67    1
   127    67    68    1
   128    56    46   am
   129    56    57    1
   130    46    47    2
   131    61    60    1
   132    60    57    1
   133    60    62    1
   134    68    69    1
   135    57    58    1
   136    58    59    2
   137    69    70    1
   138    70    71    1
