@<TRIPOS>MOLECULE
tmp/4l7hA00.pdb
 167 160 0 0 0
SMALL
GASTEIGER

@<TRIPOS>ATOM
      1  N          9.1180   -9.3620    8.1450 N.3    32  LEU32      -0.1245
      2  CA         9.7560   -8.0980    8.5080 C.3    32  LEU32       0.1561
      3  C         11.1800   -7.9820    7.9680 C.2    32  LEU32       0.2260
      4  O         12.0010   -8.8670    8.1660 O.2    32  LEU32      -0.2867
      5  CB         9.7830   -7.9240   10.0250 C.3    32  LEU32       0.0270
      6  CG        10.4530   -6.6320   10.5220 C.3    32  LEU32       0.0019
      7  CD1        9.5740   -5.4210   10.2380 C.3    32  LEU32       0.0001
      8  CD2       10.7850   -6.7210   12.0050 C.3    32  LEU32       0.0001
      9  N         14.6580   -6.6150    8.3980 N.3    34  ASP34      -0.1239
     10  CA        15.3150   -6.2030    9.6380 C.3    34  ASP34       0.1674
     11  C         16.8380   -6.1790    9.5420 C.2    34  ASP34       0.2266
     12  O         17.4850   -7.2070    9.7030 O.2    34  ASP34      -0.2867
     13  CB        14.8750   -7.1240   10.7850 C.3    34  ASP34       0.1410
     14  CG        15.4240   -6.7000   12.1480 C.2    34  ASP34       0.3668
     15  OD1       16.0030   -5.5980   12.2900 O.co2  34  ASP34      -0.2456
     16  OD2       15.2610   -7.4900   13.0990 O.co2  34  ASP34      -0.2456
     17  N         18.7770   -5.0450   11.6330 N.3    36  GLY36      -0.1210
     18  CA        19.3060   -5.0800   12.9850 C.3    36  GLY36       0.1956
     19  C         19.4610   -6.4670   13.5960 C.2    36  GLY36       0.2613
     20  O         19.7560   -6.5970   14.7810 O.2    36  GLY36      -0.2717
     21  N         19.2580   -7.5080   12.7960 N.am   37  SER37      -0.1938
     22  CA        19.4010   -8.8840   13.2910 C.3    37  SER37       0.2055
     23  C         19.7830   -9.8220   12.1500 C.2    37  SER37       0.2643
     24  O         19.8450   -9.4120   10.9940 O.2    37  SER37      -0.2714
     25  CB        18.1280   -9.3510   14.0100 C.3    37  SER37       0.2130
     26  OG        17.0390   -9.4640   13.1130 O.3    37  SER37      -0.2179
     27  N         20.0590  -11.0780   12.4710 N.am   38  SER38      -0.1949
     28  CA        20.6570  -11.9560   11.4820 C.3    38  SER38       0.1924
     29  C         20.0140  -13.3410   11.3310 C.2    38  SER38       0.2314
     30  O         20.5450  -14.1860   10.6190 O.2    38  SER38      -0.2863
     31  CB        22.1650  -12.0850   11.7560 C.3    38  SER38       0.2116
     32  OG        22.7510  -10.7880   11.7830 O.3    38  SER38      -0.2180
     33  N         16.3000  -14.5970   23.5390 N.3    72  PRO72      -0.2102
     34  CA        15.7570  -13.5530   24.4150 C.3    72  PRO72       0.1504
     35  C         16.1230  -12.1420   23.9590 C.2    72  PRO72       0.2576
     36  O         17.2710  -11.8760   23.5970 O.2    72  PRO72      -0.2718
     37  CB        16.4340  -13.8450   25.7540 C.3    72  PRO72       0.0282
     38  CG        17.7510  -14.4190   25.3720 C.3    72  PRO72       0.0208
     39  CD        17.5060  -15.2220   24.1120 C.3    72  PRO72       0.0893
     40  N         15.1390  -11.2510   23.9720 N.am   73  TYR73      -0.1963
     41  CA        15.3990   -9.8260   23.8460 C.3    73  TYR73       0.1771
     42  C         15.1640   -9.1710   25.2000 C.2    73  TYR73       0.2620
     43  O         14.6980   -9.8140   26.1420 O.2    73  TYR73      -0.2715
     44  CB        14.4630   -9.2020   22.8230 C.3    73  TYR73       0.0574
     45  CG        14.4810   -9.8790   21.4780 C.ar   73  TYR73      -0.0198
     46  CD1       13.2970  -10.1950   20.8350 C.ar   73  TYR73      -0.0009
     47  CD2       15.6780  -10.1880   20.8450 C.ar   73  TYR73      -0.0009
     48  CE1       13.2990  -10.8040   19.6020 C.ar   73  TYR73       0.0417
     49  CE2       15.6900  -10.8030   19.6080 C.ar   73  TYR73       0.0417
     50  CZ        14.4930  -11.1040   18.9930 C.ar   73  TYR73       0.1957
     51  OH        14.4780  -11.7140   17.7610 O.3    73  TYR73      -0.2866
     52  N         15.4720   -7.8850   25.2910 N.am   74  THR74      -0.1937
     53  CA        15.2970   -7.1540   26.5370 C.3    74  THR74       0.2028
     54  C         13.8340   -7.1680   26.9720 C.2    74  THR74       0.2642
     55  O         13.5280   -7.3140   28.1550 O.2    74  THR74      -0.2714
     56  CB        15.7680   -5.6960   26.3950 C.3    74  THR74       0.1808
     57  OG1       14.7580   -4.9310   25.7280 O.3    74  THR74      -0.2208
     58  CG2       17.0650   -5.6300   25.5970 C.3    74  THR74       0.0379
     59  N         12.9320   -7.0400   26.0040 N.am   75  GLN75      -0.1976
     60  CA        11.5070   -6.9430   26.3000 C.3    75  GLN75       0.1601
     61  C         10.7260   -8.2360   26.0260 C.2    75  GLN75       0.2287
     62  O          9.7310   -8.5140   26.6940 O.2    75  GLN75      -0.2864
     63  CB        10.8860   -5.7710   25.5320 C.3    75  GLN75       0.0394
     64  CG        10.4370   -6.0920   24.1030 C.3    75  GLN75       0.0908
     65  CD        11.5590   -6.6060   23.2110 C.2    75  GLN75       0.2608
     66  OE1       12.7180   -6.2120   23.3530 O.2    75  GLN75      -0.2717
     67  NE2       11.2140   -7.4980   22.2860 N.am   75  GLN75      -0.0878
     68  N          5.7130  -11.7440   23.8880 N.3   109  LYS109     -0.1231
     69  CA         5.8090  -10.3320   23.5160 C.3   109  LYS109      0.1693
     70  C          6.6620  -10.0790   22.2770 C.2   109  LYS109      0.2592
     71  O          7.3820   -9.0910   22.2100 O.2   109  LYS109     -0.2718
     72  CB         6.3280   -9.4810   24.6810 C.3   109  LYS109      0.0285
     73  CG         5.2330   -8.8370   25.5120 C.3   109  LYS109      0.0035
     74  CD         4.8450   -9.6990   26.6980 C.3   109  LYS109      0.0206
     75  CE         5.9390   -9.6940   27.7500 C.3   109  LYS109      0.1093
     76  NZ         6.2190   -8.3190   28.2550 N.3   109  LYS109     -0.1314
     77  N          6.5740  -10.9700   21.2990 N.am  110  PHE110     -0.1976
     78  CA         7.3810  -10.8550   20.0920 C.3   110  PHE110      0.1639
     79  C          6.5320  -10.3760   18.9250 C.2   110  PHE110      0.2290
     80  O          6.7910   -9.3240   18.3440 O.2   110  PHE110     -0.2864
     81  CB         8.0100  -12.2090   19.7540 C.3   110  PHE110      0.0560
     82  CG         8.7940  -12.2130   18.4750 C.ar  110  PHE110     -0.0200
     83  CD1        9.9790  -11.5010   18.3680 C.ar  110  PHE110     -0.0042
     84  CD2        8.3600  -12.9500   17.3860 C.ar  110  PHE110     -0.0042
     85  CE1       10.7050  -11.5150   17.1940 C.ar  110  PHE110     -0.0003
     86  CE2        9.0800  -12.9700   16.2140 C.ar  110  PHE110     -0.0003
     87  CZ        10.2550  -12.2580   16.1170 C.ar  110  PHE110     -0.0000
     88  N          3.4470   -8.7750   16.9240 N.3   112  ILE112     -0.1245
     89  CA         2.6990   -7.5500   17.1800 C.3   112  ILE112      0.1561
     90  C          1.2590   -7.6490   16.6840 C.2   112  ILE112      0.2260
     91  O          1.0110   -8.0050   15.5320 O.2   112  ILE112     -0.2867
     92  CB         3.3980   -6.3370   16.5290 C.3   112  ILE112      0.0252
     93  CG1        4.8230   -6.2040   17.0760 C.3   112  ILE112      0.0019
     94  CG2        2.5910   -5.0620   16.7640 C.3   112  ILE112      0.0019
     95  CD1        5.7000   -5.2200   16.3140 C.3   112  ILE112      0.0001
     96  N          2.6750   -9.0290    9.8090 N.3   117  TRP117     -0.1241
     97  CA         3.8120   -9.8910    9.4580 C.3   117  TRP117      0.1605
     98  C          3.9450  -11.1030   10.3700 C.2   117  TRP117      0.2264
     99  O          3.5470  -11.0650   11.5430 O.2   117  TRP117     -0.2867
    100  CB         5.1450   -9.1230    9.3230 C.3   117  TRP117      0.0550
    101  CG         5.5540   -8.2560   10.4940 C.ar  117  TRP117      0.0003
    102  CD1        5.4100   -6.8970   10.5940 C.ar  117  TRP117      0.0946
    103  CD2        6.2150   -8.6750   11.7000 C.ar  117  TRP117      0.0152
    104  NE1        5.9120   -6.4560   11.7910 N.ar  117  TRP117     -0.2442
    105  CE2        6.4140   -7.5230   12.4880 C.ar  117  TRP117      0.0810
    106  CE3        6.6350   -9.9110   12.1990 C.ar  117  TRP117      0.0012
    107  CZ2        7.0260   -7.5700   13.7390 C.ar  117  TRP117      0.0191
    108  CZ3        7.2400   -9.9580   13.4430 C.ar  117  TRP117      0.0001
    109  CH2        7.4330   -8.7930   14.1990 C.ar  117  TRP117      0.0015
    110  N         10.5330  -12.7280   10.6650 N.3   120  ILE120     -0.1245
    111  CA        11.5350  -11.6810   10.5330 C.3   120  ILE120      0.1561
    112  C         12.6810  -12.1630    9.6370 C.2   120  ILE120      0.2260
    113  O         13.0870  -13.3250    9.6970 O.2   120  ILE120     -0.2867
    114  CB        12.0800  -11.2800   11.9120 C.3   120  ILE120      0.0252
    115  CG1       10.9480  -10.7260   12.7740 C.3   120  ILE120      0.0019
    116  CG2       13.1730  -10.2320   11.7960 C.3   120  ILE120      0.0019
    117  CD1       11.4310   -9.9580   13.9650 C.3   120  ILE120      0.0001
    118  N         26.2870  -12.0390   14.6750 N.3   128  ILE128     -0.1245
    119  CA        25.2640  -11.8710   15.7000 C.3   128  ILE128      0.1561
    120  C         24.0770  -12.8330   15.5570 C.2   128  ILE128      0.2260
    121  O         23.0450  -12.6450   16.1960 O.2   128  ILE128     -0.2867
    122  CB        24.7620  -10.4060   15.7940 C.3   128  ILE128      0.0252
    123  CG1       24.1760   -9.9350   14.4590 C.3   128  ILE128      0.0019
    124  CG2       25.9010   -9.4970   16.2240 C.3   128  ILE128      0.0019
    125  CD1       23.6320   -8.4860   14.4780 C.3   128  ILE128      0.0001
    126  N         21.9330  -16.3570   16.0040 N.3   130  ARG130     -0.1245
    127  CA        21.7440  -17.3390   17.0680 C.3   130  ARG130      0.1563
    128  C         21.4530  -18.6900   16.4350 C.2   130  ARG130      0.2260
    129  O         20.7720  -18.7490   15.4120 O.2   130  ARG130     -0.2867
    130  CB        20.5790  -16.9260   17.9590 C.3   130  ARG130      0.0307
    131  CG        20.7850  -15.5780   18.6240 C.3   130  ARG130      0.0489
    132  CD        21.5900  -15.7160   19.9000 C.3   130  ARG130      0.2205
    133  NE        21.4930  -14.5100   20.7170 N.pl3 130  ARG130     -0.0865
    134  CZ        21.5720  -14.4900   22.0440 C.cat 130  ARG130      0.5346
    135  NH1       21.7500  -15.6170   22.7210 N.pl3 130  ARG130      0.1354
    136  NH2       21.4690  -13.3390   22.6950 N.pl3 130  ARG130      0.1354
    137  N         26.4160   -6.0630   13.3840 N.3   193  TYR193     -0.1241
    138  CA        25.3840   -5.1250   12.9760 C.3   193  TYR193      0.1605
    139  C         25.9220   -4.3670   11.7670 C.2   193  TYR193      0.2264
    140  O         27.0990   -4.5110   11.4050 O.2   193  TYR193     -0.2867
    141  CB        25.1100   -4.1210   14.0930 C.3   193  TYR193      0.0534
    142  CG        24.5470   -4.7540   15.3400 C.ar  193  TYR193     -0.0201
    143  CD1       23.1970   -5.0960   15.4200 C.ar  193  TYR193     -0.0009
    144  CD2       25.3600   -5.0120   16.4390 C.ar  193  TYR193     -0.0009
    145  CE1       22.6720   -5.6990   16.5720 C.ar  193  TYR193      0.0417
    146  CE2       24.8490   -5.6040   17.5870 C.ar  193  TYR193      0.0417
    147  CZ        23.5100   -5.9440   17.6490 C.ar  193  TYR193      0.1957
    148  OH        23.0190   -6.5200   18.7930 O.3   193  TYR193     -0.2866
    149  N         19.3350    0.4160   11.3920 N.3   223  ASP223     -0.1239
    150  CA        18.4390   -0.6740   11.7720 C.3   223  ASP223      0.1674
    151  C         16.9910   -0.4650   11.3210 C.2   223  ASP223      0.2266
    152  O         16.2320    0.2330   11.9740 O.2   223  ASP223     -0.2867
    153  CB        18.4900   -0.8830   13.2900 C.3   223  ASP223      0.1410
    154  CG        17.6170   -2.0400   13.7590 C.2   223  ASP223      0.3668
    155  OD1       17.0990   -2.7850   12.9090 O.co2 223  ASP223     -0.2456
    156  OD2       17.4620   -2.2170   14.9880 O.co2 223  ASP223     -0.2456
    157  N         14.6440   -2.4100   11.5160 N.3   225  GLY225     -0.1210
    158  CA        13.7350   -3.0910   12.4290 C.3   225  GLY225      0.1956
    159  C         13.4310   -2.3460   13.7200 C.2   225  GLY225      0.2612
    160  O         12.6950   -2.8480   14.5780 O.2   225  GLY225     -0.2717
    161  N         14.0070   -1.1580   13.8680 N.am  226  THR226     -0.1952
    162  CA        13.6920   -0.2580   14.9760 C.3   226  THR226      0.1897
    163  C         12.9820    0.9810   14.4360 C.2   226  THR226      0.2313
    164  O         13.4130    1.5630   13.4390 O.2   226  THR226     -0.2863
    165  CB        14.9800    0.1860   15.7170 C.3   226  THR226      0.1794
    166  OG1       15.5310   -0.9210   16.4450 O.3   226  THR226     -0.2208
    167  CG2       14.6880    1.3370   16.6840 C.3   226  THR226      0.0378
@<TRIPOS>BOND
     1     3     4    2
     2     3     2    1
     3     1     2    1
     4     9    10    1
     5     2     5    1
     6   100    97    1
     7   100   101    1
     8    97    96    1
     9    97    98    1
    10    11    10    1
    11    11    12    2
    12   112   113    2
    13   112   111    1
    14    10    13    1
    15     5     6    1
    16     7     6    1
    17    98    99    2
    18   101   102   ar
    19   101   103   ar
    20     6     8    1
    21   111   110    1
    22   111   114    1
    23   102   104   ar
    24    30    29    2
    25    13    14    1
    26    24    23    2
    27   151   150    1
    28   151   152    2
    29    29    28    1
    30   149   150    1
    31   140   139    2
    32    28    31    1
    33    28    27    1
    34   157   158    1
    35    17    18    1
    36   103   106   ar
    37   103   105   ar
    38    31    32    1
    39   139   138    1
    40   150   153    1
    41   104   105   ar
    42   116   114    1
    43   114   115    1
    44    14    15   ar
    45    14    16   ar
    46    23    27   am
    47    23    22    1
    48   106   108   ar
    49   158   159    1
    50   105   107   ar
    51   115   117    1
    52    21    22    1
    53    21    19   am
    54   155   154   ar
    55   138   137    1
    56   138   141    1
    57    18    19    1
    58    26    25    1
    59   153   154    1
    60    22    25    1
    61   164   163    2
    62   108   109   ar
    63    19    20    2
    64   159   161   am
    65   159   160    2
    66   107   109   ar
    67   154   156   ar
    68   161   162    1
    69   141   142    1
    70   163   162    1
    71   123   125    1
    72   123   122    1
    73   118   119    1
    74   162   165    1
    75   142   143   ar
    76   142   144   ar
    77   129   128    2
    78   143   145   ar
    79    91    90    2
    80   120   119    1
    81   120   121    2
    82   119   122    1
    83   165   166    1
    84   165   167    1
    85   122   124    1
    86   126   127    1
    87    87    86   ar
    88    87    85   ar
    89    86    84   ar
    90    95    93    1
    91   128   127    1
    92   144   146   ar
    93    92    94    1
    94    92    93    1
    95    92    89    1
    96   145   147   ar
    97    90    89    1
    98    88    89    1
    99   127   130    1
   100    85    83   ar
   101    84    82   ar
   102   146   147   ar
   103   147   148    1
   104    51    50    1
   105   130   131    1
   106    80    79    2
   107    83    82   ar
   108    82    81    1
   109   131   132    1
   110    79    78    1
   111    50    48   ar
   112    50    49   ar
   113    48    46   ar
   114    49    47   ar
   115    81    78    1
   116   132   133    1
   117    78    77    1
   118   133   134    2
   119    46    45   ar
   120    47    45   ar
   121    77    70   am
   122    45    44    1
   123   134   136    1
   124   134   135    1
   125    71    70    2
   126    70    69    1
   127    67    65   am
   128    44    41    1
   129    65    66    2
   130    65    64    1
   131    69    68    1
   132    69    72    1
   133    33    39    1
   134    33    34    1
   135    36    35    2
   136    41    40    1
   137    41    42    1
   138    35    40   am
   139    35    34    1
   140    64    63    1
   141    39    38    1
   142    34    37    1
   143    72    73    1
   144    42    52   am
   145    42    43    2
   146    52    53    1
   147    38    37    1
   148    73    74    1
   149    63    60    1
   150    58    56    1
   151    57    56    1
   152    59    60    1
   153    59    54   am
   154    61    60    1
   155    61    62    2
   156    56    53    1
   157    53    54    1
   158    74    75    1
   159    54    55    2
   160    75    76    1
