@<TRIPOS>MOLECULE
tmp/4l7jA00.pdb
 189 181 0 0 0
SMALL
GASTEIGER

@<TRIPOS>ATOM
      1  N          9.0350   -9.3940    8.1020 N.3    32  LEU32      -0.1245
      2  CA         9.6810   -8.0830    8.4790 C.3    32  LEU32       0.1561
      3  C         11.1290   -8.0260    7.9890 C.2    32  LEU32       0.2260
      4  O         11.9320   -8.9360    8.1870 O.2    32  LEU32      -0.2867
      5  CB         9.6660   -7.9560    9.9950 C.3    32  LEU32       0.0270
      6  CG        10.3340   -6.6500   10.4710 C.3    32  LEU32       0.0019
      7  CD1        9.4720   -5.4770   10.4110 C.3    32  LEU32       0.0001
      8  CD2       10.7890   -6.9470   11.9070 C.3    32  LEU32       0.0001
      9  N         14.6530   -6.8050    8.5020 N.3    34  ASP34      -0.1239
     10  CA        15.3430   -6.3560    9.7050 C.3    34  ASP34       0.1674
     11  C         16.8300   -6.3360    9.5280 C.2    34  ASP34       0.2266
     12  O         17.4860   -7.3730    9.6490 O.2    34  ASP34      -0.2867
     13  CB        14.9580   -7.2750   10.9050 C.3    34  ASP34       0.1410
     14  CG        15.5090   -6.8050   12.2420 C.2    34  ASP34       0.3668
     15  OD1       16.0530   -5.6760   12.3350 O.co2  34  ASP34      -0.2456
     16  OD2       15.5010   -7.6030   13.1990 O.co2  34  ASP34      -0.2456
     17  N         18.8320   -5.1950   11.5520 N.3    36  GLY36      -0.1210
     18  CA        19.4050   -5.2800   12.9060 C.3    36  GLY36       0.1956
     19  C         19.5620   -6.6410   13.5420 C.2    36  GLY36       0.2613
     20  O         19.7670   -6.7790   14.7870 O.2    36  GLY36      -0.2717
     21  N         19.3420   -7.6540   12.7270 N.am   37  SER37      -0.1938
     22  CA        19.4740   -9.0620   13.2430 C.3    37  SER37       0.2055
     23  C         19.8030   -9.9380   12.0620 C.2    37  SER37       0.2644
     24  O         19.8550   -9.4820   10.9430 O.2    37  SER37      -0.2714
     25  CB        18.1800   -9.5580   13.9580 C.3    37  SER37       0.2130
     26  OG        17.0830   -9.6880   13.0190 O.3    37  SER37      -0.2179
     27  N         20.0710  -11.2300   12.3350 N.am   38  SER38      -0.1935
     28  CA        20.6840  -12.0550   11.3020 C.3    38  SER38       0.2055
     29  C         20.0500  -13.4480   11.1690 C.2    38  SER38       0.2643
     30  O         20.6340  -14.3080   10.4900 O.2    38  SER38      -0.2714
     31  CB        22.2070  -12.2490   11.5530 C.3    38  SER38       0.2130
     32  OG        22.7680  -10.9320   11.5830 O.3    38  SER38      -0.2179
     33  N         18.8770  -13.6470   11.7980 N.am   39  ASN39      -0.1971
     34  CA        18.1660  -14.9030   11.6440 C.3    39  ASN39       0.1688
     35  C         16.9260  -14.7620   10.7500 C.2    39  ASN39       0.2292
     36  O         16.2080  -13.7400   10.8130 O.2    39  ASN39      -0.2864
     37  CB        17.6740  -15.4040   13.0060 C.3    39  ASN39       0.1181
     38  CG        18.7820  -16.1190   13.7810 C.2    39  ASN39       0.2629
     39  OD1       19.5650  -15.4660   14.4460 O.2    39  ASN39      -0.2716
     40  ND2       18.8150  -17.4900   13.7180 N.am   39  ASN39      -0.0877
     41  N         16.1670  -17.2170   21.3840 N.3    71  VAL71      -0.1245
     42  CA        16.5460  -15.8690   21.0780 C.3    71  VAL71       0.1561
     43  C         15.8790  -14.8790   22.0250 C.2    71  VAL71       0.2260
     44  O         14.8360  -14.3040   21.7020 O.2    71  VAL71      -0.2867
     45  CB        16.2430  -15.5520   19.6160 C.3    71  VAL71       0.0252
     46  CG1       16.7630  -14.2230   19.2700 C.3    71  VAL71       0.0019
     47  CG2       16.8980  -16.5890   18.7260 C.3    71  VAL71       0.0019
     48  N         15.8910  -11.2900   23.8050 N.3    73  TYR73      -0.1227
     49  CA        16.3770   -9.9350   23.6570 C.3    73  TYR73       0.1736
     50  C         15.5410   -9.1940   24.7160 C.2    73  TYR73       0.2596
     51  O         14.9520   -9.8200   25.6110 O.2    73  TYR73      -0.2718
     52  CB        16.1080   -9.4350   22.2190 C.3    73  TYR73       0.0548
     53  CG        14.6320   -9.4910   21.8500 C.ar   73  TYR73      -0.0200
     54  CD1       13.8150   -8.3810   22.0380 C.ar   73  TYR73      -0.0009
     55  CD2       14.0460  -10.6600   21.3700 C.ar   73  TYR73      -0.0009
     56  CE1       12.4640   -8.4250   21.7450 C.ar   73  TYR73       0.0417
     57  CE2       12.6960  -10.7140   21.0770 C.ar   73  TYR73       0.0417
     58  CZ        11.9090   -9.5880   21.2690 C.ar   73  TYR73       0.1957
     59  OH        10.5560   -9.5880   20.9850 O.3    73  TYR73      -0.2866
     60  N         15.4710   -7.8750   24.6530 N.am   74  THR74      -0.1939
     61  CA        14.3700   -7.2120   25.3520 C.3    74  THR74       0.2028
     62  C         13.7560   -6.1620   24.4190 C.2    74  THR74       0.2642
     63  O         14.4760   -5.5390   23.6290 O.2    74  THR74      -0.2714
     64  CB        14.7890   -6.6920   26.7390 C.3    74  THR74       0.1808
     65  OG1       13.9960   -7.3490   27.7370 O.3    74  THR74      -0.2208
     66  CG2       14.6090   -5.1880   26.8440 C.3    74  THR74       0.0379
     67  N         12.4420   -5.9620   24.4620 N.am   75  GLN75      -0.1976
     68  CA        11.5190   -6.3940   25.5080 C.3    75  GLN75       0.1601
     69  C         10.9250   -7.8110   25.4130 C.2    75  GLN75       0.2287
     70  O          9.7960   -8.0150   25.8550 O.2    75  GLN75      -0.2864
     71  CB        10.3350   -5.4270   25.4480 C.3    75  GLN75       0.0394
     72  CG         9.6460   -5.4610   24.0560 C.3    75  GLN75       0.0908
     73  CD         8.8490   -4.2010   23.7070 C.2    75  GLN75       0.2608
     74  OE1        7.6880   -4.0560   24.1040 O.2    75  GLN75      -0.2717
     75  NE2        9.4640   -3.3000   22.9370 N.am   75  GLN75      -0.0878
     76  N         11.9640  -15.2290   21.6760 N.3    78  TRP78      -0.1241
     77  CA        11.3500  -16.3270   20.9580 C.3    78  TRP78       0.1605
     78  C         12.2740  -17.5250   20.9770 C.2    78  TRP78       0.2264
     79  O         13.4840  -17.3880   21.2510 O.2    78  TRP78      -0.2867
     80  CB        10.9060  -15.9360   19.5500 C.3    78  TRP78       0.0550
     81  CG        11.9830  -15.4470   18.5840 C.ar   78  TRP78       0.0003
     82  CD1       12.2310  -14.1310   18.2030 C.ar   78  TRP78       0.0946
     83  CD2       12.9180  -16.2560   17.8180 C.ar   78  TRP78       0.0152
     84  NE1       13.2730  -14.0980   17.2990 N.ar   78  TRP78      -0.2442
     85  CE2       13.6740  -15.3820   17.0150 C.ar   78  TRP78       0.0810
     86  CE3       13.1560  -17.6490   17.7220 C.ar   78  TRP78       0.0012
     87  CZ2       14.6890  -15.8380   16.1620 C.ar   78  TRP78       0.0191
     88  CZ3       14.1380  -18.0900   16.8550 C.ar   78  TRP78       0.0001
     89  CH2       14.8810  -17.1890   16.0800 C.ar   78  TRP78       0.0015
     90  N          6.0650  -11.3320   23.6230 N.3   109  LYS109     -0.1231
     91  CA         6.2320   -9.9190   23.1900 C.3   109  LYS109      0.1693
     92  C          7.0360   -9.7120   21.8960 C.2   109  LYS109      0.2592
     93  O          7.7210   -8.7060   21.7020 O.2   109  LYS109     -0.2718
     94  CB         6.7350   -9.0430   24.3440 C.3   109  LYS109      0.0285
     95  CG         5.7650   -9.0660   25.5220 C.3   109  LYS109      0.0035
     96  CD         6.2920   -8.2960   26.7120 C.3   109  LYS109      0.0206
     97  CE         6.5800   -6.8520   26.3260 C.3   109  LYS109      0.1093
     98  NZ         7.3930   -6.1340   27.3610 N.3   109  LYS109     -0.1314
     99  N          6.9090  -10.6790   20.9940 N.am  110  PHE110     -0.1976
    100  CA         7.5680  -10.6180   19.6980 C.3   110  PHE110      0.1639
    101  C          6.5820  -10.2580   18.6110 C.2   110  PHE110      0.2290
    102  O          6.7120   -9.2370   17.9590 O.2   110  PHE110     -0.2864
    103  CB         8.2010  -11.9810   19.3650 C.3   110  PHE110      0.0560
    104  CG         8.9430  -11.9910   18.0820 C.ar  110  PHE110     -0.0200
    105  CD1       10.0650  -11.1650   17.9030 C.ar  110  PHE110     -0.0042
    106  CD2        8.5430  -12.8310   17.0500 C.ar  110  PHE110     -0.0042
    107  CE1       10.7620  -11.1620   16.6920 C.ar  110  PHE110     -0.0003
    108  CE2        9.2500  -12.8470   15.8450 C.ar  110  PHE110     -0.0003
    109  CZ        10.3590  -12.0260   15.6650 C.ar  110  PHE110     -0.0000
    110  N          3.2660   -8.8860   16.8450 N.3   112  ILE112     -0.1245
    111  CA         2.6190   -7.6160   17.1700 C.3   112  ILE112      0.1561
    112  C          1.1930   -7.6630   16.6640 C.2   112  ILE112      0.2260
    113  O          0.9460   -7.9480   15.4970 O.2   112  ILE112     -0.2867
    114  CB         3.3300   -6.4070   16.5250 C.3   112  ILE112      0.0252
    115  CG1        4.7820   -6.2670   17.0400 C.3   112  ILE112      0.0019
    116  CG2        2.5300   -5.1170   16.8120 C.3   112  ILE112      0.0019
    117  CD1        5.6620   -5.2470   16.2560 C.3   112  ILE112      0.0001
    118  N          2.6030   -9.1660    9.7440 N.3   117  TRP117     -0.1241
    119  CA         3.7820   -9.9970    9.3710 C.3   117  TRP117      0.1605
    120  C          3.9070  -11.1860   10.3340 C.2   117  TRP117      0.2264
    121  O          3.4180  -11.1390   11.5070 O.2   117  TRP117     -0.2867
    122  CB         5.0830   -9.1560    9.3190 C.3   117  TRP117      0.0550
    123  CG         5.4820   -8.3420   10.5570 C.ar  117  TRP117      0.0003
    124  CD1        5.3570   -6.9720   10.6960 C.ar  117  TRP117      0.0946
    125  CD2        6.1740   -8.8070   11.7570 C.ar  117  TRP117      0.0152
    126  NE1        5.8670   -6.5840   11.9240 N.ar  117  TRP117     -0.2442
    127  CE2        6.3800   -7.6760   12.5770 C.ar  117  TRP117      0.0810
    128  CE3        6.6020  -10.0710   12.2150 C.ar  117  TRP117      0.0012
    129  CZ2        6.9770   -7.7620   13.8310 C.ar  117  TRP117      0.0191
    130  CZ3        7.2330  -10.1590   13.4690 C.ar  117  TRP117      0.0001
    131  CH2        7.4210   -9.0150   14.2600 C.ar  117  TRP117      0.0015
    132  N         10.5620  -12.8240   10.4720 N.3   120  ILE120     -0.1245
    133  CA        11.5670  -11.7400   10.3560 C.3   120  ILE120      0.1561
    134  C         12.6880  -12.2480    9.4650 C.2   120  ILE120      0.2260
    135  O         13.0680  -13.4120    9.5480 O.2   120  ILE120     -0.2867
    136  CB        12.0690  -11.4640   11.8000 C.3   120  ILE120      0.0252
    137  CG1       13.0250  -10.3060   11.9020 C.3   120  ILE120      0.0019
    138  CG2       12.6800  -12.7470   12.4340 C.3   120  ILE120      0.0019
    139  CD1       13.3540  -10.0800   13.3690 C.3   120  ILE120      0.0001
    140  N         26.2640  -12.1840   14.5150 N.3   128  ILE128     -0.1245
    141  CA        25.1960  -11.9980   15.5060 C.3   128  ILE128      0.1561
    142  C         24.0190  -12.9670   15.3250 C.2   128  ILE128      0.2260
    143  O         22.9940  -12.7830   15.9190 O.2   128  ILE128     -0.2867
    144  CB        24.6700  -10.5210   15.5840 C.3   128  ILE128      0.0252
    145  CG1       24.1750   -9.9880   14.2260 C.3   128  ILE128      0.0019
    146  CG2       25.8380   -9.6260   16.0950 C.3   128  ILE128      0.0019
    147  CD1       23.4720   -8.6100   14.3360 C.3   128  ILE128      0.0001
    148  N         21.9670  -16.4650   15.8410 N.3   130  ARG130     -0.1245
    149  CA        21.7440  -17.4400   16.9000 C.3   130  ARG130      0.1563
    150  C         21.4840  -18.7610   16.2560 C.2   130  ARG130      0.2260
    151  O         20.8130  -18.8500   15.2690 O.2   130  ARG130     -0.2867
    152  CB        20.5270  -17.0920   17.7230 C.3   130  ARG130      0.0307
    153  CG        20.5870  -15.6980   18.3380 C.3   130  ARG130      0.0489
    154  CD        21.7360  -15.4690   19.2720 C.3   130  ARG130      0.2205
    155  NE        21.4620  -14.2550   20.0510 N.pl3 130  ARG130     -0.0865
    156  CZ        21.1610  -14.2490   21.3510 C.cat 130  ARG130      0.5346
    157  NH1       21.1490  -15.3850   22.0470 N.pl3 130  ARG130      0.1354
    158  NH2       20.8980  -13.1000   21.9640 N.pl3 130  ARG130      0.1354
    159  N         26.4030   -6.2550   13.3210 N.3   193  TYR193     -0.1241
    160  CA        25.3990   -5.2550   12.8590 C.3   193  TYR193      0.1605
    161  C         25.9480   -4.5260   11.6510 C.2   193  TYR193      0.2264
    162  O         27.1430   -4.6530   11.3130 O.2   193  TYR193     -0.2867
    163  CB        25.1490   -4.2210   13.9660 C.3   193  TYR193      0.0534
    164  CG        24.6260   -4.8730   15.2220 C.ar  193  TYR193     -0.0201
    165  CD1       23.2760   -5.2110   15.3380 C.ar  193  TYR193     -0.0009
    166  CD2       25.4870   -5.1300   16.3100 C.ar  193  TYR193     -0.0009
    167  CE1       22.7870   -5.8270   16.4580 C.ar  193  TYR193      0.0417
    168  CE2       24.9870   -5.7500   17.4460 C.ar  193  TYR193      0.0417
    169  CZ        23.6580   -6.1010   17.5170 C.ar  193  TYR193      0.1957
    170  OH        23.1820   -6.7030   18.6720 O.3   193  TYR193     -0.2866
    171  N         19.3480    0.2980   11.3490 N.3   223  ASP223     -0.1239
    172  CA        18.4520   -0.7990   11.7740 C.3   223  ASP223      0.1674
    173  C         17.0190   -0.5610   11.3160 C.2   223  ASP223      0.2266
    174  O         16.2600    0.1350   11.9500 O.2   223  ASP223     -0.2867
    175  CB        18.4640   -0.9290   13.3040 C.3   223  ASP223      0.1410
    176  CG        17.6070   -2.1260   13.7990 C.2   223  ASP223      0.3668
    177  OD1       17.1780   -2.8870   12.9330 O.co2 223  ASP223     -0.2456
    178  OD2       17.4280   -2.2450   15.0150 O.co2 223  ASP223     -0.2456
    179  N         14.6780   -2.5850   11.5180 N.3   225  GLY225     -0.1210
    180  CA        13.7510   -3.2480   12.5080 C.3   225  GLY225      0.1956
    181  C         13.5210   -2.4970   13.8060 C.2   225  GLY225      0.2612
    182  O         12.8660   -2.9710   14.7330 O.2   225  GLY225     -0.2717
    183  N         13.9900   -1.2360   13.8780 N.am  226  THR226     -0.1952
    184  CA        13.6860   -0.3860   15.0090 C.3   226  THR226      0.1897
    185  C         12.9980    0.8590   14.4610 C.2   226  THR226      0.2313
    186  O         13.4370    1.4020   13.3950 O.2   226  THR226     -0.2863
    187  CB        15.0580    0.1250   15.6840 C.3   226  THR226      0.1794
    188  OG1       15.6160   -0.9110   16.4960 O.3   226  THR226     -0.2208
    189  CG2       14.8120    1.3640   16.5930 C.3   226  THR226      0.0378
@<TRIPOS>BOND
     1     3     4    2
     2     3     2    1
     3     1     2    1
     4     2     5    1
     5     9    10    1
     6   122   119    1
     7   122   123    1
     8   119   118    1
     9   119   120    1
    10   134   135    2
    11   134   133    1
    12    11    12    2
    13    11    10    1
    14    10    13    1
    15     5     6    1
    16   120   121    2
    17   133   132    1
    18   133   136    1
    19     7     6    1
    20     6     8    1
    21    30    29    2
    22   123   124   ar
    23   123   125   ar
    24   124   126   ar
    25    35    36    2
    26    35    34    1
    27    13    14    1
    28    24    23    2
    29    29    28    1
    30    29    33   am
    31    28    31    1
    32    28    27    1
    33   162   161    2
    34   173   172    1
    35   173   174    2
    36   171   172    1
    37   179   180    1
    38    17    18    1
    39    31    32    1
    40    34    33    1
    41    34    37    1
    42   161   160    1
    43   125   128   ar
    44   125   127   ar
    45   172   175    1
    46   136   137    1
    47   136   138    1
    48   137   139    1
    49   126   127   ar
    50    23    27   am
    51    23    22    1
    52   128   130   ar
    53    14    15   ar
    54    14    16   ar
    55   180   181    1
    56   127   129   ar
    57    21    22    1
    58    21    19   am
    59   160   159    1
    60   160   163    1
    61    18    19    1
    62   177   176   ar
    63    37    38    1
    64    26    25    1
    65    22    25    1
    66   175   176    1
    67   186   185    2
    68   130   131   ar
    69    19    20    2
    70    40    38   am
    71    38    39    2
    72   176   178   ar
    73   181   183   am
    74   181   182    2
    75   129   131   ar
    76   183   184    1
    77   163   164    1
    78   145   147    1
    79   145   144    1
    80   185   184    1
    81   140   141    1
    82   184   187    1
    83   164   165   ar
    84   164   166   ar
    85   151   150    2
    86   142   141    1
    87   142   143    2
    88   165   167   ar
    89   113   112    2
    90   141   144    1
    91   144   146    1
    92   109   108   ar
    93   109   107   ar
    94   187   188    1
    95   187   189    1
    96   148   149    1
    97   108   106   ar
    98    89    87   ar
    99    89    88   ar
   100    87    85   ar
   101   150   149    1
   102   117   115    1
   103   166   168   ar
   104   167   169   ar
   105   114   116    1
   106   114   115    1
   107   114   111    1
   108   112   111    1
   109   107   105   ar
   110   110   111    1
   111    88    86   ar
   112   149   152    1
   113    85    84   ar
   114    85    83   ar
   115   106   104   ar
   116    84    82   ar
   117   168   169   ar
   118   169   170    1
   119    86    83   ar
   120   152   153    1
   121    83    81   ar
   122   105   104   ar
   123   102   101    2
   124   104   103    1
   125    82    81   ar
   126   153   154    1
   127    81    80    1
   128   101   100    1
   129    47    45    1
   130    46    45    1
   131   154   155    1
   132   103   100    1
   133    80    77    1
   134    45    42    1
   135   100    99    1
   136   155   156    2
   137    77    78    1
   138    77    76    1
   139    78    79    2
   140    59    58    1
   141    99    92   am
   142    57    58   ar
   143    57    55   ar
   144    42    41    1
   145    42    43    1
   146    58    56   ar
   147   156   158    1
   148   156   157    1
   149    55    53   ar
   150    93    92    2
   151    44    43    2
   152    56    54   ar
   153    53    54   ar
   154    53    52    1
   155    92    91    1
   156    52    49    1
   157    75    73   am
   158    91    90    1
   159    91    94    1
   160    63    62    2
   161    49    48    1
   162    49    50    1
   163    73    72    1
   164    73    74    2
   165    72    71    1
   166    94    95    1
   167    62    67   am
   168    62    61    1
   169    67    68    1
   170    60    50   am
   171    60    61    1
   172    50    51    2
   173    61    64    1
   174    69    68    1
   175    69    70    2
   176    71    68    1
   177    95    96    1
   178    97    96    1
   179    97    98    1
   180    64    66    1
   181    64    65    1
