@<TRIPOS>MOLECULE
tmp/4l7nA00.pdb
 169 160 0 0 0
SMALL
GASTEIGER

@<TRIPOS>ATOM
      1  N         29.1280   -5.3840   16.8580 N.3   105  ASP105     -0.1239
      2  CA        27.8070   -4.7520   16.7740 C.3   105  ASP105      0.1674
      3  C         27.6690   -3.5720   17.7300 C.2   105  ASP105      0.2266
      4  O         27.0610   -2.5460   17.3630 O.2   105  ASP105     -0.2867
      5  CB        26.6900   -5.7800   16.9730 C.3   105  ASP105      0.1410
      6  CG        26.5950   -6.7460   15.8130 C.2   105  ASP105      0.3668
      7  OD1       27.2030   -6.4630   14.7670 O.co2 105  ASP105     -0.2456
      8  OD2       25.9390   -7.8180   15.9690 O.co2 105  ASP105     -0.2456
      9  N         29.4640   -0.6640   16.2410 N.3   108  LEU108     -0.1231
     10  CA        28.6620   -0.1130   15.1120 C.3   108  LEU108      0.1693
     11  C         27.5600    0.8420   15.6320 C.2   108  LEU108      0.2591
     12  O         27.3060    1.9450   15.0530 O.2   108  LEU108     -0.2718
     13  CB        28.0460   -1.2200   14.2610 C.3   108  LEU108      0.0284
     14  CG        29.0510   -2.0310   13.4240 C.3   108  LEU108      0.0019
     15  CD1       28.3860   -3.2560   12.8090 C.3   108  LEU108      0.0001
     16  CD2       29.6530   -1.1900   12.3560 C.3   108  LEU108      0.0001
     17  N         26.9510    0.4530   16.7430 N.am  109  VAL109     -0.1980
     18  CA        25.9190    1.2710   17.3890 C.3   109  VAL109      0.1595
     19  C         26.6120    2.5200   17.9930 C.2   109  VAL109      0.2287
     20  O         26.1780    3.6580   17.7700 O.2   109  VAL109     -0.2864
     21  CB        25.1420    0.4860   18.5050 C.3   109  VAL109      0.0276
     22  CG1       24.2650    1.4760   19.3830 C.3   109  VAL109      0.0022
     23  CG2       24.2680   -0.5910   17.9480 C.3   109  VAL109      0.0022
     24  N         29.3480    3.9810   17.0380 N.3   111  ALA111     -0.1231
     25  CA        29.7200    4.8080   15.8800 C.3   111  ALA111      0.1694
     26  C         28.5800    5.7030   15.4370 C.2   111  ALA111      0.2592
     27  O         28.7960    6.8500   15.0770 O.2   111  ALA111     -0.2718
     28  CB        30.2650    3.8750   14.6660 C.3   111  ALA111      0.0304
     29  N         27.3500    5.2160   15.5130 N.am  112  ASP112     -0.1974
     30  CA        26.1820    6.0320   15.1810 C.3   112  ASP112      0.1709
     31  C         25.7720    6.9740   16.2850 C.2   112  ASP112      0.2293
     32  O         25.2090    8.0450   16.0110 O.2   112  ASP112     -0.2864
     33  CB        24.9820    5.1640   14.8020 C.3   112  ASP112      0.1436
     34  CG        25.0620    4.6880   13.3390 C.2   112  ASP112      0.3671
     35  OD1       25.9480    5.2340   12.5790 O.co2 112  ASP112     -0.2456
     36  OD2       24.2310    3.8450   12.9550 O.co2 112  ASP112     -0.2456
     37  N         12.5200   -2.8480    8.8520 N.3   205  HIS205     -0.1226
     38  CA        13.8120   -2.7850    9.4730 C.3   205  HIS205      0.1752
     39  C         13.6930   -2.1570   10.8710 C.2   205  HIS205      0.2597
     40  O         13.4910   -0.9500   11.0240 O.2   205  HIS205     -0.2718
     41  CB        14.8080   -2.0340    8.6150 C.3   205  HIS205      0.0759
     42  CG        16.2070   -2.0740    9.1460 C.ar  205  HIS205      0.0818
     43  ND1       17.1040   -3.0750    8.8090 N.ar  205  HIS205     -0.2268
     44  CD2       16.8640   -1.2450   10.0100 C.ar  205  HIS205      0.1154
     45  CE1       18.2570   -2.8460    9.4300 C.ar  205  HIS205      0.1986
     46  NE2       18.1410   -1.7480   10.1710 N.ar  205  HIS205     -0.2212
     47  N         13.8240   -2.9780   11.8990 N.am  206  GLY206     -0.1942
     48  CA        13.7980   -2.5200   13.2730 C.3   206  GLY206      0.2014
     49  C         15.1840   -2.2490   13.8060 C.2   206  GLY206      0.2640
     50  O         16.1210   -2.9410   13.5280 O.2   206  GLY206     -0.2714
     51  N         15.2610   -1.2440   14.6640 N.am  207  THR207     -0.1936
     52  CA        16.5130   -0.8800   15.1750 C.3   207  THR207      0.2028
     53  C         16.4700   -0.2320   16.5550 C.2   207  THR207      0.2642
     54  O         15.4740    0.0030   17.0540 O.2   207  THR207     -0.2714
     55  CB        17.1600    0.1110   14.2250 C.3   207  THR207      0.1808
     56  OG1       18.5540   -0.0160   14.3630 O.3   207  THR207     -0.2208
     57  CG2       16.7810    1.4750   14.6010 C.3   207  THR207      0.0379
     58  N         17.6580   -0.0030   17.0740 N.am  208  ASN208     -0.1971
     59  CA        17.9250    0.7290   18.3090 C.3   208  ASN208      0.1688
     60  C         17.4730    2.1970   18.1180 C.2   208  ASN208      0.2292
     61  O         17.7980    2.7700   17.1830 O.2   208  ASN208     -0.2864
     62  CB        19.4600    0.8470   18.5080 C.3   208  ASN208      0.1181
     63  CG        20.0520   -0.1360   19.4670 C.2   208  ASN208      0.2629
     64  OD1       20.0710    0.0700   20.6350 O.2   208  ASN208     -0.2716
     65  ND2       20.6540   -1.1350   18.9450 N.am  208  ASN208     -0.0877
     66  N         20.2770    4.6480   16.8900 N.3   211  VAL211     -0.1245
     67  CA        20.8230    4.7360   15.5310 C.3   211  VAL211      0.1561
     68  C         19.8320    5.3840   14.5650 C.2   211  VAL211      0.2260
     69  O         20.1490    5.5400   13.3860 O.2   211  VAL211     -0.2867
     70  CB        21.3230    3.3690   15.0480 C.3   211  VAL211      0.0252
     71  CG1       22.2670    2.7410   16.1090 C.3   211  VAL211      0.0019
     72  CG2       20.1870    2.4550   14.7870 C.3   211  VAL211      0.0019
     73  N         20.5570    6.8360   10.7470 N.3   215  ILE215     -0.1245
     74  CA        19.8720    6.2500    9.5940 C.3   215  ILE215      0.1561
     75  C         19.1690    7.3620    8.8250 C.2   215  ILE215      0.2260
     76  O         19.2260    7.4030    7.5920 O.2   215  ILE215     -0.2867
     77  CB        18.8740    5.1550   10.0400 C.3   215  ILE215      0.0252
     78  CG1       19.7120    3.9440   10.5060 C.3   215  ILE215      0.0019
     79  CG2       17.9340    4.7060    8.9160 C.3   215  ILE215      0.0019
     80  CD1       18.8520    2.8640   11.2060 C.3   215  ILE215      0.0001
     81  N         23.0780    1.3210    6.0300 N.3   221  ARG221     -0.1245
     82  CA        24.4600    1.1700    5.5940 C.3   221  ARG221      0.1563
     83  C         25.0030   -0.2240    5.8940 C.2   221  ARG221      0.2260
     84  O         24.5340   -0.9380    6.8160 O.2   221  ARG221     -0.2867
     85  CB        25.3600    2.1710    6.3160 C.3   221  ARG221      0.0307
     86  CG        25.2840    3.6010    5.7830 C.3   221  ARG221      0.0489
     87  CD        25.4890    4.6640    6.9340 C.3   221  ARG221      0.2205
     88  NE        24.4110    4.5190    7.9180 N.pl3 221  ARG221     -0.0865
     89  CZ        24.5300    4.7440    9.2380 C.cat 221  ARG221      0.5346
     90  NH1       25.6730    5.1550    9.7800 N.pl3 221  ARG221      0.1354
     91  NH2       23.5030    4.5230   10.0310 N.pl3 221  ARG221      0.1354
     92  N         28.6080   -1.6530    6.8380 N.3   223  MET223     -0.1245
     93  CA        29.9630   -1.2380    7.2950 C.3   223  MET223      0.1570
     94  C         30.8870   -2.4270    7.3300 C.2   223  MET223      0.2261
     95  O         30.4190   -3.5740    7.4100 O.2   223  MET223     -0.2867
     96  CB        29.8750   -0.6100    8.7010 C.3   223  MET223      0.0387
     97  CG        29.0460    0.6330    8.7690 C.3   223  MET223      0.0595
     98  SD        29.6390    2.0250    7.7570 S.3   223  MET223     -0.1393
     99  CE        31.3600    2.0390    8.1920 C.3   223  MET223      0.0692
    100  N         30.1400   -5.2410    9.7720 N.3   226  SER226     -0.1217
    101  CA        28.7850   -5.7730    9.9640 C.3   226  SER226      0.1889
    102  C         28.6800   -7.2330    9.5230 C.2   226  SER226      0.2288
    103  O         29.4180   -7.6800    8.6380 O.2   226  SER226     -0.2866
    104  CB        27.7070   -4.9260    9.3310 C.3   226  SER226      0.2089
    105  OG        27.9560   -4.6300    8.0200 O.3   226  SER226     -0.2183
    106  N         19.8050   -6.0980    6.3780 N.3   235  TYR235     -0.1227
    107  CA        18.8160   -7.0590    6.7730 C.3   235  TYR235      0.1736
    108  C         17.4280   -6.4520    6.9070 C.2   235  TYR235      0.2595
    109  O         17.2640   -5.3840    7.5550 O.2   235  TYR235     -0.2718
    110  CB        19.1840   -7.6460    8.1330 C.3   235  TYR235      0.0548
    111  CG        20.3810   -8.5740    8.1030 C.ar  235  TYR235     -0.0200
    112  CD1       20.1930   -9.9400    8.2230 C.ar  235  TYR235     -0.0009
    113  CD2       21.7180   -8.0690    8.0310 C.ar  235  TYR235     -0.0009
    114  CE1       21.2520  -10.7930    8.2010 C.ar  235  TYR235      0.0417
    115  CE2       22.8330   -8.9570    8.0110 C.ar  235  TYR235      0.0417
    116  CZ        22.5790  -10.3190    8.1000 C.ar  235  TYR235      0.1957
    117  OH        23.5800  -11.2940    8.0390 O.3   235  TYR235     -0.2866
    118  N         16.4450   -7.1310    6.3210 N.am  236  PHE236     -0.1962
    119  CA        15.0580   -6.8170    6.4610 C.3   236  PHE236      0.1771
    120  C         14.2010   -8.0460    6.7470 C.2   236  PHE236      0.2619
    121  O         14.6100   -9.1780    6.5380 O.2   236  PHE236     -0.2715
    122  CB        14.5080   -6.2070    5.1580 C.3   236  PHE236      0.0574
    123  CG        15.2620   -4.9960    4.6580 C.ar  236  PHE236     -0.0200
    124  CD1       14.7700   -3.6880    4.9250 C.ar  236  PHE236     -0.0042
    125  CD2       16.4370   -5.1410    3.9170 C.ar  236  PHE236     -0.0042
    126  CE1       15.5160   -2.5800    4.4720 C.ar  236  PHE236     -0.0003
    127  CE2       17.1090   -4.0490    3.4280 C.ar  236  PHE236     -0.0003
    128  CZ        16.6480   -2.7630    3.7290 C.ar  236  PHE236     -0.0000
    129  N         12.9920   -7.8030    7.1600 N.am  237  ALA237     -0.1977
    130  CA        12.0060   -8.8500    7.3860 C.3   237  ALA237      0.1597
    131  C         10.6720   -8.5000    6.7650 C.2   237  ALA237      0.2287
    132  O         10.2710   -7.3330    6.7120 O.2   237  ALA237     -0.2864
    133  CB        11.8280   -9.1040    8.8490 C.3   237  ALA237      0.0319
    134  N          9.4930  -10.2990   13.4190 N.3   242  LYS242     -0.1231
    135  CA        10.9130  -10.5290   13.3460 C.3   242  LYS242      0.1693
    136  C         11.7110   -9.2440   13.5520 C.2   242  LYS242      0.2592
    137  O         12.6190   -9.1730   14.3880 O.2   242  LYS242     -0.2718
    138  CB        11.2370  -11.1840   12.0100 C.3   242  LYS242      0.0285
    139  CG        12.7190  -11.3460   11.7510 C.3   242  LYS242      0.0035
    140  CD        13.3350  -12.3370   12.7240 C.3   242  LYS242      0.0206
    141  CE        14.8470  -12.5120   12.4760 C.3   242  LYS242      0.1093
    142  NZ        15.5190  -13.2700   13.6130 N.3   242  LYS242     -0.1314
    143  N         11.3340   -8.1860   12.8270 N.am  243  SER243     -0.1952
    144  CA        12.0520   -6.9120   12.9530 C.3   243  SER243      0.1924
    145  C         11.8640   -6.3030   14.3310 C.2   243  SER243      0.2314
    146  O         12.7370   -5.6450   14.8500 O.2   243  SER243     -0.2863
    147  CB        11.5260   -5.9330   11.9180 C.3   243  SER243      0.2116
    148  OG        12.1300   -6.2800   10.6720 O.3   243  SER243     -0.2180
    149  N         14.4660   -6.5980   17.1500 N.3   246  TYR246     -0.1241
    150  CA        15.6420   -5.7600   17.1580 C.3   246  TYR246      0.1605
    151  C         15.3710   -4.3470   17.6630 C.2   246  TYR246      0.2264
    152  O         16.2920   -3.5110   17.6950 O.2   246  TYR246     -0.2867
    153  CB        16.3000   -5.7640   15.7690 C.3   246  TYR246      0.0534
    154  CG        16.5780   -7.1620   15.2780 C.ar  246  TYR246     -0.0201
    155  CD1       17.8230   -7.7980   15.5470 C.ar  246  TYR246     -0.0009
    156  CD2       15.6120   -7.8870   14.6360 C.ar  246  TYR246     -0.0009
    157  CE1       18.0750   -9.0570   15.1410 C.ar  246  TYR246      0.0417
    158  CE2       15.8620   -9.2080   14.2100 C.ar  246  TYR246      0.0417
    159  CZ        17.1090   -9.7750   14.4700 C.ar  246  TYR246      0.1957
    160  OH        17.3390  -11.0710   14.0500 O.3   246  TYR246     -0.2866
    161  N         14.6620  -13.6850    6.3460 N.3   335  GLU335     -0.1245
    162  CA        15.5500  -12.5020    6.3800 C.3   335  GLU335      0.1567
    163  C         15.8700  -12.1530    4.9450 C.2   335  GLU335      0.2260
    164  O         16.3200  -13.0200    4.1890 O.2   335  GLU335     -0.2867
    165  CB        16.8140  -12.7860    7.1780 C.3   335  GLU335      0.0388
    166  CG        16.4750  -13.3470    8.5760 C.3   335  GLU335      0.1160
    167  CD        17.6570  -13.4140    9.5200 C.2   335  GLU335      0.3649
    168  OE1       18.7450  -12.9290    9.2200 O.co2 335  GLU335     -0.2457
    169  OE2       17.4740  -14.0150   10.5860 O.co2 335  GLU335     -0.2457
@<TRIPOS>BOND
     1   127   128   ar
     2   127   125   ar
     3   128   126   ar
     4   125   123   ar
     5   164   163    2
     6   126   124   ar
     7   123   124   ar
     8   123   122    1
     9   163   162    1
    10   122   119    1
    11    82    83    1
    12    82    81    1
    13    82    85    1
    14    86    85    1
    15    86    87    1
    16    83    84    2
    17   118   119    1
    18   118   108   am
    19   161   162    1
    20   106   107    1
    21   162   165    1
    22   119   120    1
    23   121   120    2
    24   132   131    2
    25   120   129   am
    26   131   130    1
    27   107   108    1
    28   107   110    1
    29    92    93    1
    30   108   109    2
    31    87    88    1
    32   129   130    1
    33   165   166    1
    34    93    94    1
    35    93    96    1
    36    94    95    2
    37   130   133    1
    38    76    75    2
    39    98    99    1
    40    98    97    1
    41    88    89    2
    42   115   113   ar
    43   115   116   ar
    44   105   104    1
    45   113   111   ar
    46   117   116    1
    47   116   114   ar
    48   111   110    1
    49   111   112   ar
    50   114   112   ar
    51   166   167    1
    52    41    42    1
    53    41    38    1
    54   103   102    2
    55    96    97    1
    56    43    42   ar
    57    43    45   ar
    58    75    74    1
    59    37    38    1
    60    79    77    1
    61    42    44   ar
    62   168   167   ar
    63    89    90    1
    64    89    91    1
    65   104   101    1
    66    45    46   ar
    67    38    39    1
    68   167   169   ar
    69   102   101    1
    70    74    77    1
    71    74    73    1
    72   100   101    1
    73    44    46   ar
    74    77    78    1
    75    78    80    1
    76   148   147    1
    77    39    40    2
    78    39    47   am
    79   139   138    1
    80   139   140    1
    81    47    48    1
    82   147   144    1
    83   138   135    1
    84    16    14    1
    85   141   140    1
    86   141   142    1
    87    35    34   ar
    88    15    14    1
    89   143   144    1
    90   143   136   am
    91   144   145    1
    92    36    34   ar
    93    48    49    1
    94    34    33    1
    95   135   134    1
    96   135   136    1
    97    69    68    2
    98    14    13    1
    99    50    49    2
   100   136   137    2
   101    49    51   am
   102   160   159    1
   103   158   159   ar
   104   158   156   ar
   105    55    56    1
   106    55    57    1
   107    55    52    1
   108    13    10    1
   109   145   146    2
   110   159   157   ar
   111    68    67    1
   112   156   154   ar
   113    51    52    1
   114    28    25    1
   115     7     6   ar
   116    72    70    1
   117    33    30    1
   118    70    67    1
   119    70    71    1
   120    12    11    2
   121    27    26    2
   122    10    11    1
   123    10     9    1
   124   157   155   ar
   125    52    53    1
   126    30    29    1
   127    30    31    1
   128   154   155   ar
   129   154   153    1
   130    26    29   am
   131    26    25    1
   132    67    66    1
   133    11    17   am
   134   153   150    1
   135     6     8   ar
   136     6     5    1
   137    25    24    1
   138    32    31    2
   139    53    54    2
   140    53    58   am
   141    17    18    1
   142     2     1    1
   143     2     5    1
   144     2     3    1
   145    58    59    1
   146   149   150    1
   147   150   151    1
   148    61    60    2
   149     4     3    2
   150    18    19    1
   151    18    21    1
   152   151   152    2
   153    20    19    2
   154    23    21    1
   155    60    59    1
   156    59    62    1
   157    21    22    1
   158    62    63    1
   159    65    63   am
   160    63    64    2
