@<TRIPOS>MOLECULE
tmp/4l7oA00.pdb
 175 169 0 0 0
SMALL
GASTEIGER

@<TRIPOS>ATOM
      1  N         28.7640   -5.3290   17.0810 N.3   106  ASP106     -0.1239
      2  CA        27.4390   -4.6840   17.0080 C.3   106  ASP106      0.1674
      3  C         27.2620   -3.5420   18.0240 C.2   106  ASP106      0.2266
      4  O         26.7190   -2.5060   17.6770 O.2   106  ASP106     -0.2867
      5  CB        26.3230   -5.7130   17.1610 C.3   106  ASP106      0.1410
      6  CG        26.1570   -6.5960   15.9330 C.2   106  ASP106      0.3668
      7  OD1       26.8180   -6.3770   14.8650 O.co2 106  ASP106     -0.2456
      8  OD2       25.3150   -7.5160   16.0160 O.co2 106  ASP106     -0.2456
      9  N         29.1800   -0.5940   16.5830 N.3   109  LEU109     -0.1231
     10  CA        28.3640   -0.0590   15.4640 C.3   109  LEU109      0.1693
     11  C         27.2790    0.9000   15.9760 C.2   109  LEU109      0.2591
     12  O         27.1120    2.0250   15.4360 O.2   109  LEU109     -0.2718
     13  CB        27.7590   -1.2240   14.6510 C.3   109  LEU109      0.0284
     14  CG        28.6980   -1.9010   13.6360 C.3   109  LEU109      0.0019
     15  CD1       28.1100   -3.2310   13.0630 C.3   109  LEU109      0.0001
     16  CD2       29.1050   -0.9090   12.5130 C.3   109  LEU109      0.0001
     17  N         26.6400    0.4980   17.0820 N.am  110  VAL110     -0.1980
     18  CA        25.6420    1.3520   17.7440 C.3   110  VAL110      0.1595
     19  C         26.3410    2.6160   18.2730 C.2   110  VAL110      0.2287
     20  O         25.9100    3.7240   18.0030 O.2   110  VAL110     -0.2864
     21  CB        24.8630    0.6040   18.8800 C.3   110  VAL110      0.0276
     22  CG1       23.9260    1.6230   19.6920 C.3   110  VAL110      0.0022
     23  CG2       24.0670   -0.6120   18.3060 C.3   110  VAL110      0.0022
     24  N         29.0990    3.9610   17.2660 N.3   112  ALA112     -0.1231
     25  CA        29.4840    4.7700   16.1060 C.3   112  ALA112      0.1694
     26  C         28.3330    5.7010   15.6880 C.2   112  ALA112      0.2592
     27  O         28.5510    6.8510   15.3500 O.2   112  ALA112     -0.2718
     28  CB        29.9160    3.8300   14.9230 C.3   112  ALA112      0.0304
     29  N         27.0960    5.2210   15.7530 N.am  113  ASP113     -0.1974
     30  CA        25.9720    6.0530   15.4130 C.3   113  ASP113      0.1709
     31  C         25.6120    7.0590   16.5200 C.2   113  ASP113      0.2293
     32  O         25.0370    8.1410   16.2460 O.2   113  ASP113     -0.2864
     33  CB        24.7710    5.1880   15.0020 C.3   113  ASP113      0.1436
     34  CG        24.8950    4.7030   13.5380 C.2   113  ASP113      0.3671
     35  OD1       25.8040    5.2300   12.8090 O.co2 113  ASP113     -0.2456
     36  OD2       24.0900    3.8460   13.1040 O.co2 113  ASP113     -0.2456
     37  N         10.3420   -4.4550    6.6180 N.3   205  TRP205     -0.1227
     38  CA        10.6090   -3.8930    7.9390 C.3   205  TRP205      0.1737
     39  C         12.0680   -3.8780    8.2520 C.2   205  TRP205      0.2595
     40  O         12.7860   -4.8320    7.9270 O.2   205  TRP205     -0.2718
     41  CB         9.9210   -4.7040    9.0280 C.3   205  TRP205      0.0564
     42  CG         8.4290   -4.7310    8.8990 C.ar  205  TRP205      0.0003
     43  CD1        7.6690   -5.7330    8.3770 C.ar  205  TRP205      0.0946
     44  CD2        7.5090   -3.6980    9.3010 C.ar  205  TRP205      0.0152
     45  NE1        6.3100   -5.3880    8.4550 N.ar  205  TRP205     -0.2442
     46  CE2        6.2050   -4.1350    8.9820 C.ar  205  TRP205      0.0810
     47  CE3        7.6680   -2.4420    9.8760 C.ar  205  TRP205      0.0012
     48  CZ2        5.0670   -3.3480    9.2180 C.ar  205  TRP205      0.0191
     49  CZ3        6.5660   -1.6780   10.1160 C.ar  205  TRP205      0.0001
     50  CH2        5.2770   -2.1140    9.7720 C.ar  205  TRP205      0.0015
     51  N         12.5180   -2.7990    8.8910 N.am  206  HIS206     -0.1961
     52  CA        13.8200   -2.7770    9.5310 C.3   206  HIS206      0.1787
     53  C         13.6160   -2.1360   10.9120 C.2   206  HIS206      0.2621
     54  O         13.3540   -0.9220   11.0220 O.2   206  HIS206     -0.2715
     55  CB        14.8630   -2.0290    8.6810 C.3   206  HIS206      0.0785
     56  CG        16.2240   -1.9990    9.2860 C.ar  206  HIS206      0.0821
     57  ND1       17.1930   -2.9470    9.0120 N.ar  206  HIS206     -0.2267
     58  CD2       16.7840   -1.1440   10.1760 C.ar  206  HIS206      0.1154
     59  CE1       18.2810   -2.6700    9.7030 C.ar  206  HIS206      0.1986
     60  NE2       18.0610   -1.5780   10.4150 N.ar  206  HIS206     -0.2212
     61  N         13.6610   -2.9650   11.9610 N.am  207  GLY207     -0.1940
     62  CA        13.5850   -2.4530   13.3330 C.3   207  GLY207      0.2014
     63  C         14.9580   -2.0930   13.8720 C.2   207  GLY207      0.2640
     64  O         15.9270   -2.8210   13.6410 O.2   207  GLY207     -0.2714
     65  N         15.1090   -1.0030   14.6080 N.am  208  THR208     -0.1936
     66  CA        16.3920   -0.7050   15.3020 C.3   208  THR208      0.2028
     67  C         16.2430   -0.0890   16.7060 C.2   208  THR208      0.2642
     68  O         15.1940    0.1680   17.0860 O.2   208  THR208     -0.2714
     69  CB        17.3400    0.2950   14.5660 C.3   208  THR208      0.1808
     70  OG1       16.7010    1.5140   14.4090 O.3   208  THR208     -0.2208
     71  CG2       17.9340   -0.2320   13.2400 C.3   208  THR208      0.0379
     72  N         17.3840    0.0690   17.3870 N.am  209  ASN209     -0.1971
     73  CA        17.6080    0.8970   18.5530 C.3   209  ASN209      0.1688
     74  C         17.1820    2.3480   18.2850 C.2   209  ASN209      0.2292
     75  O         17.5080    2.9050   17.2940 O.2   209  ASN209     -0.2864
     76  CB        19.1080    1.0370   18.8560 C.3   209  ASN209      0.1181
     77  CG        19.6960   -0.0890   19.6530 C.2   209  ASN209      0.2629
     78  OD1       19.8930    0.0160   20.8490 O.2   209  ASN209     -0.2716
     79  ND2       20.0920   -1.1070   18.9780 N.am  209  ASN209     -0.0877
     80  N         20.1020    4.7280   17.0890 N.3   212  VAL212     -0.1245
     81  CA        20.6520    4.8010   15.7160 C.3   212  VAL212      0.1561
     82  C         19.6760    5.4650   14.7190 C.2   212  VAL212      0.2260
     83  O         19.9630    5.5260   13.5140 O.2   212  VAL212     -0.2867
     84  CB        21.1330    3.4360   15.1850 C.3   212  VAL212      0.0252
     85  CG1       22.0450    2.7520   16.2080 C.3   212  VAL212      0.0019
     86  CG2       19.9930    2.5640   14.7240 C.3   212  VAL212      0.0019
     87  N         23.0510    1.3110    6.2210 N.3   222  ARG222     -0.1245
     88  CA        24.4310    1.2100    5.7900 C.3   222  ARG222      0.1563
     89  C         25.0330   -0.1630    6.1140 C.2   222  ARG222      0.2260
     90  O         24.5650   -0.8480    7.0110 O.2   222  ARG222     -0.2867
     91  CB        25.2480    2.2600    6.5710 C.3   222  ARG222      0.0307
     92  CG        25.0710    3.6910    6.0700 C.3   222  ARG222      0.0489
     93  CD        25.1760    4.7670    7.2190 C.3   222  ARG222      0.2205
     94  NE        24.1200    4.5170    8.2020 N.pl3 222  ARG222     -0.0865
     95  CZ        24.2570    4.6310    9.5310 C.cat 222  ARG222      0.5346
     96  NH1       25.3840    5.0640   10.0900 N.pl3 222  ARG222      0.1354
     97  NH2       23.2680    4.2490   10.3240 N.pl3 222  ARG222      0.1354
     98  N         28.7670   -1.7970    7.1260 N.3   224  MET224     -0.1245
     99  CA        30.1240   -1.4840    7.5590 C.3   224  MET224      0.1570
    100  C         31.0220   -2.6880    7.5080 C.2   224  MET224      0.2261
    101  O         30.5670   -3.8430    7.4210 O.2   224  MET224     -0.2867
    102  CB        30.1220   -0.9020    8.9510 C.3   224  MET224      0.0387
    103  CG        29.4460    0.4160    8.9920 C.3   224  MET224      0.0595
    104  SD        30.4340    1.7230    8.2340 S.3   224  MET224     -0.1393
    105  CE        31.7190    1.9220    9.5090 C.3   224  MET224      0.0692
    106  N         29.9070   -5.2620    9.9070 N.3   227  SER227     -0.1217
    107  CA        28.5060   -5.6980    9.8700 C.3   227  SER227      0.1889
    108  C         28.4680   -7.2150    9.7520 C.2   227  SER227      0.2288
    109  O         29.2630   -7.7900    9.0300 O.2   227  SER227     -0.2866
    110  CB        27.7530   -5.1000    8.6670 C.3   227  SER227      0.2089
    111  OG        27.6230   -3.6970    8.7610 O.3   227  SER227     -0.2183
    112  N         19.7900   -6.0750    6.7200 N.3   236  TYR236     -0.1227
    113  CA        18.7580   -7.0170    7.0600 C.3   236  TYR236      0.1736
    114  C         17.4090   -6.3790    7.1650 C.2   236  TYR236      0.2595
    115  O         17.2760   -5.3070    7.7390 O.2   236  TYR236     -0.2718
    116  CB        19.0690   -7.6500    8.4260 C.3   236  TYR236      0.0548
    117  CG        20.2860   -8.5810    8.4230 C.ar  236  TYR236     -0.0200
    118  CD1       20.1100   -9.9660    8.4440 C.ar  236  TYR236     -0.0009
    119  CD2       21.5860   -8.0760    8.4130 C.ar  236  TYR236     -0.0009
    120  CE1       21.2070  -10.8390    8.4550 C.ar  236  TYR236      0.0417
    121  CE2       22.7050   -8.9320    8.3840 C.ar  236  TYR236      0.0417
    122  CZ        22.5050  -10.3190    8.4230 C.ar  236  TYR236      0.1957
    123  OH        23.5690  -11.1980    8.3750 O.3   236  TYR236     -0.2866
    124  N         16.4190   -7.0930    6.6190 N.am  237  PHE237     -0.1962
    125  CA        14.9930   -6.7600    6.6710 C.3   237  PHE237      0.1771
    126  C         14.1610   -7.9950    6.9570 C.2   237  PHE237      0.2619
    127  O         14.6120   -9.1410    6.8170 O.2   237  PHE237     -0.2715
    128  CB        14.4910   -6.1630    5.3500 C.3   237  PHE237      0.0574
    129  CG        15.2420   -4.9650    4.8590 C.ar  237  PHE237     -0.0200
    130  CD1       14.7530   -3.6970    5.0710 C.ar  237  PHE237     -0.0042
    131  CD2       16.4090   -5.1250    4.0960 C.ar  237  PHE237     -0.0042
    132  CE1       15.4500   -2.5720    4.6320 C.ar  237  PHE237     -0.0003
    133  CE2       17.1110   -4.0520    3.6480 C.ar  237  PHE237     -0.0003
    134  CZ        16.6090   -2.7300    3.9040 C.ar  237  PHE237     -0.0000
    135  N         12.9070   -7.7750    7.3160 N.am  238  ALA238     -0.1977
    136  CA        11.9560   -8.8560    7.5200 C.3   238  ALA238      0.1597
    137  C         10.6280   -8.4840    6.9050 C.2   238  ALA238      0.2287
    138  O         10.2320   -7.3130    6.9170 O.2   238  ALA238     -0.2864
    139  CB        11.7470   -9.1250    9.0470 C.3   238  ALA238      0.0319
    140  N          9.3370  -10.3050   13.5450 N.3   243  LYS243     -0.1231
    141  CA        10.7940  -10.5410   13.4500 C.3   243  LYS243      0.1693
    142  C         11.6050   -9.2460   13.7040 C.2   243  LYS243      0.2592
    143  O         12.4780   -9.1920   14.5770 O.2   243  LYS243     -0.2718
    144  CB        11.1110  -11.1520   12.0700 C.3   243  LYS243      0.0285
    145  CG        12.5860  -11.3550   11.7550 C.3   243  LYS243      0.0035
    146  CD        13.1310  -12.5630   12.5290 C.3   243  LYS243      0.0206
    147  CE        14.6510  -12.6410   12.5060 C.3   243  LYS243      0.1093
    148  NZ        15.1120  -14.0140   12.1100 N.3   243  LYS243     -0.1314
    149  N         11.3060   -8.1840   12.9540 N.am  244  SER244     -0.1952
    150  CA        11.9630   -6.9030   13.1560 C.3   244  SER244      0.1924
    151  C         11.7790   -6.2470   14.5180 C.2   244  SER244      0.2314
    152  O         12.6740   -5.5560   15.0090 O.2   244  SER244     -0.2863
    153  CB        11.4900   -5.9350   12.0720 C.3   244  SER244      0.2116
    154  OG        12.0660   -6.3180   10.8570 O.3   244  SER244     -0.2180
    155  N         14.2100   -6.6840   17.3340 N.3   247  TYR247     -0.1241
    156  CA        15.3710   -5.8070   17.3590 C.3   247  TYR247      0.1605
    157  C         15.1480   -4.4240   17.9330 C.2   247  TYR247      0.2264
    158  O         16.1050   -3.6780   18.0710 O.2   247  TYR247     -0.2867
    159  CB        15.9760   -5.6970   15.9700 C.3   247  TYR247      0.0534
    160  CG        16.4780   -7.0330   15.5310 C.ar  247  TYR247     -0.0201
    161  CD1       17.7690   -7.4160   15.8400 C.ar  247  TYR247     -0.0009
    162  CD2       15.6660   -7.9200   14.8800 C.ar  247  TYR247     -0.0009
    163  CE1       18.2500   -8.6630   15.4880 C.ar  247  TYR247      0.0417
    164  CE2       16.1300   -9.1690   14.5020 C.ar  247  TYR247      0.0417
    165  CZ        17.4380   -9.5300   14.8170 C.ar  247  TYR247      0.1957
    166  OH        17.9460  -10.7410   14.4570 O.3   247  TYR247     -0.2866
    167  N         14.6780  -13.6670    6.6050 N.3   336  GLU336     -0.1245
    168  CA        15.5580  -12.5060    6.6410 C.3   336  GLU336      0.1567
    169  C         15.8750  -12.2010    5.2080 C.2   336  GLU336      0.2260
    170  O         16.3450  -13.0970    4.4910 O.2   336  GLU336     -0.2867
    171  CB        16.8250  -12.7980    7.4460 C.3   336  GLU336      0.0388
    172  CG        16.4360  -13.2160    8.9070 C.3   336  GLU336      0.1160
    173  CD        17.5700  -13.3270    9.8450 C.2   336  GLU336      0.3649
    174  OE1       18.7020  -12.8450    9.5020 O.co2 336  GLU336     -0.2457
    175  OE2       17.3340  -13.8950   10.9620 O.co2 336  GLU336     -0.2457
@<TRIPOS>BOND
     1   133   134   ar
     2   133   131   ar
     3   134   132   ar
     4   131   129   ar
     5   170   169    2
     6   132   130   ar
     7   129   130   ar
     8   129   128    1
     9   169   168    1
    10   128   125    1
    11    88    89    1
    12    88    87    1
    13    88    91    1
    14    92    91    1
    15    92    93    1
    16    89    90    2
    17   167   168    1
    18    37    38    1
    19   124   125    1
    20   124   114   am
    21   168   171    1
    22   125   126    1
    23   112   113    1
    24   127   126    2
    25   137   138    2
    26   137   136    1
    27   126   135   am
    28   113   114    1
    29   113   116    1
    30    98    99    1
    31   114   115    2
    32    93    94    1
    33   135   136    1
    34   101   100    2
    35   171   172    1
    36   100    99    1
    37   136   139    1
    38    99   102    1
    39    40    39    2
    40    38    39    1
    41    38    41    1
    42    94    95    2
    43   104   103    1
    44   104   105    1
    45    39    51   am
    46   123   122    1
    47    43    45   ar
    48    43    42   ar
    49   121   119   ar
    50   121   122   ar
    51   119   117   ar
    52   122   120   ar
    53   117   116    1
    54   117   118   ar
    55   118   120   ar
    56    45    46   ar
    57   110   111    1
    58   110   107    1
    59    55    56    1
    60    55    52    1
    61    51    52    1
    62    42    41    1
    63    42    44   ar
    64   172   173    1
    65   102   103    1
    66    46    48   ar
    67    46    44   ar
    68    57    56   ar
    69    57    59   ar
    70   109   108    2
    71    48    50   ar
    72    56    58   ar
    73    44    47   ar
    74   174   173   ar
    75    52    53    1
    76    95    96    1
    77    95    97    1
    78    59    60   ar
    79   108   107    1
    80    50    49   ar
    81   173   175   ar
    82   107   106    1
    83    47    49   ar
    84    58    60   ar
    85   154   153    1
    86    53    54    2
    87    53    61   am
    88   145   144    1
    89   145   146    1
    90    61    62    1
    91   144   141    1
    92   153   150    1
    93   148   147    1
    94   147   146    1
    95    16    14    1
    96    35    34   ar
    97   149   150    1
    98   149   142   am
    99    15    14    1
   100    36    34   ar
   101   150   151    1
   102    71    69    1
   103    62    63    1
   104   141   140    1
   105   141   142    1
   106    83    82    2
   107    34    33    1
   108    14    13    1
   109    64    63    2
   110   142   143    2
   111    63    65   am
   112    70    69    1
   113   166   165    1
   114   164   165   ar
   115   164   162   ar
   116   151   152    2
   117    69    66    1
   118    65    66    1
   119    13    10    1
   120    82    81    1
   121    86    84    1
   122   165   163   ar
   123     7     6   ar
   124   162   160   ar
   125    28    25    1
   126    33    30    1
   127    84    81    1
   128    84    85    1
   129    66    67    1
   130    27    26    2
   131    30    29    1
   132    30    31    1
   133    12    11    2
   134    10    11    1
   135    10     9    1
   136   163   161   ar
   137   160   161   ar
   138   160   159    1
   139    26    29   am
   140    26    25    1
   141    81    80    1
   142     6     8   ar
   143     6     5    1
   144   159   156    1
   145    11    17   am
   146    25    24    1
   147    32    31    2
   148    67    68    2
   149    67    72   am
   150     2     1    1
   151     2     5    1
   152     2     3    1
   153    17    18    1
   154    75    74    2
   155   155   156    1
   156   156   157    1
   157    72    73    1
   158     4     3    2
   159    18    19    1
   160    18    21    1
   161   157   158    2
   162    20    19    2
   163    74    73    1
   164    23    21    1
   165    73    76    1
   166    76    77    1
   167    21    22    1
   168    79    77   am
   169    77    78    2
