@<TRIPOS>MOLECULE
tmp/4l7rA00.pdb
 159 154 0 0 0
SMALL
GASTEIGER

@<TRIPOS>ATOM
      1  N         28.9960   -5.1400   16.9410 N.3   105  ASP105     -0.1239
      2  CA        27.6200   -4.6180   16.8630 C.3   105  ASP105      0.1674
      3  C         27.4090   -3.5060   17.8770 C.2   105  ASP105      0.2266
      4  O         26.7460   -2.5160   17.5550 O.2   105  ASP105     -0.2867
      5  CB        26.5990   -5.7580   17.0850 C.3   105  ASP105      0.1410
      6  CG        26.5010   -6.7330   15.9130 C.2   105  ASP105      0.3668
      7  OD1       27.0880   -6.4410   14.8270 O.co2 105  ASP105     -0.2456
      8  OD2       25.8430   -7.7820   16.0700 O.co2 105  ASP105     -0.2456
      9  N         29.1710   -0.4730   16.4840 N.3   108  LEU108     -0.1231
     10  CA        28.4640    0.0810   15.3170 C.3   108  LEU108      0.1693
     11  C         27.3640    1.0280   15.7880 C.2   108  LEU108      0.2591
     12  O         27.1410    2.0930   15.1800 O.2   108  LEU108     -0.2718
     13  CB        27.8880   -1.0320   14.4220 C.3   108  LEU108      0.0284
     14  CG        28.9150   -1.8320   13.5910 C.3   108  LEU108      0.0019
     15  CD1       28.2900   -3.0950   13.0350 C.3   108  LEU108      0.0001
     16  CD2       29.4830   -1.0010   12.4500 C.3   108  LEU108      0.0001
     17  N         26.7340    0.6680   16.9160 N.am  109  VAL109     -0.1980
     18  CA        25.7110    1.4880   17.5740 C.3   109  VAL109      0.1595
     19  C         26.3970    2.7340   18.1650 C.2   109  VAL109      0.2287
     20  O         25.9070    3.8460   17.9960 O.2   109  VAL109     -0.2864
     21  CB        24.9420    0.6820   18.6580 C.3   109  VAL109      0.0276
     22  CG1       23.9560    1.5900   19.4170 C.3   109  VAL109      0.0022
     23  CG2       24.2240   -0.5340   18.0340 C.3   109  VAL109      0.0022
     24  N         27.1760    5.2740   15.6270 N.3   112  ASP112     -0.1239
     25  CA        25.9780    6.0090   15.2170 C.3   112  ASP112      0.1674
     26  C         25.5730    7.0140   16.3000 C.2   112  ASP112      0.2266
     27  O         24.9020    8.0000   15.9890 O.2   112  ASP112     -0.2867
     28  CB        24.8250    5.0520   14.8760 C.3   112  ASP112      0.1410
     29  CG        24.8490    4.4800   13.4500 C.2   112  ASP112      0.3668
     30  OD1       25.6410    4.9780   12.6110 O.co2 112  ASP112     -0.2456
     31  OD2       24.0410    3.5790   13.1600 O.co2 112  ASP112     -0.2456
     32  N         10.4180   -4.5820    6.5600 N.3   204  TRP204     -0.1227
     33  CA        10.7440   -4.0300    7.8700 C.3   204  TRP204      0.1737
     34  C         12.2580   -3.9890    8.1430 C.2   204  TRP204      0.2595
     35  O         12.9900   -4.9040    7.7570 O.2   204  TRP204     -0.2718
     36  CB        10.0820   -4.8820    8.9720 C.3   204  TRP204      0.0564
     37  CG         8.5960   -4.9800    8.8440 C.ar  204  TRP204      0.0003
     38  CD1        7.8820   -6.0350    8.3700 C.ar  204  TRP204      0.0946
     39  CD2        7.6410   -3.9760    9.2060 C.ar  204  TRP204      0.0152
     40  NE1        6.5360   -5.7710    8.4620 N.ar  204  TRP204     -0.2442
     41  CE2        6.3610   -4.4880    8.9010 C.ar  204  TRP204      0.0810
     42  CE3        7.7460   -2.6650    9.6980 C.ar  204  TRP204      0.0012
     43  CZ2        5.1870   -3.7590    9.1250 C.ar  204  TRP204      0.0191
     44  CZ3        6.5820   -1.9280    9.8860 C.ar  204  TRP204      0.0001
     45  CH2        5.3200   -2.4720    9.5840 C.ar  204  TRP204      0.0015
     46  N         12.6940   -2.9550    8.8950 N.am  205  HIS205     -0.1961
     47  CA        14.0540   -2.8090    9.3730 C.3   205  HIS205      0.1787
     48  C         13.9610   -2.1810   10.7590 C.2   205  HIS205      0.2621
     49  O         13.6740   -0.9850   10.9030 O.2   205  HIS205     -0.2715
     50  CB        14.9500   -2.0050    8.3990 C.3   205  HIS205      0.0785
     51  CG        16.3680   -1.9310    8.8680 C.ar  205  HIS205      0.0821
     52  ND1       17.2740   -2.9370    8.5830 N.ar  205  HIS205     -0.2267
     53  CD2       16.9750   -1.0130    9.6460 C.ar  205  HIS205      0.1154
     54  CE1       18.4020   -2.5920    9.1750 C.ar  205  HIS205      0.1986
     55  NE2       18.2730   -1.4510    9.8360 N.ar  205  HIS205     -0.2212
     56  N         14.1070   -3.0170   11.7670 N.am  206  GLY206     -0.1940
     57  CA        14.0250   -2.5770   13.1590 C.3   206  GLY206      0.2014
     58  C         15.4010   -2.2940   13.7320 C.2   206  GLY206      0.2640
     59  O         16.3610   -2.9940   13.4080 O.2   206  GLY206     -0.2714
     60  N         15.5160   -1.2320   14.5460 N.am  207  THR207     -0.1936
     61  CA        16.7770   -0.8290   15.1940 C.3   207  THR207      0.2028
     62  C         16.5020   -0.2700   16.5600 C.2   207  THR207      0.2642
     63  O         15.3500    0.0240   16.8740 O.2   207  THR207     -0.2714
     64  CB        17.5310    0.2540   14.3860 C.3   207  THR207      0.1808
     65  OG1       16.8340    1.5050   14.4570 O.3   207  THR207     -0.2208
     66  CG2       17.8290   -0.1320   12.9550 C.3   207  THR207      0.0379
     67  N         17.5460   -0.0210   17.3440 N.am  208  ASN208     -0.1971
     68  CA        17.3070    0.6790   18.5870 C.3   208  ASN208      0.1688
     69  C         17.2100    2.2030   18.2650 C.2   208  ASN208      0.2292
     70  O         17.5920    2.6630   17.1650 O.2   208  ASN208     -0.2864
     71  CB        18.3330    0.3360   19.6730 C.3   208  ASN208      0.1181
     72  CG        19.7550    0.4420   19.2600 C.2   208  ASN208      0.2629
     73  OD1       20.2570    1.5270   18.9440 O.2   208  ASN208     -0.2716
     74  ND2       20.4340   -0.6930   19.2730 N.am  208  ASN208     -0.0877
     75  N         20.1740    4.7860   16.9240 N.3   211  VAL211     -0.1245
     76  CA        20.7270    4.7920   15.5650 C.3   211  VAL211      0.1561
     77  C         19.7520    5.4480   14.5410 C.2   211  VAL211      0.2260
     78  O         20.1280    5.6180   13.3680 O.2   211  VAL211     -0.2867
     79  CB        21.1980    3.3870   15.0640 C.3   211  VAL211      0.0252
     80  CG1       22.2320    2.7680   15.9850 C.3   211  VAL211      0.0019
     81  CG2       20.0410    2.4420   14.8520 C.3   211  VAL211      0.0019
     82  N         20.4860    6.9610   10.7360 N.3   215  ILE215     -0.1245
     83  CA        19.8400    6.3560    9.5760 C.3   215  ILE215      0.1561
     84  C         19.0820    7.4400    8.7890 C.2   215  ILE215      0.2260
     85  O         19.1230    7.4060    7.5660 O.2   215  ILE215     -0.2867
     86  CB        18.9320    5.1630    9.9740 C.3   215  ILE215      0.0252
     87  CG1       19.7950    3.9820   10.4650 C.3   215  ILE215      0.0019
     88  CG2       18.0220    4.7280    8.8150 C.3   215  ILE215      0.0019
     89  CD1       19.0020    2.9530   11.3030 C.3   215  ILE215      0.0001
     90  N         30.4760   -4.9780    9.9630 N.3   226  SER226     -0.1217
     91  CA        29.1120   -5.4980   10.1130 C.3   226  SER226      0.1889
     92  C         29.0430   -6.9530    9.5860 C.2   226  SER226      0.2288
     93  O         29.9180   -7.3920    8.8430 O.2   226  SER226     -0.2866
     94  CB        28.0760   -4.6010    9.4330 C.3   226  SER226      0.2089
     95  OG        28.1430   -4.6400    8.0180 O.3   226  SER226     -0.2183
     96  N         20.0420   -6.0150    6.3690 N.3   235  TYR235     -0.1227
     97  CA        19.0690   -7.0070    6.8330 C.3   235  TYR235      0.1736
     98  C         17.6520   -6.4630    6.9450 C.2   235  TYR235      0.2595
     99  O         17.4050   -5.4640    7.6190 O.2   235  TYR235     -0.2718
    100  CB        19.5060   -7.5690    8.1920 C.3   235  TYR235      0.0548
    101  CG        20.6900   -8.5130    8.1040 C.ar  235  TYR235     -0.0200
    102  CD1       21.9930   -8.0250    7.9870 C.ar  235  TYR235     -0.0009
    103  CD2       20.5230   -9.8870    8.2670 C.ar  235  TYR235     -0.0009
    104  CE1       23.0880   -8.8900    7.9210 C.ar  235  TYR235      0.0417
    105  CE2       21.6160  -10.7590    8.2340 C.ar  235  TYR235      0.0417
    106  CZ        22.8920  -10.2530    8.0590 C.ar  235  TYR235      0.1957
    107  OH        23.9550  -11.1090    8.0250 O.3   235  TYR235     -0.2866
    108  N         16.7200   -7.1710    6.3250 N.am  236  PHE236     -0.1962
    109  CA        15.3020   -6.8360    6.3430 C.3   236  PHE236      0.1771
    110  C         14.4730   -8.0510    6.6740 C.2   236  PHE236      0.2619
    111  O         14.9440   -9.1770    6.5380 O.2   236  PHE236     -0.2715
    112  CB        14.8510   -6.2860    4.9830 C.3   236  PHE236      0.0574
    113  CG        15.4820   -4.9970    4.5490 C.ar  236  PHE236     -0.0200
    114  CD1       14.9220   -3.7750    4.9100 C.ar  236  PHE236     -0.0042
    115  CD2       16.5900   -4.9980    3.7090 C.ar  236  PHE236     -0.0042
    116  CE1       15.4980   -2.5750    4.4950 C.ar  236  PHE236     -0.0003
    117  CE2       17.1480   -3.7990    3.2700 C.ar  236  PHE236     -0.0003
    118  CZ        16.6000   -2.5950    3.6700 C.ar  236  PHE236     -0.0000
    119  N         13.2280   -7.8230    7.1020 N.am  237  ALA237     -0.1977
    120  CA        12.2780   -8.9040    7.3750 C.3   237  ALA237      0.1597
    121  C         10.9130   -8.5630    6.7820 C.2   237  ALA237      0.2287
    122  O         10.5630   -7.3970    6.7170 O.2   237  ALA237     -0.2864
    123  CB        12.1530   -9.1380    8.8720 C.3   237  ALA237      0.0319
    124  N          9.9080  -10.1800   13.5880 N.3   242  LYS242     -0.1231
    125  CA        11.3420  -10.4350   13.4420 C.3   242  LYS242      0.1693
    126  C         12.1070   -9.1120   13.6120 C.2   242  LYS242      0.2592
    127  O         13.0560   -9.0580   14.3900 O.2   242  LYS242     -0.2718
    128  CB        11.6480  -11.1170   12.0930 C.3   242  LYS242      0.0285
    129  CG        13.1360  -11.3540   11.7960 C.3   242  LYS242      0.0035
    130  CD        13.8710  -12.0980   12.9110 C.3   242  LYS242      0.0206
    131  CE        15.3490  -12.2340   12.6450 C.3   242  LYS242      0.1093
    132  NZ        16.0530  -12.7390   13.8540 N.3   242  LYS242     -0.1314
    133  N         11.6670   -8.0370   12.9260 N.am  243  SER243     -0.1952
    134  CA        12.3220   -6.7310   13.0620 C.3   243  SER243      0.1924
    135  C         12.0960   -6.0540   14.4230 C.2   243  SER243      0.2314
    136  O         12.9530   -5.2840   14.8570 O.2   243  SER243     -0.2863
    137  CB        11.8890   -5.8020   11.9420 C.3   243  SER243      0.2116
    138  OG        12.4630   -6.2910   10.7420 O.3   243  SER243     -0.2180
    139  N         14.6110   -6.2640   17.5120 N.3   246  TYR246     -0.1241
    140  CA        15.7700   -5.3530   17.4810 C.3   246  TYR246      0.1605
    141  C         15.4350   -3.9560   18.0030 C.2   246  TYR246      0.2264
    142  O         16.3300   -3.1040   18.1010 O.2   246  TYR246     -0.2867
    143  CB        16.3440   -5.2810   16.0460 C.3   246  TYR246      0.0534
    144  CG        16.7780   -6.6490   15.5770 C.ar  246  TYR246     -0.0201
    145  CD1       17.9800   -7.2060   16.0110 C.ar  246  TYR246     -0.0009
    146  CD2       15.9370   -7.4380   14.7960 C.ar  246  TYR246     -0.0009
    147  CE1       18.3480   -8.5040   15.6530 C.ar  246  TYR246      0.0417
    148  CE2       16.2960   -8.7420   14.4310 C.ar  246  TYR246      0.0417
    149  CZ        17.5050   -9.2690   14.8620 C.ar  246  TYR246      0.1957
    150  OH        17.8850  -10.5470   14.5000 O.3   246  TYR246     -0.2866
    151  N         14.8620  -13.6300    6.2330 N.3   335  GLU335     -0.1245
    152  CA        15.7830  -12.5110    6.3020 C.3   335  GLU335      0.1567
    153  C         16.1360  -12.1290    4.8770 C.2   335  GLU335      0.2260
    154  O         16.6540  -12.9690    4.1360 O.2   335  GLU335     -0.2867
    155  CB        17.0350  -12.8510    7.1230 C.3   335  GLU335      0.0388
    156  CG        16.7540  -13.1870    8.5920 C.3   335  GLU335      0.1160
    157  CD        18.0040  -13.3920    9.4270 C.2   335  GLU335      0.3649
    158  OE1       19.1010  -12.9790    8.9810 O.co2 335  GLU335     -0.2457
    159  OE2       17.8850  -13.9220   10.5530 O.co2 335  GLU335     -0.2457
@<TRIPOS>BOND
     1   117   118   ar
     2   117   115   ar
     3   118   116   ar
     4   115   113   ar
     5   154   153    2
     6   116   114   ar
     7   113   114   ar
     8   113   112    1
     9   153   152    1
    10   112   109    1
    11   151   152    1
    12   152   155    1
    13   108   109    1
    14   108    98   am
    15   109   110    1
    16    96    97    1
    17   111   110    2
    18    32    33    1
    19   110   119   am
    20   122   121    2
    21   121   120    1
    22    97    98    1
    23    97   100    1
    24    98    99    2
    25   119   120    1
    26   155   156    1
    27   120   123    1
    28    85    84    2
    29    35    34    2
    30    33    34    1
    31    33    36    1
    32   104   102   ar
    33   104   106   ar
    34   102   101   ar
    35    95    94    1
    36   107   106    1
    37   106   105   ar
    38   101   100    1
    39   101   103   ar
    40    34    46   am
    41   105   103   ar
    42    38    40   ar
    43    38    37   ar
    44    50    51    1
    45    50    47    1
    46    40    41   ar
    47    52    51   ar
    48    52    54   ar
    49   156   157    1
    50    84    83    1
    51    88    86    1
    52    93    92    2
    53    37    36    1
    54    37    39   ar
    55    51    53   ar
    56    46    47    1
    57    41    43   ar
    58    41    39   ar
    59   158   157   ar
    60    43    45   ar
    61    54    55   ar
    62    39    42   ar
    63    47    48    1
    64   157   159   ar
    65    94    91    1
    66    83    86    1
    67    83    82    1
    68    45    44   ar
    69    92    91    1
    70    53    55   ar
    71    42    44   ar
    72    90    91    1
    73    86    87    1
    74    87    89    1
    75   138   137    1
    76    48    49    2
    77    48    56   am
    78    56    57    1
    79   129   128    1
    80   129   130    1
    81   137   134    1
    82   128   125    1
    83    16    14    1
    84    30    29   ar
    85   131   130    1
    86   131   132    1
    87   133   134    1
    88   133   126   am
    89    66    64    1
    90    15    14    1
    91   134   135    1
    92    57    58    1
    93    31    29   ar
    94    78    77    2
    95    59    58    2
    96   125   124    1
    97   125   126    1
    98    29    28    1
    99    14    13    1
   100   126   127    2
   101    58    60   am
   102    64    65    1
   103    64    61    1
   104    13    10    1
   105   135   136    2
   106   148   146   ar
   107   148   149   ar
   108   150   149    1
   109    77    76    1
   110    60    61    1
   111   146   144   ar
   112     7     6   ar
   113    81    79    1
   114   149   147   ar
   115    28    25    1
   116    79    76    1
   117    79    80    1
   118    12    11    2
   119    61    62    1
   120    25    24    1
   121    25    26    1
   122    10    11    1
   123    10     9    1
   124    76    75    1
   125   144   145   ar
   126   144   143    1
   127   147   145   ar
   128    11    17   am
   129     6     8   ar
   130     6     5    1
   131    27    26    2
   132   143   140    1
   133    62    63    2
   134    62    67   am
   135     2     1    1
   136     2     5    1
   137     2     3    1
   138    17    18    1
   139    70    69    2
   140    67    68    1
   141   140   139    1
   142   140   141    1
   143     4     3    2
   144    18    19    1
   145    18    21    1
   146    20    19    2
   147   141   142    2
   148    23    21    1
   149    69    68    1
   150    68    71    1
   151    21    22    1
   152    73    72    2
   153    72    74   am
   154    72    71    1
