@<TRIPOS>MOLECULE
tmp/4l7sB00.pdb
 172 163 0 0 0
SMALL
GASTEIGER

@<TRIPOS>ATOM
      1  N         28.7500  -26.1450   28.9740 N.3    13  GLN13      -0.1245
      2  CA        27.6140  -26.7710   29.6500 C.3    13  GLN13       0.1566
      3  C         26.3460  -26.7340   28.8140 C.2    13  GLN13       0.2260
      4  O         26.0140  -25.6900   28.2310 O.2    13  GLN13      -0.2867
      5  CB        27.3690  -26.0020   30.9520 C.3    13  GLN13       0.0367
      6  CG        26.1720  -26.4540   31.7470 C.3    13  GLN13       0.0905
      7  CD        26.3390  -27.8610   32.2700 C.2    13  GLN13       0.2608
      8  OE1       27.4500  -28.2910   32.5640 O.2    13  GLN13      -0.2717
      9  NE2       25.2410  -28.5920   32.3560 N.am   13  GLN13      -0.0878
     10  N         22.6060  -26.2520   28.4730 N.3    15  ILE15      -0.1231
     11  CA        21.5930  -25.5260   29.2690 C.3    15  ILE15       0.1692
     12  C         20.1600  -25.7040   28.7780 C.2    15  ILE15       0.2593
     13  O         19.2050  -25.3760   29.4950 O.2    15  ILE15      -0.2718
     14  CB        21.9410  -24.0330   29.3760 C.3    15  ILE15       0.0266
     15  CG1       22.0090  -23.3550   28.0020 C.3    15  ILE15       0.0019
     16  CG2       23.3120  -23.8710   30.0400 C.3    15  ILE15       0.0020
     17  CD1       22.4870  -21.9080   28.0870 C.3    15  ILE15       0.0001
     18  N         19.9830  -26.2510   27.5850 N.am   16  GLY16      -0.1942
     19  CA        18.6320  -26.4960   27.0900 C.3    16  GLY16       0.2014
     20  C         18.6230  -27.5110   25.9730 C.2    16  GLY16       0.2639
     21  O         19.6270  -27.6970   25.2980 O.2    16  GLY16      -0.2714
     22  N         17.4820  -28.1690   25.7940 N.am   17  SER17      -0.1949
     23  CA        17.3380  -29.2030   24.7760 C.3    17  SER17       0.1924
     24  C         15.9240  -29.1790   24.2210 C.2    17  SER17       0.2314
     25  O         15.0010  -29.4960   24.9370 O.2    17  SER17      -0.2863
     26  CB        17.6060  -30.5720   25.3960 C.3    17  SER17       0.2116
     27  OG        17.1490  -31.6070   24.5450 O.3    17  SER17      -0.2180
     28  N         21.0740  -26.2360   23.3210 N.3    23  VAL23      -0.1245
     29  CA        21.7450  -24.9570   23.5990 C.3    23  VAL23       0.1561
     30  C         22.8100  -25.1720   24.6680 C.2    23  VAL23       0.2260
     31  O         22.5350  -25.8310   25.7020 O.2    23  VAL23      -0.2867
     32  CB        20.7740  -23.8790   24.1050 C.3    23  VAL23       0.0252
     33  CG1       21.4990  -22.5750   24.3670 C.3    23  VAL23       0.0019
     34  CG2       19.6350  -23.6830   23.1240 C.3    23  VAL23       0.0019
     35  N         26.0850  -23.2610   26.9100 N.3    25  LEU25      -0.1245
     36  CA        26.9660  -22.2020   27.2990 C.3    25  LEU25       0.1561
     37  C         28.3580  -22.5790   26.7800 C.2    25  LEU25       0.2260
     38  O         28.7870  -23.7250   26.8950 O.2    25  LEU25      -0.2867
     39  CB        27.0360  -22.0780   28.7960 C.3    25  LEU25       0.0270
     40  CG        28.1370  -21.2010   29.3950 C.3    25  LEU25       0.0019
     41  CD1       28.0820  -19.8160   28.8520 C.3    25  LEU25       0.0001
     42  CD2       27.9120  -21.1380   30.8890 C.3    25  LEU25       0.0001
     43  N         26.0700  -18.3760   23.6120 N.3    35  ALA35      -0.1245
     44  CA        25.0530  -19.3980   23.6430 C.3    35  ALA35       0.1562
     45  C         25.0930  -20.0350   22.2760 C.2    35  ALA35       0.2260
     46  O         24.9860  -19.3260   21.2660 O.2    35  ALA35      -0.2867
     47  CB        23.6930  -18.7930   23.9280 C.3    35  ALA35       0.0290
     48  N         23.6930  -22.8100   19.6460 N.3    37  LYS37      -0.1245
     49  CA        22.4860  -23.5710   19.3560 C.3    37  LYS37       0.1561
     50  C         22.8330  -24.5560   18.2800 C.2    37  LYS37       0.2260
     51  O         23.1460  -24.1770   17.1740 O.2    37  LYS37      -0.2867
     52  CB        21.3350  -22.6760   18.9110 C.3    37  LYS37       0.0271
     53  CG        20.0330  -23.4260   18.7000 C.3    37  LYS37       0.0035
     54  CD        18.9130  -22.4760   18.3490 C.3    37  LYS37       0.0206
     55  CE        17.6530  -23.2560   17.9960 C.3    37  LYS37       0.1093
     56  NZ        16.5690  -22.3210   17.5670 N.3    37  LYS37      -0.1314
     57  N         17.9550  -10.1130   19.9080 N.3    65  VAL65      -0.1245
     58  CA        19.2070  -10.8600   20.2200 C.3    65  VAL65       0.1561
     59  C         20.1380  -10.8590   19.0500 C.2    65  VAL65       0.2260
     60  O         19.7030  -10.7970   17.9190 O.2    65  VAL65      -0.2867
     61  CB        18.8880  -12.2930   20.7750 C.3    65  VAL65       0.0252
     62  CG1       18.3950  -13.2220   19.6830 C.3    65  VAL65       0.0019
     63  CG2       20.0990  -12.8580   21.5230 C.3    65  VAL65       0.0019
     64  N         25.3140  -17.4520   19.3600 N.3    81  PHE81      -0.1227
     65  CA        24.7550  -16.1900   19.8770 C.3    81  PHE81       0.1736
     66  C         25.5100  -15.5580   21.0290 C.2    81  PHE81       0.2595
     67  O         26.3090  -16.2120   21.7390 O.2    81  PHE81      -0.2718
     68  CB        23.3380  -16.4010   20.3570 C.3    81  PHE81       0.0547
     69  CG        22.3800  -16.8370   19.3240 C.ar   81  PHE81      -0.0202
     70  CD1       22.1970  -18.1920   19.0300 C.ar   81  PHE81      -0.0042
     71  CD2       21.5600  -15.9150   18.6940 C.ar   81  PHE81      -0.0042
     72  CE1       21.2470  -18.6000   18.1050 C.ar   81  PHE81      -0.0003
     73  CE2       20.6100  -16.3140   17.7730 C.ar   81  PHE81      -0.0003
     74  CZ        20.4450  -17.6580   17.4680 C.ar   81  PHE81      -0.0000
     75  N         25.2430  -14.2680   21.2460 N.am   82  GLU82      -0.1965
     76  CA        25.6210  -13.6380   22.4450 C.3    82  GLU82       0.1733
     77  C         24.9450  -14.3970   23.5560 C.2    82  GLU82       0.2616
     78  O         23.8840  -14.9160   23.3660 O.2    82  GLU82      -0.2715
     79  CB        25.1640  -12.1600   22.5250 C.3    82  GLU82       0.0429
     80  CG        23.6510  -11.9930   22.6030 C.3    82  GLU82       0.1163
     81  CD        23.2300  -10.5130   22.6590 C.2    82  GLU82       0.3649
     82  OE1       23.9670   -9.7630   23.2600 O.co2  82  GLU82      -0.2457
     83  OE2       22.2170  -10.1550   22.0360 O.co2  82  GLU82      -0.2457
     84  N         25.5460  -14.4210   24.7280 N.am   83  PHE83      -0.1960
     85  CA        25.0190  -15.1880   25.8540 C.3    83  PHE83       0.1771
     86  C         24.2020  -14.2460   26.7090 C.2    83  PHE83       0.2619
     87  O         24.7280  -13.2810   27.1770 O.2    83  PHE83      -0.2715
     88  CB        26.1680  -15.7560   26.7140 C.3    83  PHE83       0.0574
     89  CG        25.6740  -16.6440   27.8200 C.ar   83  PHE83      -0.0200
     90  CD1       25.2210  -17.8950   27.5290 C.ar   83  PHE83      -0.0042
     91  CD2       25.5980  -16.1960   29.1190 C.ar   83  PHE83      -0.0042
     92  CE1       24.6980  -18.7050   28.5370 C.ar   83  PHE83      -0.0003
     93  CE2       25.1400  -17.0270   30.1300 C.ar   83  PHE83      -0.0003
     94  CZ        24.6590  -18.2630   29.8250 C.ar   83  PHE83      -0.0000
     95  N         22.9350  -14.5660   26.9350 N.am   84  MET84      -0.1963
     96  CA        22.0160  -13.7340   27.7460 C.3    84  MET84       0.1736
     97  C         22.0760  -14.2700   29.1840 C.2    84  MET84       0.2616
     98  O         21.6340  -15.3850   29.4410 O.2    84  MET84      -0.2715
     99  CB        20.6180  -13.7870   27.1830 C.3    84  MET84       0.0427
    100  CG        20.5010  -13.0990   25.8110 C.3    84  MET84       0.0599
    101  SD        20.8520  -11.3140   25.8380 S.3    84  MET84      -0.1393
    102  CE        19.3020  -10.7390   26.4230 C.3    84  MET84       0.0692
    103  N         22.5990  -13.4600   30.1020 N.am   85  GLU85      -0.1963
    104  CA        22.9070  -13.8970   31.4500 C.3    85  GLU85       0.1733
    105  C         21.8040  -14.5710   32.2450 C.2    85  GLU85       0.2616
    106  O         22.1240  -15.3850   33.0760 O.2    85  GLU85      -0.2715
    107  CB        23.4020  -12.7220   32.3030 C.3    85  GLU85       0.0429
    108  CG        24.7980  -12.2880   31.9740 C.3    85  GLU85       0.1163
    109  CD        25.8400  -13.3190   32.3750 C.2    85  GLU85       0.3649
    110  OE1       25.7730  -13.8660   33.5030 O.co2  85  GLU85      -0.2457
    111  OE2       26.7350  -13.5600   31.5530 O.co2  85  GLU85      -0.2457
    112  N         20.5390  -14.2440   32.0310 N.am   86  HIS86      -0.1959
    113  CA        19.4600  -14.7800   32.9050 C.3    86  HIS86       0.1787
    114  C         18.4510  -15.7080   32.2270 C.2    86  HIS86       0.2621
    115  O         17.3860  -15.9900   32.7780 O.2    86  HIS86      -0.2715
    116  CB        18.7350  -13.6220   33.6190 C.3    86  HIS86       0.0785
    117  CG        19.6200  -12.8510   34.5390 C.ar   86  HIS86       0.0821
    118  ND1       20.0170  -13.3330   35.7640 N.ar   86  HIS86      -0.2267
    119  CD2       20.2310  -11.6490   34.3930 C.ar   86  HIS86       0.1154
    120  CE1       20.8330  -12.4630   36.3400 C.ar   86  HIS86       0.1986
    121  NE2       20.9760  -11.4280   35.5290 N.ar   86  HIS86      -0.2212
    122  N         18.7660  -16.1590   31.0180 N.am   87  GLY87      -0.1940
    123  CA        17.9340  -17.1450   30.3490 C.3    87  GLY87       0.2014
    124  C         16.5990  -16.7000   29.8100 C.2    87  GLY87       0.2639
    125  O         16.3880  -15.5210   29.4330 O.2    87  GLY87      -0.2714
    126  N         15.6520  -17.6320   29.7150 N.am   88  CYS88      -0.1967
    127  CA        14.4440  -17.2370   29.0600 C.3    88  CYS88       0.1712
    128  C         13.4810  -16.6030   30.0400 C.2    88  CYS88       0.2296
    129  O         13.5100  -16.8990   31.2290 O.2    88  CYS88      -0.2864
    130  CB        13.8270  -18.3380   28.2010 C.3    88  CYS88       0.0983
    131  SG        12.8290  -19.5230   29.0530 S.3    88  CYS88      -0.0798
    132  N         10.9420  -18.7780   32.2840 N.3    91  ASP91      -0.1239
    133  CA        11.6210  -19.3750   33.4660 C.3    91  ASP91       0.1674
    134  C         12.0000  -18.3170   34.4980 C.2    91  ASP91       0.2266
    135  O         11.8430  -18.5350   35.6730 O.2    91  ASP91      -0.2867
    136  CB        12.9300  -20.1000   33.1140 C.3    91  ASP91       0.1410
    137  CG        12.7480  -21.2220   32.1170 C.2    91  ASP91       0.3668
    138  OD1       11.6960  -21.9060   32.1150 O.co2  91  ASP91      -0.2456
    139  OD2       13.7000  -21.4270   31.3350 O.co2  91  ASP91      -0.2456
    140  N          8.6550  -17.7160   26.3480 N.3   132  ARG132     -0.1245
    141  CA         9.7010  -18.6980   26.1520 C.3   132  ARG132      0.1563
    142  C         10.6670  -18.3360   25.0260 C.2   132  ARG132      0.2260
    143  O         11.7300  -18.9390   24.9590 O.2   132  ARG132     -0.2867
    144  CB         9.1420  -20.1210   25.9380 C.3   132  ARG132      0.0307
    145  CG         8.3460  -20.3000   24.6440 C.3   132  ARG132      0.0489
    146  CD         7.5770  -21.6240   24.5880 C.3   132  ARG132      0.2205
    147  NE         6.2360  -21.4020   24.0160 N.pl3 132  ARG132     -0.0865
    148  CZ         5.9870  -21.1370   22.7290 C.cat 132  ARG132      0.5346
    149  NH1        6.9780  -21.0800   21.8370 N.pl3 132  ARG132      0.1354
    150  NH2        4.7360  -20.9270   22.3220 N.pl3 132  ARG132      0.1354
    151  N         14.4490  -13.4980   25.9990 N.3   135  LEU135     -0.1245
    152  CA        15.5970  -13.7100   26.8450 C.3   135  LEU135      0.1561
    153  C         15.8130  -12.5170   27.7780 C.2   135  LEU135      0.2260
    154  O         15.4340  -11.3910   27.4300 O.2   135  LEU135     -0.2867
    155  CB        16.8210  -13.9430   25.9790 C.3   135  LEU135      0.0270
    156  CG        16.7120  -15.2070   25.1180 C.3   135  LEU135      0.0019
    157  CD1       17.7200  -15.1280   23.9830 C.3   135  LEU135      0.0001
    158  CD2       16.8990  -16.4930   25.9200 C.3   135  LEU135      0.0001
    159  N         13.8630  -13.1960   20.8120 N.3   145  SER145     -0.1202
    160  CA        14.6820  -14.2170   20.2440 C.3   145  SER145      0.2020
    161  C         13.8740  -14.9520   19.1680 C.2   145  SER145      0.2618
    162  O         12.6380  -14.7750   19.0850 O.2   145  SER145     -0.2717
    163  CB        15.0610  -15.1670   21.3520 C.3   145  SER145      0.2103
    164  OG        16.0680  -16.0510   20.9650 O.3   145  SER145     -0.2182
    165  N         14.5790  -15.7850   18.3920 N.am  146  ASP146     -0.1973
    166  CA        14.0010  -16.6750   17.3470 C.3   146  ASP146      0.1709
    167  C         13.0260  -15.9770   16.4020 C.2   146  ASP146      0.2293
    168  O         11.9410  -16.4800   16.1410 O.2   146  ASP146     -0.2864
    169  CB        13.3390  -17.8790   18.0200 C.3   146  ASP146      0.1436
    170  CG        14.3620  -18.7750   18.7820 C.2   146  ASP146      0.3671
    171  OD1       15.4280  -19.1560   18.2100 O.co2 146  ASP146     -0.2456
    172  OD2       14.0860  -19.1090   19.9650 O.co2 146  ASP146     -0.2456
@<TRIPOS>BOND
     1   168   167    2
     2   167   166    1
     3    51    50    2
     4   166   169    1
     5   166   165    1
     6    74    73   ar
     7    74    72   ar
     8    56    55    1
     9    73    71   ar
    10    60    59    2
    11    55    54    1
    12   169   170    1
    13    72    70   ar
    14   171   170   ar
    15    50    49    1
    16    54    53    1
    17   165   161   am
    18    71    69   ar
    19    53    52    1
    20   170   172   ar
    21    52    49    1
    22    70    69   ar
    23    59    58    1
    24   162   161    2
    25   161   160    1
    26    69    68    1
    27    49    48    1
    28    64    65    1
    29    62    61    1
    30    65    68    1
    31    65    66    1
    32    57    58    1
    33    58    61    1
    34   160   159    1
    35   160   163    1
    36    61    63    1
    37   164   163    1
    38    66    75   am
    39    66    67    2
    40    75    76    1
    41    46    45    2
    42   149   148    1
    43    83    81   ar
    44    45    44    1
    45   150   148    1
    46    76    79    1
    47    76    77    1
    48    79    80    1
    49    80    81    1
    50    81    82   ar
    51   148   147    2
    52    34    32    1
    53    28    29    1
    54    78    77    2
    55    77    84   am
    56    29    32    1
    57    29    30    1
    58    43    44    1
    59    44    47    1
    60   157   156    1
    61   147   146    1
    62    32    33    1
    63    24    23    1
    64    24    25    2
    65    27    26    1
    66   146   145    1
    67   145   144    1
    68    30    31    2
    69    84    85    1
    70    23    26    1
    71    23    22    1
    72   143   142    2
    73   142   141    1
    74   156   158    1
    75   156   155    1
    76    21    20    2
    77    22    20   am
    78   100   101    1
    79   100    99    1
    80   101   102    1
    81    85    86    1
    82    85    88    1
    83   144   141    1
    84    20    19    1
    85   155   152    1
    86   151   152    1
    87   141   140    1
    88    86    95   am
    89    86    87    2
    90    88    89    1
    91    37    38    2
    92    37    36    1
    93   152   153    1
    94    35    36    1
    95    95    96    1
    96    19    18    1
    97    99    96    1
    98    36    39    1
    99   154   153    2
   100    90    89   ar
   101    90    92   ar
   102    18    12   am
   103    96    97    1
   104    89    91   ar
   105    15    17    1
   106    15    14    1
   107   130   131    1
   108   130   127    1
   109     4     3    2
   110    10    11    1
   111    92    94   ar
   112    12    11    1
   113    12    13    2
   114    39    40    1
   115     3     2    1
   116    41    40    1
   117     1     2    1
   118   127   126    1
   119   127   128    1
   120    91    93   ar
   121    97    98    2
   122    97   103   am
   123    11    14    1
   124    14    16    1
   125    40    42    1
   126   125   124    2
   127     2     5    1
   128   126   124   am
   129   124   123    1
   130    94    93   ar
   131   128   129    2
   132   103   104    1
   133   123   122    1
   134     5     6    1
   135   122   114   am
   136   139   137   ar
   137   104   105    1
   138   104   107    1
   139   111   109   ar
   140     6     7    1
   141   108   107    1
   142   108   109    1
   143   112   105   am
   144   112   113    1
   145   138   137   ar
   146   137   136    1
   147   114   115    2
   148   114   113    1
   149   105   106    2
   150     7     9   am
   151     7     8    2
   152   132   133    1
   153   109   110   ar
   154   113   116    1
   155   136   133    1
   156   133   134    1
   157   116   117    1
   158   119   117   ar
   159   119   121   ar
   160   134   135    2
   161   117   118   ar
   162   121   120   ar
   163   118   120   ar
