@<TRIPOS>MOLECULE
tmp/4l7uA00.pdb
 166 158 0 0 0
SMALL
GASTEIGER

@<TRIPOS>ATOM
      1  N         28.8440   -5.3150   17.0770 N.3   104  ASP104     -0.1239
      2  CA        27.5160   -4.7190   16.9150 C.3   104  ASP104      0.1674
      3  C         27.2420   -3.6400   18.0100 C.2   104  ASP104      0.2266
      4  O         26.4370   -2.7390   17.7870 O.2   104  ASP104     -0.2867
      5  CB        26.4230   -5.8160   16.8740 C.3   104  ASP104      0.1410
      6  CG        26.4410   -6.7190   15.6210 C.2   104  ASP104      0.3668
      7  OD1       27.0320   -6.3050   14.5840 O.co2 104  ASP104     -0.2456
      8  OD2       25.8700   -7.8440   15.6810 O.co2 104  ASP104     -0.2456
      9  N         29.0520   -0.5890   16.5300 N.3   107  LEU107     -0.1231
     10  CA        28.2950   -0.0790   15.3870 C.3   107  LEU107      0.1693
     11  C         27.1500    0.8260   15.8600 C.2   107  LEU107      0.2591
     12  O         26.6650    1.6440   15.0780 O.2   107  LEU107     -0.2718
     13  CB        27.7420   -1.2130   14.4940 C.3   107  LEU107      0.0284
     14  CG        28.7340   -2.0150   13.6050 C.3   107  LEU107      0.0019
     15  CD1       27.9940   -3.0630   12.7810 C.3   107  LEU107      0.0001
     16  CD2       29.5360   -1.1120   12.6640 C.3   107  LEU107      0.0001
     17  N         26.7040    0.6760   17.1230 N.am  108  VAL108     -0.1980
     18  CA        25.6460    1.5250   17.6830 C.3   108  VAL108      0.1595
     19  C         26.3250    2.8040   18.1760 C.2   108  VAL108      0.2287
     20  O         25.9030    3.8920   17.8100 O.2   108  VAL108     -0.2864
     21  CB        24.7890    0.8130   18.7760 C.3   108  VAL108      0.0276
     22  CG1       23.8350    1.7840   19.4770 C.3   108  VAL108      0.0022
     23  CG2       24.0090   -0.3530   18.1820 C.3   108  VAL108      0.0022
     24  N         26.9980    5.4750   15.6690 N.3   111  ASP111     -0.1239
     25  CA        25.7860    6.2310   15.3510 C.3   111  ASP111      0.1674
     26  C         25.4260    7.1590   16.5200 C.2   111  ASP111      0.2266
     27  O         24.8100    8.2060   16.3070 O.2   111  ASP111     -0.2867
     28  CB        24.6240    5.2760   15.0250 C.3   111  ASP111      0.1410
     29  CG        24.8220    4.4270   13.7760 C.2   111  ASP111      0.3668
     30  OD1       25.9890    4.1910   13.3920 O.co2 111  ASP111     -0.2456
     31  OD2       23.8130    3.9830   13.1980 O.co2 111  ASP111     -0.2456
     32  N         12.4140   -3.0530    9.1590 N.3   204  HIS204     -0.1226
     33  CA        13.7790   -2.8570    9.6420 C.3   204  HIS204      0.1752
     34  C         13.6910   -2.2240   11.0270 C.2   204  HIS204      0.2597
     35  O         13.2020   -1.1160   11.1720 O.2   204  HIS204     -0.2718
     36  CB        14.6140   -2.0030    8.6670 C.3   204  HIS204      0.0759
     37  CG        16.0580   -1.9890    9.0190 C.ar  204  HIS204      0.0818
     38  ND1       16.9360   -2.8580    8.4330 N.ar  204  HIS204     -0.2268
     39  CD2       16.7150   -1.2450    9.9400 C.ar  204  HIS204      0.1154
     40  CE1       18.1050   -2.6220    9.0050 C.ar  204  HIS204      0.1986
     41  NE2       18.0180   -1.6620    9.9240 N.ar  204  HIS204     -0.2212
     42  N         14.1030   -2.9710   12.0310 N.am  205  GLY205     -0.1942
     43  CA        14.0540   -2.5590   13.4260 C.3   205  GLY205      0.2014
     44  C         15.4110   -2.2360   14.0000 C.2   205  GLY205      0.2640
     45  O         16.3730   -2.9700   13.7790 O.2   205  GLY205     -0.2714
     46  N         15.4840   -1.1300   14.7520 N.am  206  THR206     -0.1936
     47  CA        16.7110   -0.6180   15.3620 C.3   206  THR206      0.2028
     48  C         16.4260   -0.0560   16.7360 C.2   206  THR206      0.2642
     49  O         15.2610    0.2390   17.0170 O.2   206  THR206     -0.2714
     50  CB        17.2850    0.5180   14.4810 C.3   206  THR206      0.1808
     51  OG1       16.2530    1.4600   14.1740 O.3   206  THR206     -0.2208
     52  CG2       17.9300    0.0300   13.2100 C.3   206  THR206      0.0379
     53  N         17.4750    0.1540   17.5780 N.am  207  ASN207     -0.1971
     54  CA        17.2590    0.8250   18.8530 C.3   207  ASN207      0.1688
     55  C         17.3400    2.3660   18.6220 C.2   207  ASN207      0.2292
     56  O         18.0860    2.8380   17.7640 O.2   207  ASN207     -0.2864
     57  CB        18.1760    0.3180   19.9810 C.3   207  ASN207      0.1181
     58  CG        19.6600    0.5470   19.8470 C.2   207  ASN207      0.2629
     59  OD1       20.1540    1.6710   19.8910 O.2   207  ASN207     -0.2716
     60  ND2       20.4220   -0.5310   19.8640 N.am  207  ASN207     -0.0877
     61  N         20.1830    5.0100   16.9650 N.3   210  VAL210     -0.1245
     62  CA        20.7440    4.8930   15.6090 C.3   210  VAL210      0.1561
     63  C         19.7440    5.4770   14.5660 C.2   210  VAL210      0.2260
     64  O         20.1230    5.6910   13.4060 O.2   210  VAL210     -0.2867
     65  CB        21.1890    3.4600   15.2260 C.3   210  VAL210      0.0252
     66  CG1       22.2610    2.9210   16.1580 C.3   210  VAL210      0.0019
     67  CG2       20.0150    2.5100   15.1510 C.3   210  VAL210      0.0019
     68  N         20.3490    6.9610   10.6860 N.3   214  ILE214     -0.1245
     69  CA        19.6480    6.4320    9.4960 C.3   214  ILE214      0.1561
     70  C         18.8560    7.6050    8.8300 C.2   214  ILE214      0.2260
     71  O         18.8610    7.7290    7.6110 O.2   214  ILE214     -0.2867
     72  CB        18.7790    5.1560    9.7890 C.3   214  ILE214      0.0252
     73  CG1       19.6740    3.9960   10.2480 C.3   214  ILE214      0.0019
     74  CG2       17.9580    4.7150    8.5720 C.3   214  ILE214      0.0019
     75  CD1       19.1100    3.1290   11.3430 C.3   214  ILE214      0.0001
     76  N         20.4250    3.6080    5.1900 N.3   219  LEU219     -0.1231
     77  CA        20.8470    2.2970    5.6900 C.3   219  LEU219      0.1693
     78  C         22.1100    1.8200    4.9670 C.2   219  LEU219      0.2591
     79  O         22.1740    1.7780    3.7340 O.2   219  LEU219     -0.2718
     80  CB        19.7210    1.2830    5.6230 C.3   219  LEU219      0.0284
     81  CG        18.6600    1.4990    6.6910 C.3   219  LEU219      0.0019
     82  CD1       17.3870    0.8110    6.3170 C.3   219  LEU219      0.0001
     83  CD2       19.1430    1.0030    8.0400 C.3   219  LEU219      0.0001
     84  N         23.1360    1.5170    5.7790 N.am  220  ARG220     -0.1980
     85  CA        24.4910    1.2170    5.3440 C.3   220  ARG220      0.1597
     86  C         25.0000   -0.2230    5.5850 C.2   220  ARG220      0.2287
     87  O         24.4340   -1.0120    6.3550 O.2   220  ARG220     -0.2864
     88  CB        25.4520    2.1890    6.0610 C.3   220  ARG220      0.0334
     89  CG        25.4560    3.6200    5.4890 C.3   220  ARG220      0.0492
     90  CD        25.7270    4.6460    6.5690 C.3   220  ARG220      0.2205
     91  NE        24.6480    4.6640    7.5620 N.pl3 220  ARG220     -0.0865
     92  CZ        24.7350    5.2180    8.7680 C.cat 220  ARG220      0.5346
     93  NH1       25.8520    5.8300    9.1480 N.pl3 220  ARG220      0.1354
     94  NH2       23.7000    5.1810    9.5970 N.pl3 220  ARG220      0.1354
     95  N         28.2900   -1.2790    6.8620 N.3   222  MET222     -0.1245
     96  CA        29.4200   -0.7760    7.6280 C.3   222  MET222      0.1570
     97  C         30.5920   -1.7090    7.6530 C.2   222  MET222      0.2261
     98  O         30.3800   -2.9070    7.8350 O.2   222  MET222     -0.2867
     99  CB        29.0070   -0.5090    9.0930 C.3   222  MET222      0.0387
    100  CG        28.1770    0.7310    9.2920 C.3   222  MET222      0.0595
    101  SD        28.6190    2.0920    8.1900 S.3   222  MET222     -0.1393
    102  CE        30.0300    2.8000    9.0650 C.3   222  MET222      0.0692
    103  N         19.7720   -6.0000    6.6420 N.3   234  TYR234     -0.1227
    104  CA        18.7820   -6.9790    7.1080 C.3   234  TYR234      0.1736
    105  C         17.3360   -6.4520    7.1570 C.2   234  TYR234      0.2595
    106  O         17.0630   -5.4770    7.8480 O.2   234  TYR234     -0.2718
    107  CB        19.2000   -7.5090    8.5000 C.3   234  TYR234      0.0548
    108  CG        20.3880   -8.4500    8.4510 C.ar  234  TYR234     -0.0200
    109  CD1       20.2130   -9.8280    8.4960 C.ar  234  TYR234     -0.0009
    110  CD2       21.6910   -7.9610    8.3570 C.ar  234  TYR234     -0.0009
    111  CE1       21.3040  -10.6990    8.4470 C.ar  234  TYR234      0.0417
    112  CE2       22.7880   -8.8230    8.2840 C.ar  234  TYR234      0.0417
    113  CZ        22.5880  -10.1920    8.3280 C.ar  234  TYR234      0.1957
    114  OH        23.6520  -11.0540    8.2610 O.3   234  TYR234     -0.2866
    115  N         16.4180   -7.1420    6.4300 N.am  235  PHE235     -0.1962
    116  CA        14.9740   -6.8730    6.3800 C.3   235  PHE235      0.1771
    117  C         14.1260   -8.1360    6.6480 C.2   235  PHE235      0.2619
    118  O         14.4320   -9.2230    6.1510 O.2   235  PHE235     -0.2715
    119  CB        14.5410   -6.2910    5.0340 C.3   235  PHE235      0.0574
    120  CG        15.2740   -5.0630    4.5570 C.ar  235  PHE235     -0.0200
    121  CD1       14.8430   -3.7940    4.9190 C.ar  235  PHE235     -0.0042
    122  CD2       16.3480   -5.1730    3.6760 C.ar  235  PHE235     -0.0042
    123  CE1       15.5220   -2.6590    4.4720 C.ar  235  PHE235     -0.0003
    124  CE2       17.0040   -4.0370    3.2030 C.ar  235  PHE235     -0.0003
    125  CZ        16.5960   -2.7900    3.6120 C.ar  235  PHE235     -0.0000
    126  N         13.0290   -7.9580    7.4050 N.am  236  ALA236     -0.1977
    127  CA        12.0640   -9.0110    7.7130 C.3   236  ALA236      0.1597
    128  C         10.7160   -8.6820    7.1290 C.2   236  ALA236      0.2287
    129  O         10.3190   -7.5060    7.1810 O.2   236  ALA236     -0.2864
    130  CB        11.9330   -9.1590    9.2020 C.3   236  ALA236      0.0319
    131  N          9.9300  -10.3220   13.9750 N.3   241  LYS241     -0.1231
    132  CA        11.3960  -10.4450   13.7640 C.3   241  LYS241      0.1693
    133  C         12.1480   -9.1060   13.8830 C.2   241  LYS241      0.2592
    134  O         13.1660   -9.0450   14.5680 O.2   241  LYS241     -0.2718
    135  CB        11.7320  -11.0830   12.4050 C.3   241  LYS241      0.0285
    136  CG        13.2420  -11.1760   12.1070 C.3   241  LYS241      0.0035
    137  CD        13.9420  -12.2310   12.9760 C.3   241  LYS241      0.0206
    138  CE        15.4390  -12.1360   12.9110 C.3   241  LYS241      0.1093
    139  NZ        16.0830  -13.1480   13.7830 N.3   241  LYS241     -0.1314
    140  N         11.6700   -8.0560   13.2230 N.am  242  SER242     -0.1952
    141  CA        12.3070   -6.7340   13.2950 C.3   242  SER242      0.1924
    142  C         12.2140   -6.0880   14.7000 C.2   242  SER242      0.2314
    143  O         13.2260   -5.5850   15.1890 O.2   242  SER242     -0.2863
    144  CB        11.6790   -5.8110   12.2660 C.3   242  SER242      0.2116
    145  OG        12.0730   -6.2510   10.9810 O.3   242  SER242     -0.2180
    146  N         14.7600   -6.2360   17.9180 N.3   245  TYR245     -0.1241
    147  CA        15.9220   -5.3370   17.9310 C.3   245  TYR245      0.1605
    148  C         15.5880   -3.9250   18.4590 C.2   245  TYR245      0.2264
    149  O         16.4910   -3.1220   18.7470 O.2   245  TYR245     -0.2867
    150  CB        16.4880   -5.2450   16.5060 C.3   245  TYR245      0.0534
    151  CG        16.8990   -6.5980   15.9720 C.ar  245  TYR245     -0.0201
    152  CD1       18.1270   -7.1600   16.3130 C.ar  245  TYR245     -0.0009
    153  CD2       16.0330   -7.3480   15.1780 C.ar  245  TYR245     -0.0009
    154  CE1       18.4950   -8.4230   15.8590 C.ar  245  TYR245      0.0417
    155  CE2       16.3920   -8.6140   14.7150 C.ar  245  TYR245      0.0417
    156  CZ        17.6320   -9.1420   15.0450 C.ar  245  TYR245      0.1957
    157  OH        18.0060  -10.3860   14.5790 O.3   245  TYR245     -0.2866
    158  N         14.4840  -13.6250    6.3940 N.3   334  GLU334     -0.1245
    159  CA        15.4940  -12.5680    6.4680 C.3   334  GLU334      0.1567
    160  C         15.9040  -12.2120    5.0350 C.2   334  GLU334      0.2260
    161  O         16.3070  -13.1060    4.2760 O.2   334  GLU334     -0.2867
    162  CB        16.6970  -13.0140    7.3180 C.3   334  GLU334      0.0388
    163  CG        16.3600  -13.1710    8.7950 C.3   334  GLU334      0.1160
    164  CD        17.4560  -13.6220    9.7420 C.2   334  GLU334      0.3649
    165  OE1       18.6510  -13.3830    9.4540 O.co2 334  GLU334     -0.2457
    166  OE2       17.1050  -14.1770   10.8070 O.co2 334  GLU334     -0.2457
@<TRIPOS>BOND
     1   124   125   ar
     2   124   122   ar
     3   125   123   ar
     4   122   120   ar
     5    79    78    2
     6   161   160    2
     7   123   121   ar
     8   120   121   ar
     9   120   119    1
    10    78    77    1
    11    78    84   am
    12   119   116    1
    13   160   159    1
    14    76    77    1
    15    85    86    1
    16    85    84    1
    17    85    88    1
    18    89    88    1
    19    89    90    1
    20    86    87    2
    21    80    77    1
    22    80    81    1
    23   118   117    2
    24    82    81    1
    25   116   115    1
    26   116   117    1
    27   158   159    1
    28   115   105   am
    29   159   162    1
    30    90    91    1
    31   103   104    1
    32   117   126   am
    33    81    83    1
    34    95    96    1
    35   104   105    1
    36   104   107    1
    37   128   129    2
    38   128   127    1
    39   105   106    2
    40   162   163    1
    41   126   127    1
    42    91    92    2
    43    71    70    2
    44    96    97    1
    45    96    99    1
    46    97    98    2
    47   127   130    1
    48   101   102    1
    49   101   100    1
    50   114   113    1
    51   112   113   ar
    52   112   110   ar
    53   113   111   ar
    54   110   108   ar
    55    38    40   ar
    56    38    37   ar
    57   111   109   ar
    58   108   109   ar
    59   108   107    1
    60    74    72    1
    61    36    37    1
    62    36    33    1
    63    92    93    1
    64    92    94    1
    65   163   164    1
    66    70    69    1
    67    40    41   ar
    68    37    39   ar
    69    99   100    1
    70    32    33    1
    71   165   164   ar
    72    69    72    1
    73    69    68    1
    74    33    34    1
    75   164   166   ar
    76    72    73    1
    77    41    39   ar
    78    73    75    1
    79   145   144    1
    80    34    35    2
    81    34    42   am
    82    42    43    1
    83   136   135    1
    84   136   137    1
    85   144   141    1
    86   135   132    1
    87    16    14    1
    88    15    14    1
    89   138   137    1
    90   138   139    1
    91    31    29   ar
    92    52    50    1
    93   140   141    1
    94   140   133   am
    95   141   142    1
    96    30    29   ar
    97    64    63    2
    98    43    44    1
    99    14    13    1
   100   132   133    1
   101   132   131    1
   102    29    28    1
   103    45    44    2
   104   133   134    2
   105    44    46   am
   106    51    50    1
   107    50    47    1
   108    13    10    1
   109    63    62    1
   110   157   156    1
   111     7     6   ar
   112   142   143    2
   113   155   156   ar
   114   155   153   ar
   115    46    47    1
   116    28    25    1
   117   156   154   ar
   118    12    11    2
   119    67    65    1
   120   153   151   ar
   121    65    62    1
   122    65    66    1
   123    25    24    1
   124    25    26    1
   125    47    48    1
   126    10    11    1
   127    10     9    1
   128    62    61    1
   129     6     8   ar
   130     6     5    1
   131   154   152   ar
   132    11    17   am
   133   151   152   ar
   134   151   150    1
   135    27    26    2
   136   150   147    1
   137    48    49    2
   138    48    53   am
   139     5     2    1
   140     2     1    1
   141     2     3    1
   142    17    18    1
   143    53    54    1
   144    18    19    1
   145    18    21    1
   146    56    55    2
   147     4     3    2
   148    20    19    2
   149   146   147    1
   150   147   148    1
   151    23    21    1
   152   148   149    2
   153    55    54    1
   154    21    22    1
   155    54    57    1
   156    58    60   am
   157    58    59    2
   158    58    57    1
