@<TRIPOS>MOLECULE
tmp/4l7vA00.pdb
 191 188 0 0 0
SMALL
GASTEIGER

@<TRIPOS>ATOM
      1  N         -8.5530   18.6700    2.5210 N.3    42  VAL42      -0.1245
      2  CA        -7.1410   18.9550    2.7090 C.3    42  VAL42       0.1561
      3  C         -6.6590   20.0960    1.8230 C.2    42  VAL42       0.2260
      4  O         -5.8620   20.9250    2.2540 O.2    42  VAL42      -0.2867
      5  CB        -6.2910   17.7340    2.3830 C.3    42  VAL42       0.0252
      6  CG1       -4.8260   18.1400    2.2930 C.3    42  VAL42       0.0019
      7  CG2       -6.5130   16.6390    3.4170 C.3    42  VAL42       0.0019
      8  N          0.4280   22.3760   13.2300 N.3    59  GLU59      -0.1231
      9  CA        -0.6950   21.5120   12.8680 C.3    59  GLU59       0.1699
     10  C         -1.1930   20.7620   14.0980 C.2    59  GLU59       0.2592
     11  O         -0.4070   20.2430   14.8850 O.2    59  GLU59      -0.2718
     12  CB        -0.2980   20.5060   11.7800 C.3    59  GLU59       0.0402
     13  CG        -1.2770   19.3500   11.6300 C.3    59  GLU59       0.1161
     14  CD        -0.8320   18.3080   10.6140 C.2    59  GLU59       0.3649
     15  OE1       -1.5330   18.1350    9.5870 O.co2  59  GLU59      -0.2457
     16  OE2        0.2040   17.6450   10.8490 O.co2  59  GLU59      -0.2457
     17  N         -2.5060   20.7120   14.2580 N.am   60  ILE60      -0.1966
     18  CA        -3.1040   19.9340   15.3170 C.3    60  ILE60       0.1727
     19  C         -3.8290   18.7320   14.7150 C.2    60  ILE60       0.2617
     20  O         -4.7350   18.8970   13.8920 O.2    60  ILE60      -0.2715
     21  CB        -4.0690   20.7940   16.1640 C.3    60  ILE60       0.0290
     22  CG1       -3.3480   22.0400   16.6900 C.3    60  ILE60       0.0022
     23  CG2       -4.6200   19.9990   17.3280 C.3    60  ILE60       0.0023
     24  CD1       -2.0440   21.7300   17.3540 C.3    60  ILE60       0.0001
     25  N         -3.4100   17.5310   15.1150 N.am   61  GLY61      -0.1940
     26  CA        -4.0380   16.2990   14.6760 C.3    61  GLY61       0.2014
     27  C         -3.2410   15.5850   13.6000 C.2    61  GLY61       0.2640
     28  O         -3.7260   15.3620   12.4860 O.2    61  GLY61      -0.2714
     29  N         -2.0130   15.2130   13.9270 N.am   62  THR62      -0.1936
     30  CA        -1.1260   14.6260   12.9360 C.3    62  THR62       0.2028
     31  C         -1.7620   13.4760   12.1530 C.2    62  THR62       0.2643
     32  O         -1.6620   13.4180   10.9230 O.2    62  THR62      -0.2714
     33  CB         0.1770   14.1750   13.5730 C.3    62  THR62       0.1808
     34  OG1        0.7620   15.2850   14.2700 O.3    62  THR62      -0.2208
     35  CG2        1.1410   13.6730   12.4990 C.3    62  THR62       0.0379
     36  N         -2.4100   12.5620   12.8630 N.am   63  GLY63      -0.1939
     37  CA        -3.1270   11.4640   12.2300 C.3    63  GLY63       0.2014
     38  C         -2.2870   10.5290   11.3750 C.2    63  GLY63       0.2639
     39  O         -1.3260    9.9140   11.8530 O.2    63  GLY63      -0.2714
     40  N         -2.6660   10.3930   10.1060 N.am   64  SER64      -0.1949
     41  CA        -1.9150    9.5540    9.1880 C.3    64  SER64       0.1924
     42  C         -0.6530   10.2790    8.7760 C.2    64  SER64       0.2314
     43  O          0.3080    9.6620    8.3250 O.2    64  SER64      -0.2863
     44  CB        -2.7400    9.2610    7.9360 C.3    64  SER64       0.2116
     45  OG        -3.0610   10.4730    7.2660 O.3    64  SER64      -0.2180
     46  N         -0.8010   12.5970    6.3980 N.3    66  TYR66      -0.1227
     47  CA        -1.0480   13.0320    5.0240 C.3    66  TYR66       0.1736
     48  C         -1.0380   14.5440    4.9080 C.2    66  TYR66       0.2595
     49  O         -0.2520   15.1120    4.1500 O.2    66  TYR66      -0.2718
     50  CB        -2.3860   12.4930    4.5270 C.3    66  TYR66       0.0548
     51  CG        -2.7280   12.8470    3.0910 C.ar   66  TYR66      -0.0200
     52  CD1       -3.7750   13.6990    2.8030 C.ar   66  TYR66      -0.0009
     53  CD2       -2.0120   12.3100    2.0290 C.ar   66  TYR66      -0.0009
     54  CE1       -4.0990   14.0130    1.5050 C.ar   66  TYR66       0.0417
     55  CE2       -2.3290   12.6140    0.7240 C.ar   66  TYR66       0.0417
     56  CZ        -3.3760   13.4680    0.4710 C.ar   66  TYR66       0.1957
     57  OH        -3.7100   13.7850   -0.8140 O.3    66  TYR66      -0.2866
     58  N         -1.9220   15.1950    5.6550 N.am   67  GLN67      -0.1979
     59  CA        -2.0030   16.6520    5.6240 C.3    67  GLN67       0.1601
     60  C         -0.7150   17.2780    6.1600 C.2    67  GLN67       0.2287
     61  O         -0.3610   18.4110    5.8050 O.2    67  GLN67      -0.2864
     62  CB        -3.2140   17.1410    6.4100 C.3    67  GLN67       0.0394
     63  CG        -3.1840   18.6240    6.7480 C.3    67  GLN67       0.0908
     64  CD        -3.5020   19.5170    5.5650 C.2    67  GLN67       0.2608
     65  OE1       -4.6650   19.6990    5.2000 O.2    67  GLN67      -0.2717
     66  NE2       -2.4690   20.0900    4.9660 N.am   67  GLN67      -0.0878
     67  N          1.0880   18.1680   16.2180 N.3    81  VAL81      -0.1231
     68  CA         0.7040   17.5850   17.4970 C.3    81  VAL81       0.1692
     69  C         -0.3860   16.5160   17.3490 C.2    81  VAL81       0.2592
     70  O         -1.4520   16.7740   16.7940 O.2    81  VAL81      -0.2718
     71  CB         0.2000   18.6870   18.4630 C.3    81  VAL81       0.0266
     72  CG1       -0.1580   18.0870   19.8180 C.3    81  VAL81       0.0020
     73  CG2        1.2470   19.7910   18.6070 C.3    81  VAL81       0.0020
     74  N         -0.1140   15.3150   17.8430 N.am   82  GLU82      -0.1966
     75  CA        -1.1180   14.2550   17.8650 C.3    82  GLU82       0.1733
     76  C         -1.2140   13.6540   19.2720 C.2    82  GLU82       0.2616
     77  O         -0.1890   13.4160   19.9150 O.2    82  GLU82      -0.2715
     78  CB        -0.7600   13.1690   16.8580 C.3    82  GLU82       0.0429
     79  CG        -1.5290   11.8810   17.0340 C.3    82  GLU82       0.1163
     80  CD        -3.0170   12.0470   16.8050 C.2    82  GLU82       0.3649
     81  OE1       -3.4090   12.5810   15.7410 O.co2  82  GLU82      -0.2457
     82  OE2       -3.7930   11.6400   17.6930 O.co2  82  GLU82      -0.2457
     83  N         -2.4350   13.4020   19.7450 N.am   83  ARG83      -0.1963
     84  CA        -2.6230   12.9170   21.1080 C.3    83  ARG83       0.1729
     85  C         -2.6010   11.3980   21.2130 C.2    83  ARG83       0.2616
     86  O         -2.4260   10.8600   22.3010 O.2    83  ARG83      -0.2715
     87  CB        -3.9250   13.4490   21.7000 C.3    83  ARG83       0.0348
     88  CG        -5.1340   12.6680   21.2520 C.3    83  ARG83       0.0492
     89  CD        -6.4160   13.2510   21.8020 C.3    83  ARG83       0.2205
     90  NE        -6.7220   12.7180   23.1180 N.pl3  83  ARG83      -0.0865
     91  CZ        -7.3930   11.5940   23.3270 C.cat  83  ARG83       0.5346
     92  NH1       -7.8250   10.8770   22.3020 N.pl3  83  ARG83       0.1354
     93  NH2       -7.6210   11.1850   24.5590 N.pl3  83  ARG83       0.1354
     94  N         -2.7880   10.7090   20.0910 N.am   84  ILE84      -0.1977
     95  CA        -2.7430    9.2510   20.0720 C.3    84  ILE84       0.1596
     96  C         -1.3190    8.8080   19.7950 C.2    84  ILE84       0.2287
     97  O         -0.7430    9.1800   18.7940 O.2    84  ILE84      -0.2864
     98  CB        -3.6700    8.6780   18.9950 C.3    84  ILE84       0.0276
     99  CG1       -5.1050    9.1660   19.2170 C.3    84  ILE84       0.0022
    100  CG2       -3.5850    7.1520   18.9640 C.3    84  ILE84       0.0022
    101  CD1       -5.6770    8.8010   20.5800 C.3    84  ILE84       0.0001
    102  N         -0.3210    6.6990   16.5280 N.3    87  LEU87      -0.1245
    103  CA        -0.5160    7.5150   15.3370 C.3    87  LEU87       0.1561
    104  C          0.6600    8.4600   15.1370 C.2    87  LEU87       0.2260
    105  O          1.0810    8.7210   14.0120 O.2    87  LEU87      -0.2867
    106  CB        -1.8140    8.3160   15.4260 C.3    87  LEU87       0.0270
    107  CG        -3.1290    7.5710   15.2190 C.3    87  LEU87       0.0019
    108  CD1       -4.2790    8.5610   15.1930 C.3    87  LEU87       0.0001
    109  CD2       -3.0820    6.7790   13.9210 C.3    87  LEU87       0.0001
    110  N          0.9920   14.8640   22.3490 N.3   108  GLY108     -0.1210
    111  CA         0.4430   15.8390   23.2730 C.3   108  GLY108      0.1956
    112  C         -0.9690   16.2820   22.9130 C.2   108  GLY108      0.2612
    113  O         -1.6260   15.6900   22.0520 O.2   108  GLY108     -0.2717
    114  N         -1.4300   17.3400   23.5760 N.am  109  ASP109     -0.1959
    115  CA        -2.8200   17.7880   23.4900 C.3   109  ASP109      0.1840
    116  C         -2.9390   19.1420   22.7860 C.2   109  ASP109      0.2623
    117  O         -2.6450   20.1860   23.3640 O.2   109  ASP109     -0.2715
    118  CB        -3.4310   17.8320   24.9020 C.3   109  ASP109      0.1450
    119  CG        -4.7540   18.5790   24.9580 C.2   109  ASP109      0.3671
    120  OD1       -5.3990   18.7700   23.9040 O.co2 109  ASP109     -0.2456
    121  OD2       -5.1570   18.9740   26.0730 O.co2 109  ASP109     -0.2456
    122  N         -3.3850   19.1160   21.5340 N.am  110  GLY110     -0.1940
    123  CA        -3.4530   20.3170   20.7230 C.3   110  GLY110      0.2014
    124  C         -4.1860   21.4900   21.3450 C.2   110  GLY110      0.2638
    125  O         -3.9250   22.6320   20.9890 O.2   110  GLY110     -0.2714
    126  N         -5.1030   21.2180   22.2710 N.am  111  TRP111     -0.1973
    127  CA        -5.8030   22.2950   22.9670 C.3   111  TRP111      0.1640
    128  C         -4.8110   23.2970   23.5400 C.2   111  TRP111      0.2290
    129  O         -5.1490   24.4610   23.7570 O.2   111  TRP111     -0.2864
    130  CB        -6.6690   21.7390   24.0950 C.3   111  TRP111      0.0576
    131  CG        -8.0100   21.2780   23.6450 C.ar  111  TRP111      0.0006
    132  CD1       -8.3830   19.9990   23.3480 C.ar  111  TRP111      0.0946
    133  CD2       -9.1720   22.0920   23.4430 C.ar  111  TRP111      0.0152
    134  NE1       -9.7090   19.9670   22.9680 N.ar  111  TRP111     -0.2442
    135  CE2      -10.2120   21.2420   23.0150 C.ar  111  TRP111      0.0810
    136  CE3       -9.4330   23.4590   23.5840 C.ar  111  TRP111      0.0012
    137  CZ2      -11.4890   21.7130   22.7310 C.ar  111  TRP111      0.0191
    138  CZ3      -10.7060   23.9220   23.3000 C.ar  111  TRP111      0.0001
    139  CH2      -11.7140   23.0520   22.8770 C.ar  111  TRP111      0.0015
    140  N         -7.1180   20.0060   12.6390 N.3   126  THR126     -0.1203
    141  CA        -7.8620   19.0520   11.8330 C.3   126  THR126      0.1994
    142  C         -8.8010   18.1930   12.6600 C.2   126  THR126      0.2617
    143  O         -9.1360   17.0850   12.2520 O.2   126  THR126     -0.2717
    144  CB        -6.9290   18.1560   10.9920 C.3   126  THR126      0.1784
    145  OG1       -6.1530   17.3200   11.8540 O.3   126  THR126     -0.2211
    146  CG2       -5.9880   19.0110   10.1580 C.3   126  THR126      0.0376
    147  N         -9.2260   18.7180   13.8100 N.am  127  ALA127     -0.1979
    148  CA       -10.2620   18.0920   14.6340 C.3   127  ALA127      0.1597
    149  C        -11.2650   19.1470   15.0970 C.2   127  ALA127      0.2287
    150  O        -10.8940   20.2840   15.3690 O.2   127  ALA127     -0.2864
    151  CB        -9.6440   17.3890   15.8270 C.3   127  ALA127      0.0319
    152  N        -15.7170   16.7590   11.1210 N.3   177  PHE177     -0.1227
    153  CA       -14.5190   16.0880   11.6140 C.3   177  PHE177      0.1736
    154  C        -14.8020   15.3880   12.9310 C.2   177  PHE177      0.2595
    155  O        -15.8080   15.6640   13.5880 O.2   177  PHE177     -0.2718
    156  CB       -13.4140   17.0980   11.8900 C.3   177  PHE177      0.0547
    157  CG       -12.8750   17.7590   10.6740 C.ar  177  PHE177     -0.0202
    158  CD1      -11.6260   17.4210   10.1940 C.ar  177  PHE177     -0.0042
    159  CD2      -13.5980   18.7400   10.0280 C.ar  177  PHE177     -0.0042
    160  CE1      -11.1100   18.0420    9.0900 C.ar  177  PHE177     -0.0003
    161  CE2      -13.0890   19.3660    8.9140 C.ar  177  PHE177     -0.0003
    162  CZ       -11.8440   19.0150    8.4430 C.ar  177  PHE177     -0.0000
    163  N        -13.8860   14.5090   13.3240 N.am  178  VAL178     -0.1966
    164  CA       -13.9190   13.9150   14.6470 C.3   178  VAL178      0.1712
    165  C        -13.5040   14.9880   15.6330 C.2   178  VAL178      0.2458
    166  O        -12.8380   15.9490   15.2510 O.2   178  VAL178     -0.2730
    167  CB       -12.9430   12.7510   14.7570 C.3   178  VAL178      0.0289
    168  CG1      -13.2950   11.6620   13.7570 C.3   178  VAL178      0.0023
    169  CG2      -11.5220   13.2460   14.5500 C.3   178  VAL178      0.0023
    170  N        -13.8830   14.8230   16.9130 N.am  179  PRO179     -0.2716
    171  CA       -13.6900   15.8530   17.9410 C.3   179  PRO179      0.1536
    172  C        -12.2390   16.0390   18.3550 C.2   179  PRO179      0.2598
    173  O        -11.4880   15.0690   18.4090 O.2   179  PRO179     -0.2715
    174  CB       -14.5070   15.3170   19.1220 C.3   179  PRO179      0.0310
    175  CG       -14.4800   13.8560   18.9520 C.3   179  PRO179      0.0237
    176  CD       -14.5320   13.6210   17.4590 C.3   179  PRO179      0.0939
    177  N        -11.8550   17.2870   18.6110 N.am  180  LEU180     -0.1964
    178  CA       -10.6110   17.6120   19.3090 C.3   180  LEU180      0.1728
    179  C        -10.7830   17.2540   20.7880 C.2   180  LEU180      0.2616
    180  O        -11.5070   17.9360   21.5180 O.2   180  LEU180     -0.2715
    181  CB       -10.3250   19.1040   19.1800 C.3   180  LEU180      0.0311
    182  CG        -8.9970   19.6540   19.6870 C.3   180  LEU180      0.0022
    183  CD1       -7.8350   19.2030   18.8090 C.3   180  LEU180      0.0001
    184  CD2       -9.0670   21.1740   19.7380 C.3   180  LEU180      0.0001
    185  N        -10.1320   16.1840   21.2340 N.am  181  VAL181     -0.1977
    186  CA       -10.3880   15.6700   22.5720 C.3   181  VAL181      0.1596
    187  C         -9.4390   16.2430   23.6070 C.2   181  VAL181      0.2287
    188  O         -8.2270   16.1560   23.4630 O.2   181  VAL181     -0.2864
    189  CB       -10.2920   14.1460   22.6130 C.3   181  VAL181      0.0276
    190  CG1      -10.6420   13.6440   24.0050 C.3   181  VAL181      0.0022
    191  CG2      -11.2200   13.5490   21.5940 C.3   181  VAL181      0.0022
@<TRIPOS>BOND
     1    57    56    1
     2    56    55   ar
     3    56    54   ar
     4    55    53   ar
     5    54    52   ar
     6     3     4    2
     7     3     2    1
     8    53    51   ar
     9     6     5    1
    10     5     2    1
    11     5     7    1
    12     1     2    1
    13    52    51   ar
    14    51    50    1
    15    49    48    2
    16    50    47    1
    17    48    47    1
    18    48    58   am
    19    66    64   am
    20    47    46    1
    21    65    64    2
    22    64    63    1
    23    59    58    1
    24    59    60    1
    25    59    62    1
    26    61    60    2
    27    62    63    1
    28    45    44    1
    29    44    41    1
    30    43    42    2
    31   162   161   ar
    32   162   160   ar
    33    42    41    1
    34   161   159   ar
    35   160   158   ar
    36    41    40    1
    37    15    14   ar
    38   159   157   ar
    39    40    38   am
    40   146   144    1
    41   158   157   ar
    42    14    16   ar
    43    14    13    1
    44   157   156    1
    45    32    31    2
    46   144   141    1
    47   144   145    1
    48   152   153    1
    49    38    39    2
    50    38    37    1
    51   153   156    1
    52   153   154    1
    53    13    12    1
    54    12     9    1
    55   141   140    1
    56   141   142    1
    57    31    36   am
    58    31    30    1
    59    37    36    1
    60   143   142    2
    61    28    27    2
    62    35    33    1
    63   142   147   am
    64     9     8    1
    65     9    10    1
    66   154   163   am
    67   154   155    2
    68    30    33    1
    69    30    29    1
    70   163   164    1
    71    33    34    1
    72    27    29   am
    73    27    26    1
    74   168   167    1
    75   147   148    1
    76    20    19    2
    77   109   107    1
    78   105   104    2
    79    10    17   am
    80    10    11    2
    81    17    18    1
    82   169   167    1
    83   148   149    1
    84   148   151    1
    85   164   167    1
    86   164   165    1
    87    26    25    1
    88    19    25   am
    89    19    18    1
    90   149   150    2
    91   104   103    1
    92   108   107    1
    93   107   106    1
    94   166   165    2
    95    18    21    1
    96   103   106    1
    97   103   102    1
    98   165   170   am
    99    81    80   ar
   100    21    22    1
   101    21    23    1
   102    67    68    1
   103    22    24    1
   104    70    69    2
   105    80    79    1
   106    80    82   ar
   107    78    79    1
   108    78    75    1
   109   170   176    1
   110   170   171    1
   111    69    68    1
   112    69    74   am
   113   176   175    1
   114    68    71    1
   115    74    75    1
   116    75    76    1
   117   171   172    1
   118   171   174    1
   119   172   173    2
   120   172   177   am
   121    71    73    1
   122    71    72    1
   123   177   178    1
   124    97    96    2
   125   183   182    1
   126   175   174    1
   127   100    98    1
   128    98    99    1
   129    98    95    1
   130   181   178    1
   131   181   182    1
   132    99   101    1
   133    76    83   am
   134    76    77    2
   135   178   179    1
   136   182   184    1
   137    83    84    1
   138    96    95    1
   139    95    94    1
   140    94    85   am
   141   123   124    1
   142   123   122    1
   143   179   185   am
   144   179   180    2
   145   125   124    2
   146    84    85    1
   147    84    87    1
   148    85    86    2
   149   185   186    1
   150    88    87    1
   151    88    89    1
   152   124   126   am
   153   122   116   am
   154   191   189    1
   155    89    90    1
   156   113   112    2
   157   126   127    1
   158    92    91    1
   159   110   111    1
   160   186   189    1
   161   186   187    1
   162   189   190    1
   163   137   139   ar
   164   137   135   ar
   165   116   117    2
   166   116   115    1
   167   139   138   ar
   168   112   111    1
   169   112   114   am
   170   127   128    1
   171   127   130    1
   172   134   135   ar
   173   134   132   ar
   174   135   133   ar
   175    90    91    2
   176   138   136   ar
   177    91    93    1
   178   132   131   ar
   179   133   136   ar
   180   133   131   ar
   181   188   187    2
   182   115   114    1
   183   115   118    1
   184   128   129    2
   185   131   130    1
   186   120   119   ar
   187   118   119    1
   188   119   121   ar
