@<TRIPOS>MOLECULE
tmp/4l7xA00.pdb
 184 180 0 0 0
SMALL
GASTEIGER

@<TRIPOS>ATOM
      1  N         17.1890   11.5550   41.1170 N.3     2  PRO2       -0.2116
      2  CA        18.1850   10.6390   41.6700 C.3     2  PRO2        0.1372
      3  C         19.4820   11.3360   42.0470 C.2     2  PRO2        0.2244
      4  O         19.8610   12.3430   41.4380 O.2     2  PRO2       -0.2868
      5  CB        18.4310    9.6690   40.5210 C.3     2  PRO2        0.0268
      6  CG        18.2400   10.5050   39.3130 C.3     2  PRO2        0.0207
      7  CD        17.1040   11.4450   39.6530 C.3     2  PRO2        0.0892
      8  N         23.8610    2.8510   36.9600 N.3     8  TYR8       -0.1241
      9  CA        23.0200    2.5410   35.8120 C.3     8  TYR8        0.1605
     10  C         23.7040    1.5620   34.8660 C.2     8  TYR8        0.2264
     11  O         24.8760    1.2200   35.0370 O.2     8  TYR8       -0.2867
     12  CB        22.7110    3.8230   35.0290 C.3     8  TYR8        0.0534
     13  CG        22.0240    4.8670   35.8580 C.ar    8  TYR8       -0.0201
     14  CD1       22.7200    5.9490   36.3600 C.ar    8  TYR8       -0.0009
     15  CD2       20.6760    4.7530   36.1680 C.ar    8  TYR8       -0.0009
     16  CE1       22.0950    6.9000   37.1380 C.ar    8  TYR8        0.0417
     17  CE2       20.0450    5.6990   36.9390 C.ar    8  TYR8        0.0417
     18  CZ        20.7470    6.7700   37.4180 C.ar    8  TYR8        0.1957
     19  OH        20.1000    7.7020   38.1910 O.3     8  TYR8       -0.2866
     20  N         25.7960    8.2070   36.0210 N.3    15  HIS15      -0.1241
     21  CA        25.4330    8.9890   34.8520 C.3    15  HIS15       0.1621
     22  C         26.6270    9.8220   34.3610 C.2    15  HIS15       0.2264
     23  O         27.0040    9.7510   33.1900 O.2    15  HIS15      -0.2867
     24  CB        24.2270    9.8580   35.2120 C.3    15  HIS15       0.0745
     25  CG        23.8590   10.8670   34.1790 C.ar   15  HIS15       0.0817
     26  ND1       23.1620   12.0160   34.4880 N.ar   15  HIS15      -0.2268
     27  CD2       24.0850   10.9080   32.8450 C.ar   15  HIS15       0.1154
     28  CE1       22.9870   12.7280   33.3880 C.ar   15  HIS15       0.1986
     29  NE2       23.5450   12.0820   32.3800 N.ar   15  HIS15      -0.2212
     30  N         27.0440   12.8720   33.5500 N.3    17  ASN17      -0.1225
     31  CA        26.7810   13.8430   32.4960 C.3    17  ASN17       0.1785
     32  C         27.0370   13.2570   31.1000 C.2    17  ASN17       0.2597
     33  O         27.3240   13.9810   30.1450 O.2    17  ASN17      -0.2718
     34  CB        27.6310   15.0910   32.7340 C.3    17  ASN17       0.1169
     35  CG        27.0140   16.3340   32.1710 C.2    17  ASN17       0.2627
     36  OD1       25.8120   16.3840   31.9170 O.2    17  ASN17      -0.2716
     37  ND2       27.8300   17.3620   31.9840 N.am   17  ASN17      -0.0877
     38  N         26.9080   11.9400   31.0050 N.am   18  ARG18      -0.1966
     39  CA        27.0400   11.2340   29.7410 C.3    18  ARG18       0.1729
     40  C         25.6860   11.1140   29.0570 C.2    18  ARG18       0.2616
     41  O         24.6330   11.1040   29.7200 O.2    18  ARG18      -0.2715
     42  CB        27.6230    9.8320   29.9760 C.3    18  ARG18       0.0348
     43  CG        29.0350    9.8450   30.5360 C.3    18  ARG18       0.0492
     44  CD        29.4740    8.4860   31.0590 C.3    18  ARG18       0.2205
     45  NE        29.5780    7.4600   30.0220 N.pl3  18  ARG18      -0.0865
     46  CZ        29.8840    6.1860   30.2810 C.cat  18  ARG18       0.5346
     47  NH1       30.0970    5.7950   31.5300 N.pl3  18  ARG18       0.1354
     48  NH2       29.9690    5.3070   29.2930 N.pl3  18  ARG18       0.1354
     49  N         25.7150   10.9730   27.7370 N.am   19  PHE19      -0.1960
     50  CA        24.4970   10.7170   26.9750 C.3    19  PHE19       0.1771
     51  C         23.9450    9.3520   27.3780 C.2    19  PHE19       0.2619
     52  O         24.6710    8.3490   27.3650 O.2    19  PHE19      -0.2715
     53  CB        24.7720   10.7540   25.4640 C.3    19  PHE19       0.0574
     54  CG        23.6990   10.0920   24.6450 C.ar   19  PHE19      -0.0200
     55  CD1       22.3940   10.5270   24.7190 C.ar   19  PHE19      -0.0042
     56  CD2       23.9820    8.9780   23.8710 C.ar   19  PHE19      -0.0042
     57  CE1       21.3990    9.8890   23.9950 C.ar   19  PHE19      -0.0003
     58  CE2       22.9930    8.3530   23.1570 C.ar   19  PHE19      -0.0003
     59  CZ        21.6980    8.7970   23.2380 C.ar   19  PHE19      -0.0000
     60  N         22.6690    9.3240   27.7550 N.am   20  MET20      -0.1963
     61  CA        22.0180    8.0780   28.1490 C.3    20  MET20       0.1736
     62  C         20.6320    7.9690   27.5500 C.2    20  MET20       0.2616
     63  O         20.0140    8.9720   27.1810 O.2    20  MET20      -0.2715
     64  CB        21.8940    7.9640   29.6780 C.3    20  MET20       0.0427
     65  CG        23.2190    8.0720   30.4210 C.3    20  MET20       0.0599
     66  SD        23.1150    7.6710   32.1730 S.3    20  MET20      -0.1393
     67  CE        22.9570    5.8990   32.0890 C.3    20  MET20       0.0692
     68  N         20.1400    6.7330   27.4890 N.am   21  ILE21      -0.1963
     69  CA        18.8370    6.4420   26.9240 C.3    21  ILE21       0.1727
     70  C         18.1910    5.3750   27.8160 C.2    21  ILE21       0.2616
     71  O         18.8730    4.4870   28.3510 O.2    21  ILE21      -0.2715
     72  CB        18.9580    5.9760   25.4470 C.3    21  ILE21       0.0290
     73  CG1       17.5840    5.8150   24.7960 C.3    21  ILE21       0.0022
     74  CG2       19.7850    4.6900   25.3060 C.3    21  ILE21       0.0023
     75  CD1       17.6580    5.7950   23.2690 C.3    21  ILE21       0.0001
     76  N         16.8790    5.4810   27.9980 N.am   22  CYS22      -0.1954
     77  CA        16.1510    4.5750   28.8810 C.3    22  CYS22       0.1843
     78  C         15.4790    3.4830   28.0690 C.2    22  CYS22       0.2626
     79  O         14.9200    3.7450   27.0010 O.2    22  CYS22      -0.2714
     80  CB        15.0910    5.3610   29.6540 C.3    22  CYS22       0.0997
     81  SG        14.3210    4.4750   31.0190 S.3    22  CYS22      -0.0797
     82  N         15.5390    2.2570   28.5780 N.am   23  CYS23      -0.1954
     83  CA        14.8820    1.1220   27.9390 C.3    23  CYS23       0.1843
     84  C         13.4090    1.0680   28.2990 C.2    23  CYS23       0.2625
     85  O         13.0380    1.0650   29.4770 O.2    23  CYS23      -0.2714
     86  CB        15.5330   -0.1880   28.3660 C.3    23  CYS23       0.0997
     87  SG        14.7520   -1.6280   27.5880 S.3    23  CYS23      -0.0797
     88  N         12.5690    0.9770   27.2720 N.am   24  ASP24      -0.1971
     89  CA        11.1290    0.9670   27.4700 C.3    24  ASP24       0.1709
     90  C         10.5750   -0.3990   27.8790 C.2    24  ASP24       0.2293
     91  O          9.3830   -0.5230   28.1790 O.2    24  ASP24      -0.2864
     92  CB        10.4490    1.4970   26.2080 C.3    24  ASP24       0.1436
     93  CG        10.6850    2.9810   26.0350 C.2    24  ASP24       0.3671
     94  OD1       10.1340    3.7310   26.8510 O.co2  24  ASP24      -0.2456
     95  OD2       11.4390    3.3970   25.1180 O.co2  24  ASP24      -0.2456
     96  N         13.1880   -0.4430   31.8840 N.3    27  GLU27      -0.1245
     97  CA        13.2410    0.8350   32.6110 C.3    27  GLU27       0.1567
     98  C         14.6100    1.1710   33.1990 C.2    27  GLU27       0.2260
     99  O         14.7340    2.0930   34.0070 O.2    27  GLU27      -0.2867
    100  CB        12.1330    0.9050   33.6750 C.3    27  GLU27       0.0388
    101  CG        10.7380    0.9430   33.0460 C.3    27  GLU27       0.1160
    102  CD        10.4380    2.2600   32.3540 C.2    27  GLU27       0.3649
    103  OE1       10.8690    3.3170   32.8590 O.co2  27  GLU27      -0.2457
    104  OE2        9.7600    2.2480   31.3100 O.co2  27  GLU27      -0.2457
    105  N         18.4610    2.6560   32.6640 N.3    29  TRP29      -0.1241
    106  CA        19.1390    3.6500   31.8420 C.3    29  TRP29       0.1605
    107  C         20.5000    3.1370   31.3850 C.2    29  TRP29       0.2264
    108  O         21.2240    2.4930   32.1560 O.2    29  TRP29      -0.2867
    109  CB        19.3330    4.9530   32.6090 C.3    29  TRP29       0.0550
    110  CG        18.0920    5.7510   32.7770 C.ar   29  TRP29       0.0003
    111  CD1       17.1630    5.6380   33.7690 C.ar   29  TRP29       0.0946
    112  CD2       17.6350    6.7980   31.9140 C.ar   29  TRP29       0.0152
    113  NE1       16.1560    6.5500   33.5750 N.ar   29  TRP29      -0.2442
    114  CE2       16.4260    7.2820   32.4500 C.ar   29  TRP29       0.0810
    115  CE3       18.1350    7.3800   30.7500 C.ar   29  TRP29       0.0012
    116  CZ2       15.7200    8.3190   31.8600 C.ar   29  TRP29       0.0191
    117  CZ3       17.4200    8.4150   30.1580 C.ar   29  TRP29       0.0001
    118  CH2       16.2350    8.8710   30.7180 C.ar   29  TRP29       0.0015
    119  N         24.6410    9.9000   19.9620 N.3    39  GLU39      -0.1245
    120  CA        23.8760   11.0660   20.3860 C.3    39  GLU39       0.1567
    121  C         22.8430   11.4540   19.3350 C.2    39  GLU39       0.2260
    122  O         21.7050   11.7980   19.6710 O.2    39  GLU39      -0.2867
    123  CB        24.7960   12.2570   20.6290 C.3    39  GLU39       0.0388
    124  CG        25.6460   12.1250   21.8440 C.3    39  GLU39       0.1160
    125  CD        26.2380   13.4540   22.2690 C.2    39  GLU39       0.3649
    126  OE1       27.1660   13.4350   23.0860 O.co2  39  GLU39      -0.2457
    127  OE2       25.7710   14.5160   21.7930 O.co2  39  GLU39      -0.2457
    128  N         19.9780    9.2450   19.4770 N.3    42  GLY42      -0.1210
    129  CA        19.2320    9.5930   20.6690 C.3    42  GLY42       0.1956
    130  C         18.3360   10.7950   20.4280 C.2    42  GLY42       0.2611
    131  O         17.1820   10.8190   20.8750 O.2    42  GLY42      -0.2717
    132  N         18.8650   11.8050   19.7430 N.am   43  ARG43      -0.1979
    133  CA        18.0860   13.0110   19.4850 C.3    43  ARG43       0.1597
    134  C         16.8740   12.6640   18.6320 C.2    43  ARG43       0.2287
    135  O         15.7790   13.1670   18.8620 O.2    43  ARG43      -0.2864
    136  CB        18.9190   14.0940   18.7950 C.3    43  ARG43       0.0334
    137  CG        19.9270   14.7720   19.7170 C.3    43  ARG43       0.0492
    138  CD        20.5430   16.0150   19.0860 C.3    43  ARG43       0.2205
    139  NE        21.4640   15.7020   17.9910 N.pl3  43  ARG43      -0.0865
    140  CZ        22.7550   15.4240   18.1560 C.cat  43  ARG43       0.5346
    141  NH1       23.2820   15.4040   19.3680 N.pl3  43  ARG43       0.1354
    142  NH2       23.5190   15.1530   17.1080 N.pl3  43  ARG43       0.1354
    143  N         15.3940    9.6810   18.3880 N.3    45  LEU45      -0.1231
    144  CA        14.4540    8.8110   19.1010 C.3    45  LEU45       0.1693
    145  C         13.6500    9.5860   20.1090 C.2    45  LEU45       0.2591
    146  O         12.4790    9.2840   20.3620 O.2    45  LEU45      -0.2718
    147  CB        15.1790    7.6740   19.8020 C.3    45  LEU45       0.0284
    148  CG        15.7140    6.5900   18.8680 C.3    45  LEU45       0.0019
    149  CD1       16.5670    5.6300   19.6550 C.3    45  LEU45       0.0001
    150  CD2       14.5860    5.8570   18.1740 C.3    45  LEU45       0.0001
    151  N         14.2740   10.5930   20.6980 N.am   46  GLU46      -0.1979
    152  CA        13.5600   11.4020   21.6670 C.3    46  GLU46       0.1602
    153  C         12.4720   12.2120   20.9720 C.2    46  GLU46       0.2287
    154  O         11.3660   12.3820   21.4920 O.2    46  GLU46      -0.2864
    155  CB        14.5060   12.3490   22.3830 C.3    46  GLU46       0.0415
    156  CG        13.8050   13.1370   23.4640 C.3    46  GLU46       0.1163
    157  CD        14.6670   14.2420   24.0190 C.2    46  GLU46       0.3649
    158  OE1       15.5310   14.7580   23.2780 O.co2  46  GLU46      -0.2457
    159  OE2       14.4830   14.5930   25.1970 O.co2  46  GLU46      -0.2457
    160  N          9.5490    9.8430   19.3930 N.3    49  GLY49      -0.1210
    161  CA         8.7520    9.1480   20.3830 C.3    49  GLY49       0.1956
    162  C          8.8100    7.6420   20.3010 C.2    49  GLY49       0.2611
    163  O          7.9770    6.9660   20.9100 O.2    49  GLY49      -0.2717
    164  N          9.7920    7.0980   19.5840 N.am   50  GLU50      -0.1979
    165  CA         9.9110    5.6500   19.4060 C.3    50  GLU50       0.1602
    166  C         10.5470    4.9490   20.6120 C.2    50  GLU50       0.2287
    167  O         11.4260    5.4920   21.2810 O.2    50  GLU50      -0.2864
    168  CB        10.7010    5.3300   18.1380 C.3    50  GLU50       0.0415
    169  CG         9.9140    5.5510   16.8560 C.3    50  GLU50       0.1163
    170  CD        10.7380    5.2490   15.6180 C.2    50  GLU50       0.3649
    171  OE1       11.9710    5.1220   15.7440 O.co2  50  GLU50      -0.2457
    172  OE2       10.1500    5.1460   14.5200 O.co2  50  GLU50      -0.2457
    173  N         12.8400    2.5320   22.8390 N.3    52  TYR52      -0.1241
    174  CA        14.1750    1.9710   22.8200 C.3    52  TYR52       0.1605
    175  C         14.1680    0.6570   23.6040 C.2    52  TYR52       0.2264
    176  O         13.6650    0.5970   24.7330 O.2    52  TYR52      -0.2867
    177  CB        15.2150    2.9350   23.4160 C.3    52  TYR52       0.0534
    178  CG        16.5440    2.2480   23.5420 C.ar   52  TYR52      -0.0201
    179  CD1       17.2670    1.9000   22.4080 C.ar   52  TYR52      -0.0009
    180  CD2       17.0420    1.8710   24.7780 C.ar   52  TYR52      -0.0009
    181  CE1       18.4710    1.2300   22.5090 C.ar   52  TYR52       0.0417
    182  CE2       18.2500    1.2080   24.8900 C.ar   52  TYR52       0.0417
    183  CZ        18.9520    0.8740   23.7520 C.ar   52  TYR52       0.1957
    184  OH        20.1420    0.1900   23.8500 O.3    52  TYR52      -0.2866
@<TRIPOS>BOND
     1   172   170   ar
     2   170   171   ar
     3   170   169    1
     4   169   168    1
     5   142   140    1
     6   139   140    2
     7   139   138    1
     8   168   165    1
     9   140   141    1
    10   150   148    1
    11   143   144    1
    12   134   135    2
    13   134   133    1
    14   136   133    1
    15   136   137    1
    16   148   149    1
    17   148   147    1
    18   138   137    1
    19   144   147    1
    20   144   145    1
    21   121   122    2
    22   121   120    1
    23   160   161    1
    24   165   164    1
    25   165   166    1
    26   128   129    1
    27   133   132    1
    28   164   162   am
    29   132   130   am
    30   119   120    1
    31   145   146    2
    32   145   151   am
    33   162   161    1
    34   162   163    2
    35   120   123    1
    36   130   129    1
    37   130   131    2
    38   166   167    2
    39   123   124    1
    40   151   152    1
    41   153   154    2
    42   153   152    1
    43   152   155    1
    44   127   125   ar
    45   124   125    1
    46   125   126   ar
    47   155   156    1
    48   179   181   ar
    49   179   178   ar
    50   181   183   ar
    51   174   173    1
    52   174   177    1
    53   174   175    1
    54    58    59   ar
    55    58    56   ar
    56    59    57   ar
    57    75    73    1
    58   158   157   ar
    59   177   178    1
    60   156   157    1
    61   178   180   ar
    62   175   176    2
    63   183   184    1
    64   183   182   ar
    65    56    54   ar
    66    57    55   ar
    67   157   159   ar
    68    54    55   ar
    69    54    53    1
    70   180   182   ar
    71    73    72    1
    72    95    93   ar
    73    74    72    1
    74    72    69    1
    75    53    50    1
    76    93    92    1
    77    93    94   ar
    78    92    89    1
    79    69    68    1
    80    69    70    1
    81    50    51    1
    82    50    49    1
    83    79    78    2
    84    63    62    2
    85    88    89    1
    86    88    84   am
    87    52    51    2
    88    51    60   am
    89    89    90    1
    90    68    62   am
    91    62    61    1
    92    87    86    1
    93    49    40   am
    94    60    61    1
    95    70    76   am
    96    70    71    2
    97    90    91    2
    98    83    84    1
    99    83    86    1
   100    83    82    1
   101    76    77    1
   102    78    82   am
   103    78    77    1
   104    61    64    1
   105    84    85    2
   106    77    80    1
   107    40    41    2
   108    40    39    1
   109    48    46    1
   110    80    81    1
   111    64    65    1
   112    39    42    1
   113    39    38    1
   114    42    43    1
   115    45    46    2
   116    45    44    1
   117    33    32    2
   118   117   118   ar
   119   117   115   ar
   120    46    47    1
   121    65    66    1
   122    43    44    1
   123   118   116   ar
   124   115   112   ar
   125    38    32   am
   126    32    31    1
   127   104   102   ar
   128   107   106    1
   129   107   108    2
   130   106   109    1
   131   106   105    1
   132   116   114   ar
   133    96    97    1
   134   112   114   ar
   135   112   110   ar
   136    36    35    2
   137    37    35   am
   138    67    66    1
   139    35    34    1
   140   102   103   ar
   141   102   101    1
   142    29    27   ar
   143    29    28   ar
   144   114   113   ar
   145    31    34    1
   146    31    30    1
   147   109   110    1
   148    97    98    1
   149    97   100    1
   150   110   111   ar
   151    27    25   ar
   152   101   100    1
   153    23    22    2
   154    98    99    2
   155    28    26   ar
   156   113   111   ar
   157    25    26   ar
   158    25    24    1
   159    22    21    1
   160    21    24    1
   161    21    20    1
   162    10    11    2
   163    10     9    1
   164    12     9    1
   165    12    13    1
   166     9     8    1
   167    13    15   ar
   168    13    14   ar
   169    15    17   ar
   170    14    16   ar
   171    17    18   ar
   172    16    18   ar
   173    18    19    1
   174     6     7    1
   175     6     5    1
   176     7     1    1
   177     5     2    1
   178     1     2    1
   179     4     3    2
   180     2     3    1
