@<TRIPOS>MOLECULE
tmp/4l80F01.pdb
 196 190 0 0 0
SMALL
GASTEIGER

@<TRIPOS>ATOM
      1  N        -49.2880  -13.7790   72.3270 N.3    31  HIS31      -0.1226
      2  CA       -50.1110  -14.8830   72.8050 C.3    31  HIS31       0.1752
      3  C        -51.4610  -14.9900   72.1080 C.2    31  HIS31       0.2596
      4  O        -52.2920  -14.0880   72.2050 O.2    31  HIS31      -0.2718
      5  CB       -50.3280  -14.8020   74.3150 C.3    31  HIS31       0.0759
      6  CG       -51.1360  -15.9390   74.8530 C.ar   31  HIS31       0.0818
      7  ND1      -50.6190  -17.2070   75.0090 N.ar   31  HIS31      -0.2268
      8  CD2      -52.4340  -16.0120   75.2290 C.ar   31  HIS31       0.1154
      9  CE1      -51.5590  -18.0080   75.4790 C.ar   31  HIS31       0.1986
     10  NE2      -52.6710  -17.3070   75.6190 N.ar   31  HIS31      -0.2212
     11  N        -51.6750  -16.1130   71.4270 N.am   32  PHE32      -0.1962
     12  CA       -52.9350  -16.3850   70.7450 C.3    32  PHE32       0.1771
     13  C        -53.9540  -17.0370   71.6740 C.2    32  PHE32       0.2620
     14  O        -53.6010  -17.8600   72.5180 O.2    32  PHE32      -0.2715
     15  CB       -52.6980  -17.2930   69.5330 C.3    32  PHE32       0.0574
     16  CG       -52.4380  -16.5450   68.2570 C.ar   32  PHE32      -0.0200
     17  CD1      -51.3290  -15.7230   68.1320 C.ar   32  PHE32      -0.0042
     18  CD2      -53.3000  -16.6690   67.1800 C.ar   32  PHE32      -0.0042
     19  CE1      -51.0900  -15.0330   66.9610 C.ar   32  PHE32      -0.0003
     20  CE2      -53.0640  -15.9810   66.0020 C.ar   32  PHE32      -0.0003
     21  CZ       -51.9590  -15.1630   65.8950 C.ar   32  PHE32      -0.0000
     22  N        -55.2210  -16.6730   71.5100 N.am   33  PHE33      -0.1960
     23  CA       -56.2890  -17.2990   72.2770 C.3    33  PHE33       0.1756
     24  C        -57.5900  -17.3380   71.4860 C.2    33  PHE33       0.2461
     25  O        -57.8570  -16.4480   70.6760 O.2    33  PHE33      -0.2730
     26  CB       -56.4960  -16.5870   73.6200 C.3    33  PHE33       0.0574
     27  CG       -57.2550  -15.2890   73.5180 C.ar   33  PHE33      -0.0200
     28  CD1      -58.6250  -15.2520   73.7300 C.ar   33  PHE33      -0.0042
     29  CD2      -56.5960  -14.1040   73.2280 C.ar   33  PHE33      -0.0042
     30  CE1      -59.3230  -14.0620   73.6450 C.ar   33  PHE33      -0.0003
     31  CE2      -57.2900  -12.9110   73.1410 C.ar   33  PHE33      -0.0003
     32  CZ       -58.6530  -12.8900   73.3480 C.ar   33  PHE33      -0.0000
     33  N        -58.3960  -18.3880   71.7080 N.am   34  PRO34      -0.2727
     34  CA       -59.7460  -18.4880   71.1420 C.3    34  PRO34       0.1402
     35  C        -60.7640  -17.7350   72.0040 C.2    34  PRO34       0.2269
     36  O        -61.0520  -18.1550   73.1250 O.2    34  PRO34      -0.2865
     37  CB       -60.0190  -19.9910   71.1660 C.3    34  PRO34       0.0296
     38  CG       -59.1990  -20.5010   72.3040 C.3    34  PRO34       0.0237
     39  CD       -57.9800  -19.6310   72.3830 C.3    34  PRO34       0.0939
     40  N        -64.0480  -20.2200   79.5290 N.3    39  LYS39      -0.1231
     41  CA       -63.1250  -20.3440   80.6540 C.3    39  LYS39       0.1693
     42  C        -61.7720  -19.6950   80.3670 C.2    39  LYS39       0.2591
     43  O        -61.0400  -19.3370   81.2900 O.2    39  LYS39      -0.2718
     44  CB       -62.9500  -21.8070   81.0760 C.3    39  LYS39       0.0285
     45  CG       -62.1390  -22.6570   80.1180 C.3    39  LYS39       0.0035
     46  CD       -61.8670  -24.0280   80.7180 C.3    39  LYS39       0.0206
     47  CE       -60.9820  -24.8670   79.8130 C.3    39  LYS39       0.1093
     48  NZ       -60.6640  -26.1850   80.4290 N.3    39  LYS39      -0.1314
     49  N        -61.4430  -19.5440   79.0890 N.am   40  ILE40      -0.1980
     50  CA       -60.2390  -18.8180   78.7030 C.3    40  ILE40       0.1595
     51  C        -60.5280  -17.3220   78.7300 C.2    40  ILE40       0.2287
     52  O        -59.7090  -16.5220   79.1840 O.2    40  ILE40      -0.2864
     53  CB       -59.7390  -19.2460   77.3090 C.3    40  ILE40       0.0276
     54  CG1      -59.1980  -20.6780   77.3650 C.3    40  ILE40       0.0022
     55  CG2      -58.6610  -18.2910   76.8020 C.3    40  ILE40       0.0022
     56  CD1      -58.6120  -21.1690   76.0580 C.3    40  ILE40       0.0001
     57  N        -60.1140  -15.7490   82.0930 N.3    43  ARG43      -0.1231
     58  CA       -58.7650  -15.6170   82.6370 C.3    43  ARG43       0.1694
     59  C        -57.8710  -14.7410   81.7610 C.2    43  ARG43       0.2591
     60  O        -56.6650  -14.6440   81.9890 O.2    43  ARG43      -0.2718
     61  CB       -58.1310  -16.9930   82.8400 C.3    43  ARG43       0.0321
     62  CG       -58.9140  -17.8880   83.7900 C.3    43  ARG43       0.0489
     63  CD       -58.1670  -19.1760   84.0820 C.3    43  ARG43       0.2205
     64  NE       -56.8890  -18.9180   84.7370 N.pl3  43  ARG43      -0.0865
     65  CZ       -56.0390  -19.8670   85.1120 C.cat  43  ARG43       0.5346
     66  NH1      -56.3290  -21.1440   84.8960 N.pl3  43  ARG43       0.1354
     67  NH2      -54.8980  -19.5400   85.7020 N.pl3  43  ARG43       0.1354
     68  N        -58.4720  -14.1110   80.7570 N.am   44  ILE44      -0.1980
     69  CA       -57.7590  -13.1740   79.8890 C.3    44  ILE44       0.1595
     70  C        -57.0170  -12.0560   80.6410 C.2    44  ILE44       0.2287
     71  O        -55.8400  -11.8180   80.3620 O.2    44  ILE44      -0.2864
     72  CB       -58.6850  -12.5850   78.7910 C.3    44  ILE44       0.0276
     73  CG1      -58.9220  -13.6160   77.6880 C.3    44  ILE44       0.0022
     74  CG2      -58.0860  -11.3200   78.1990 C.3    44  ILE44       0.0022
     75  CD1      -57.6540  -14.0440   76.9800 C.3    44  ILE44       0.0001
     76  N        -53.8920  -13.5240   81.9910 N.3    47  VAL47      -0.1245
     77  CA       -52.9160  -13.8360   80.9530 C.3    47  VAL47       0.1561
     78  C        -52.2760  -12.5690   80.3900 C.2    47  VAL47       0.2260
     79  O        -51.0680  -12.5260   80.1490 O.2    47  VAL47      -0.2867
     80  CB       -53.5530  -14.6580   79.8110 C.3    47  VAL47       0.0252
     81  CG1      -52.5970  -14.7820   78.6320 C.3    47  VAL47       0.0019
     82  CG2      -53.9540  -16.0320   80.3150 C.3    47  VAL47       0.0019
     83  N        -57.9310  -14.5770   68.2050 N.3    57  ASN57      -0.1240
     84  CA       -57.9210  -15.3150   66.9430 C.3    57  ASN57       0.1653
     85  C        -59.3180  -15.6580   66.4320 C.2    57  ASN57       0.2266
     86  O        -60.0890  -16.3280   67.1140 O.2    57  ASN57      -0.2867
     87  CB       -57.0950  -16.5950   67.0860 C.3    57  ASN57       0.1155
     88  CG       -57.0830  -17.4280   65.8180 C.2    57  ASN57       0.2627
     89  OD1      -56.9640  -16.8980   64.7110 O.2    57  ASN57      -0.2716
     90  ND2      -57.2170  -18.7420   65.9730 N.am   57  ASN57      -0.0877
     91  N        -58.0640  -19.3900   61.4570 N.3    60  ASP60      -0.1225
     92  CA       -57.7700  -20.8150   61.5910 C.3    60  ASP60       0.1805
     93  C        -57.6780  -21.2310   63.0570 C.2    60  ASP60       0.2597
     94  O        -57.2770  -20.4320   63.9060 O.2    60  ASP60      -0.2718
     95  CB       -56.4850  -21.1890   60.8470 C.3    60  ASP60       0.1424
     96  CG       -56.6460  -21.1440   59.3340 C.2    60  ASP60       0.3668
     97  OD1      -57.7750  -20.9100   58.8490 O.co2  60  ASP60      -0.2456
     98  OD2      -55.6420  -21.3640   58.6260 O.co2  60  ASP60      -0.2456
     99  N        -58.0490  -22.4870   63.3170 N.am   61  ALA61      -0.1979
    100  CA       -58.2180  -23.0720   64.6580 C.3    61  ALA61       0.1597
    101  C        -59.5470  -22.6980   65.3170 C.2    61  ALA61       0.2287
    102  O        -59.9070  -23.2500   66.3550 O.2    61  ALA61      -0.2864
    103  CB       -57.0270  -22.7840   65.5880 C.3    61  ALA61       0.0319
    104  N        -56.3790  -11.3410   65.0090 N.3    91  ARG91      -0.1245
    105  CA       -56.2910  -11.9350   63.6810 C.3    91  ARG91       0.1563
    106  C        -57.6900  -12.2160   63.1580 C.2    91  ARG91       0.2260
    107  O        -58.3750  -13.1160   63.6460 O.2    91  ARG91      -0.2867
    108  CB       -55.4680  -13.2250   63.6940 C.3    91  ARG91       0.0307
    109  CG       -55.3150  -13.8470   62.3100 C.3    91  ARG91       0.0489
    110  CD       -54.3640  -15.0310   62.3070 C.3    91  ARG91       0.2205
    111  NE       -54.9930  -16.2610   62.7790 N.pl3  91  ARG91      -0.0865
    112  CZ       -54.4510  -17.4690   62.6520 C.cat  91  ARG91       0.5346
    113  NH1      -53.2710  -17.6080   62.0630 N.pl3  91  ARG91       0.1354
    114  NH2      -55.0870  -18.5380   63.1100 N.pl3  91  ARG91       0.1354
    115  N        -47.2210  -23.3620   58.7920 N.3   182  ALA182     -0.1231
    116  CA       -48.2230  -24.3640   58.4470 C.3   182  ALA182      0.1694
    117  C        -48.8550  -24.0800   57.0840 C.2   182  ALA182      0.2592
    118  O        -48.7600  -24.9000   56.1710 O.2   182  ALA182     -0.2718
    119  CB       -49.2840  -24.4550   59.5330 C.3   182  ALA182      0.0304
    120  N        -49.4900  -22.9190   56.9450 N.am  183  ASP183     -0.1974
    121  CA       -50.0690  -22.5240   55.6610 C.3   183  ASP183      0.1709
    122  C        -49.0120  -22.3630   54.5640 C.2   183  ASP183      0.2293
    123  O        -49.2780  -22.6570   53.3980 O.2   183  ASP183     -0.2864
    124  CB       -50.8840  -21.2310   55.7940 C.3   183  ASP183      0.1436
    125  CG       -52.3460  -21.4850   56.1280 C.2   183  ASP183      0.3671
    126  OD1      -52.9600  -22.3840   55.5130 O.co2 183  ASP183     -0.2456
    127  OD2      -52.8860  -20.7780   57.0040 O.co2 183  ASP183     -0.2456
    128  N        -45.3860  -28.1250   62.0230 N.3   195  VAL195     -0.1245
    129  CA       -45.5100  -26.6740   62.0700 C.3   195  VAL195      0.1561
    130  C        -44.2670  -26.0870   62.7200 C.2   195  VAL195      0.2260
    131  O        -44.1750  -25.9940   63.9450 O.2   195  VAL195     -0.2867
    132  CB       -46.7560  -26.2410   62.8620 C.3   195  VAL195      0.0252
    133  CG1      -46.8870  -24.7230   62.8670 C.3   195  VAL195      0.0019
    134  CG2      -47.9960  -26.8780   62.2700 C.3   195  VAL195      0.0019
    135  N        -46.3700  -19.6250   64.7680 N.3   245  PRO245     -0.2116
    136  CA       -46.6410  -20.7430   65.6720 C.3   245  PRO245      0.1372
    137  C        -45.5950  -21.8500   65.6010 C.2   245  PRO245      0.2244
    138  O        -45.0180  -22.1030   64.5410 O.2   245  PRO245     -0.2868
    139  CB       -47.9760  -21.2740   65.1550 C.3   245  PRO245      0.0268
    140  CG       -47.9200  -21.0140   63.6900 C.3   245  PRO245      0.0207
    141  CD       -47.1580  -19.7160   63.5260 C.3   245  PRO245      0.0892
    142  N        -46.0770  -25.6660   66.2950 N.3   247  GLY247     -0.1225
    143  CA       -47.2170  -26.5440   66.4930 C.3   247  GLY247      0.1811
    144  C        -47.0830  -27.6220   67.5530 C.2   247  GLY247      0.2280
    145  O        -48.0780  -28.0260   68.1530 O.2   247  GLY247     -0.2866
    146  N        -46.7410  -28.3680   70.7880 N.3   249  ILE249     -0.1231
    147  CA       -46.8490  -27.7130   72.0900 C.3   249  ILE249      0.1692
    148  C        -46.0470  -28.4310   73.1740 C.2   249  ILE249      0.2591
    149  O        -45.3950  -27.7940   74.0040 O.2   249  ILE249     -0.2718
    150  CB       -48.3200  -27.6240   72.5460 C.3   249  ILE249      0.0266
    151  CG1      -49.2060  -27.1130   71.4080 C.3   249  ILE249      0.0019
    152  CG2      -48.4520  -26.7430   73.7830 C.3   249  ILE249      0.0020
    153  CD1      -48.8120  -25.7510   70.8880 C.3   249  ILE249      0.0001
    154  N        -46.0930  -29.7590   73.1520 N.am  250  LYS250     -0.1980
    155  CA       -45.4460  -30.5730   74.1790 C.3   250  LYS250      0.1596
    156  C        -43.9190  -30.5490   74.1040 C.2   250  LYS250      0.2287
    157  O        -43.2400  -30.6660   75.1250 O.2   250  LYS250     -0.2864
    158  CB       -45.9550  -32.0180   74.1130 C.3   250  LYS250      0.0298
    159  CG       -47.0600  -32.3450   75.1120 C.3   250  LYS250      0.0038
    160  CD       -48.2620  -31.4260   74.9570 C.3   250  LYS250      0.0206
    161  CE       -49.3490  -31.7650   75.9680 C.3   250  LYS250      0.1093
    162  NZ       -50.5270  -30.8600   75.8520 N.3   250  LYS250     -0.1314
    163  N        -45.0640  -16.3400   68.4570 N.3   271  TRP271     -0.1241
    164  CA       -46.3970  -16.5960   68.9870 C.3   271  TRP271      0.1605
    165  C        -46.3340  -17.6190   70.1110 C.2   271  TRP271      0.2264
    166  O        -45.4450  -18.4700   70.1420 O.2   271  TRP271     -0.2867
    167  CB       -47.3300  -17.1520   67.9100 C.3   271  TRP271      0.0550
    168  CG       -47.5750  -16.2680   66.7300 C.ar  271  TRP271      0.0003
    169  CD1      -46.9960  -15.0590   66.4620 C.ar  271  TRP271      0.0946
    170  CD2      -48.4710  -16.5330   65.6480 C.ar  271  TRP271      0.0152
    171  NE1      -47.4810  -14.5570   65.2770 N.ar  271  TRP271     -0.2442
    172  CE2      -48.3880  -15.4450   64.7590 C.ar  271  TRP271      0.0810
    173  CE3      -49.3410  -17.5870   65.3470 C.ar  271  TRP271      0.0012
    174  CZ2      -49.1390  -15.3800   63.5880 C.ar  271  TRP271      0.0191
    175  CZ3      -50.0870  -17.5200   64.1870 C.ar  271  TRP271      0.0001
    176  CH2      -49.9800  -16.4260   63.3200 C.ar  271  TRP271      0.0015
    177  N        -49.1240  -20.4280   71.7910 N.3   273  LEU273     -0.1231
    178  CA       -50.4210  -21.0340   71.5210 C.3   273  LEU273      0.1693
    179  C        -51.0480  -21.5870   72.7950 C.2   273  LEU273      0.2592
    180  O        -52.2380  -21.9030   72.8300 O.2   273  LEU273     -0.2718
    181  CB       -50.2640  -22.1570   70.4960 C.3   273  LEU273      0.0284
    182  CG       -49.5880  -21.7570   69.1840 C.3   273  LEU273      0.0019
    183  CD1      -49.4200  -22.9690   68.2810 C.3   273  LEU273      0.0001
    184  CD2      -50.3920  -20.6660   68.4920 C.3   273  LEU273      0.0001
    185  N        -50.2300  -21.7060   73.8350 N.am  274  ALA274     -0.1966
    186  CA       -50.6500  -22.2780   75.1060 C.3   274  ALA274      0.1713
    187  C        -49.7810  -21.6700   76.1970 C.2   274  ALA274      0.2458
    188  O        -48.6640  -21.2310   75.9150 O.2   274  ALA274     -0.2730
    189  CB       -50.4940  -23.7970   75.0740 C.3   274  ALA274      0.0333
    190  N        -50.2880  -21.6330   77.4440 N.am  275  PRO275     -0.2727
    191  CA       -49.5700  -21.0240   78.5710 C.3   275  PRO275      0.1402
    192  C        -48.1100  -21.4580   78.7110 C.2   275  PRO275      0.2269
    193  O        -47.2760  -20.6360   79.0880 O.2   275  PRO275     -0.2865
    194  CB       -50.3810  -21.4870   79.7820 C.3   275  PRO275      0.0296
    195  CG       -51.7700  -21.5960   79.2580 C.3   275  PRO275      0.0237
    196  CD       -51.6360  -22.0870   77.8400 C.3   275  PRO275      0.0939
@<TRIPOS>BOND
     1   123   122    2
     2   122   121    1
     3   126   125   ar
     4   121   124    1
     5   121   120    1
     6   124   125    1
     7   125   127   ar
     8   118   117    2
     9   120   117   am
    10   117   116    1
    11   116   115    1
    12   116   119    1
    13    98    96   ar
    14    97    96   ar
    15    96    95    1
    16    95    92    1
    17    91    92    1
    18    92    93    1
    19   128   129    1
    20   113   112    1
    21   129   130    1
    22   129   132    1
    23   134   132    1
    24   110   109    1
    25   110   111    1
    26   109   108    1
    27   112   111    2
    28   112   114    1
    29   130   131    2
    30   132   133    1
    31    93    99   am
    32    93    94    2
    33   106   107    2
    34   106   105    1
    35    99   100    1
    36   176   174   ar
    37   176   175   ar
    38   141   140    1
    39   141   135    1
    40   174   172   ar
    41   105   108    1
    42   105   104    1
    43   140   139    1
    44   175   173   ar
    45   138   137    2
    46   100   101    1
    47   100   103    1
    48    89    88    2
    49   172   171   ar
    50   172   170   ar
    51   135   136    1
    52   139   136    1
    53   171   169   ar
    54   101   102    2
    55   173   170   ar
    56   137   136    1
    57   170   168   ar
    58    88    90   am
    59    88    87    1
    60    21    20   ar
    61    21    19   ar
    62    20    18   ar
    63   142   143    1
    64    85    84    1
    65    85    86    2
    66   169   168   ar
    67   143   144    1
    68   168   167    1
    69    84    87    1
    70    84    83    1
    71    19    17   ar
    72    18    16   ar
    73   144   145    2
    74   167   164    1
    75    17    16   ar
    76    16    15    1
    77   183   182    1
    78   163   164    1
    79   184   182    1
    80   164   165    1
    81   182   181    1
    82    15    12    1
    83   165   166    2
    84   181   178    1
    85    25    24    2
    86    12    11    1
    87    12    13    1
    88   146   147    1
    89   153   151    1
    90    34    37    1
    91    34    33    1
    92    34    35    1
    93    37    38    1
    94   151   150    1
    95    11     3   am
    96    24    33   am
    97    24    23    1
    98    22    13   am
    99    22    23    1
   100   178   177    1
   101   178   179    1
   102    13    14    2
   103    33    39    1
   104    35    36    2
   105   147   150    1
   106   147   148    1
   107     3     4    2
   108     3     2    1
   109    23    26    1
   110    38    39    1
   111     1     2    1
   112   150   152    1
   113   179   180    2
   114   179   185   am
   115     2     5    1
   116    31    29   ar
   117    31    32   ar
   118   154   148   am
   119   154   155    1
   120   148   149    2
   121    29    27   ar
   122    32    30   ar
   123    27    26    1
   124    27    28   ar
   125    30    28   ar
   126   185   186    1
   127   156   155    1
   128   156   157    2
   129   158   155    1
   130   158   159    1
   131     5     6    1
   132     6     7   ar
   133     6     8   ar
   134   160   159    1
   135   160   161    1
   136     7     9   ar
   137   189   186    1
   138   186   187    1
   139     8    10   ar
   140     9    10   ar
   141   162   161    1
   142   188   187    2
   143    56    54    1
   144   187   190   am
   145    55    53    1
   146    75    73    1
   147    53    54    1
   148    53    50    1
   149   190   196    1
   150   190   191    1
   151    73    72    1
   152   196   195    1
   153    74    72    1
   154   191   192    1
   155   191   194    1
   156    81    80    1
   157    50    51    1
   158    50    49    1
   159   192   193    2
   160    51    52    2
   161    72    69    1
   162    49    42   am
   163   195   194    1
   164    40    41    1
   165    80    82    1
   166    80    77    1
   167    47    48    1
   168    47    46    1
   169    69    70    1
   170    69    68    1
   171    45    46    1
   172    45    44    1
   173    79    78    2
   174    71    70    2
   175    42    41    1
   176    42    43    2
   177    78    77    1
   178    41    44    1
   179    68    59   am
   180    77    76    1
   181    59    60    2
   182    59    58    1
   183    57    58    1
   184    58    61    1
   185    61    62    1
   186    62    63    1
   187    63    64    1
   188    64    65    2
   189    66    65    1
   190    65    67    1
