@<TRIPOS>MOLECULE
tmp/4l82B00.pdb
 103 100 0 0 0
SMALL
GASTEIGER

@<TRIPOS>ATOM
      1  N        -13.8840   -9.0240   11.8620 N.3    28  VAL28      -0.1245
      2  CA       -12.5740   -9.5770   11.5980 C.3    28  VAL28       0.1561
      3  C        -11.9370   -8.7800   10.4510 C.2    28  VAL28       0.2260
      4  O        -12.5730   -8.5350    9.4260 O.2    28  VAL28      -0.2867
      5  CB       -12.7210  -11.0600   11.2030 C.3    28  VAL28       0.0252
      6  CG1      -11.3760  -11.7540   11.0950 C.3    28  VAL28       0.0019
      7  CG2      -13.5840  -11.7530   12.2390 C.3    28  VAL28       0.0019
      8  N         -1.6310   -8.9520    9.6020 N.3    42  PHE42      -0.1227
      9  CA        -2.1520   -9.9200   10.5560 C.3    42  PHE42       0.1736
     10  C         -3.6650   -9.8220   10.7010 C.2    42  PHE42       0.2596
     11  O         -4.2450   -8.7930   10.3890 O.2    42  PHE42      -0.2718
     12  CB        -1.4810   -9.7230   11.9270 C.3    42  PHE42       0.0547
     13  CG        -1.8810   -8.4680   12.6160 C.ar   42  PHE42      -0.0202
     14  CD1       -1.3540   -7.2500   12.2360 C.ar   42  PHE42      -0.0042
     15  CD2       -2.7880   -8.5070   13.6530 C.ar   42  PHE42      -0.0042
     16  CE1       -1.7280   -6.0790   12.8700 C.ar   42  PHE42      -0.0003
     17  CE2       -3.1670   -7.3430   14.2920 C.ar   42  PHE42      -0.0003
     18  CZ        -2.6330   -6.1210   13.9040 C.ar   42  PHE42      -0.0000
     19  N         -4.2830  -10.8960   11.1880 N.am   43  THR43      -0.1939
     20  CA        -5.7140  -10.9310   11.4440 C.3    43  THR43       0.2028
     21  C         -6.0180  -10.2620   12.7830 C.2    43  THR43       0.2642
     22  O         -5.4550  -10.6410   13.8010 O.2    43  THR43      -0.2714
     23  CB        -6.2480  -12.3730   11.4670 C.3    43  THR43       0.1808
     24  OG1       -5.9760  -12.9950   10.2060 O.3    43  THR43      -0.2208
     25  CG2       -7.7600  -12.3840   11.6900 C.3    43  THR43       0.0379
     26  N         -6.8970   -9.2490   12.7640 N.am   44  ALA44      -0.1963
     27  CA        -7.1950   -8.3980   13.9180 C.3    44  ALA44       0.1728
     28  C         -8.7070   -8.2420   14.1240 C.2    44  ALA44       0.2617
     29  O         -9.4190   -7.9300   13.1890 O.2    44  ALA44      -0.2715
     30  CB        -6.5660   -7.0240   13.7410 C.3    44  ALA44       0.0334
     31  N         -9.1680   -8.4790   15.3570 N.am   45  SER45      -0.1936
     32  CA       -10.5420   -8.2120   15.7680 C.3    45  SER45       0.2055
     33  C        -10.6390   -7.0510   16.7650 C.2    45  SER45       0.2643
     34  O        -11.7390   -6.5820   17.0590 O.2    45  SER45      -0.2714
     35  CB       -11.1660   -9.4880   16.3390 C.3    45  SER45       0.2130
     36  OG       -11.5440  -10.3310   15.2470 O.3    45  SER45      -0.2179
     37  N         -9.4920   -6.5950   17.2820 N.am   46  SER46      -0.1949
     38  CA        -9.4270   -5.4480   18.2070 C.3    46  SER46       0.1924
     39  C         -9.6020   -4.0790   17.5760 C.2    46  SER46       0.2314
     40  O         -9.1320   -3.0880   18.0990 O.2    46  SER46      -0.2863
     41  CB        -8.0710   -5.4010   18.8830 C.3    46  SER46       0.2116
     42  OG        -7.1210   -4.8490   17.9930 O.3    46  SER46      -0.2180
     43  N         -4.9010   -3.2030   18.4070 N.3    60  CYS60      -0.1221
     44  CA        -3.9460   -3.6660   19.3980 C.3    60  CYS60       0.1808
     45  C         -3.1850   -4.8400   18.8100 C.2    60  CYS60       0.2601
     46  O         -3.7770   -5.7480   18.2100 O.2    60  CYS60      -0.2717
     47  CB        -4.6610   -4.1130   20.6590 C.3    60  CYS60       0.0970
     48  SG        -5.7400   -2.8920   21.4510 S.3    60  CYS60      -0.0800
     49  N         -1.8730   -4.8470   18.9820 N.am   61  LEU61      -0.1965
     50  CA        -1.0320   -5.9280   18.4440 C.3    61  LEU61       0.1728
     51  C         -0.1050   -6.4450   19.5400 C.2    61  LEU61       0.2616
     52  O          0.4920   -5.6550   20.2740 O.2    61  LEU61      -0.2715
     53  CB        -0.2250   -5.4140   17.2470 C.3    61  LEU61       0.0311
     54  CG         0.8070   -6.3370   16.5580 C.3    61  LEU61       0.0022
     55  CD1        0.2060   -7.6650   16.1280 C.3    61  LEU61       0.0001
     56  CD2        1.4270   -5.6310   15.3490 C.3    61  LEU61       0.0001
     57  N         -0.0120   -7.7730   19.6500 N.am   62  ASN62      -0.1972
     58  CA         0.8240   -8.4330   20.6550 C.3    62  ASN62       0.1688
     59  C          2.3020   -8.0770   20.4650 C.2    62  ASN62       0.2292
     60  O          2.8380   -8.1600   19.3690 O.2    62  ASN62      -0.2864
     61  CB         0.6440   -9.9670   20.6010 C.3    62  ASN62       0.1181
     62  CG         1.0370  -10.6480   21.8940 C.2    62  ASN62       0.2629
     63  OD1        2.1540  -10.5270   22.3320 O.2    62  ASN62      -0.2716
     64  ND2        0.1100  -11.3610   22.5140 N.am   62  ASN62      -0.0877
     65  N         -3.6950  -15.0910   10.4750 N.3    94  ALA94      -0.1245
     66  CA        -3.5000  -15.3560   11.8960 C.3    94  ALA94       0.1562
     67  C         -2.3460  -16.3520   12.1450 C.2    94  ALA94       0.2260
     68  O         -1.9570  -16.5620   13.2830 O.2    94  ALA94      -0.2867
     69  CB        -4.7920  -15.8720   12.5080 C.3    94  ALA94       0.0290
     70  N          0.6180   -5.8050   24.8270 N.3   137  HIS137     -0.1241
     71  CA         0.3580   -5.3280   23.4890 C.3   137  HIS137      0.1621
     72  C          0.8160   -3.8670   23.3470 C.2   137  HIS137      0.2264
     73  O          1.1760   -3.1830   24.3290 O.2   137  HIS137     -0.2867
     74  CB        -1.1360   -5.3680   23.1870 C.3   137  HIS137      0.0745
     75  CG        -1.6810   -6.7240   22.8650 C.ar  137  HIS137      0.0817
     76  ND1       -1.5450   -7.8210   23.6930 N.ar  137  HIS137     -0.2268
     77  CD2       -2.4130   -7.1490   21.8050 C.ar  137  HIS137      0.1154
     78  CE1       -2.1620   -8.8600   23.1580 C.ar  137  HIS137      0.1986
     79  NE2       -2.7010   -8.4740   22.0170 N.ar  137  HIS137     -0.2212
     80  N        -16.3650  -12.8360   14.7110 N.3   158  TYR158     -0.1241
     81  CA       -15.6510  -13.6900   15.6560 C.3   158  TYR158      0.1605
     82  C        -16.3040  -13.5490   17.0370 C.2   158  TYR158      0.2264
     83  O        -16.3830  -12.4450   17.6040 O.2   158  TYR158     -0.2867
     84  CB       -14.1660  -13.3300   15.7040 C.3   158  TYR158      0.0534
     85  CG       -13.2980  -14.4350   16.2780 C.ar  158  TYR158     -0.0201
     86  CD1      -13.2330  -15.6890   15.6730 C.ar  158  TYR158     -0.0009
     87  CD2      -12.5590  -14.2340   17.4390 C.ar  158  TYR158     -0.0009
     88  CE1      -12.4560  -16.7050   16.2090 C.ar  158  TYR158      0.0417
     89  CE2      -11.7650  -15.2430   17.9720 C.ar  158  TYR158      0.0417
     90  CZ       -11.7220  -16.4650   17.3560 C.ar  158  TYR158      0.1957
     91  OH       -10.9520  -17.4560   17.8970 O.3   158  TYR158     -0.2866
     92  N        -15.8190  -18.5490   14.5290 N.3   163  TYR163     -0.1241
     93  CA       -16.2910  -17.7660   13.4100 C.3   163  TYR163      0.1605
     94  C        -17.7860  -17.9740   13.2290 C.2   163  TYR163      0.2264
     95  O        -18.2730  -19.0560   13.3620 O.2   163  TYR163     -0.2867
     96  CB       -15.5440  -18.1510   12.1200 C.3   163  TYR163      0.0534
     97  CG       -14.0680  -17.8080   12.1150 C.ar  163  TYR163     -0.0201
     98  CD1      -13.6430  -16.5070   11.9260 C.ar  163  TYR163     -0.0009
     99  CD2      -13.0990  -18.7940   12.2810 C.ar  163  TYR163     -0.0009
    100  CE1      -12.3010  -16.1810   11.9130 C.ar  163  TYR163      0.0417
    101  CE2      -11.7540  -18.4810   12.2650 C.ar  163  TYR163      0.0417
    102  CZ       -11.3590  -17.1780   12.0810 C.ar  163  TYR163      0.1957
    103  OH       -10.0240  -16.8400   12.0570 O.3   163  TYR163     -0.2866
@<TRIPOS>BOND
     1     4     3    2
     2     8     9    1
     3    24    23    1
     4    11    10    2
     5     3     2    1
     6    65    66    1
     7     9    10    1
     8     9    12    1
     9    10    19   am
    10     6     5    1
    11    19    20    1
    12     5     2    1
    13     5     7    1
    14    20    23    1
    15    20    21    1
    16    23    25    1
    17     2     1    1
    18    66    67    1
    19    66    69    1
    20   100    98   ar
    21   100   102   ar
    22    98    97   ar
    23    12    13    1
    24   103   102    1
    25   102   101   ar
    26    97    96    1
    27    97    99   ar
    28    96    93    1
    29    67    68    2
    30    14    13   ar
    31    14    16   ar
    32   101    99   ar
    33    13    15   ar
    34    26    21   am
    35    26    27    1
    36    21    22    2
    37    16    18   ar
    38    29    28    2
    39    94    95    2
    40    94    93    1
    41    93    92    1
    42    15    17   ar
    43    30    27    1
    44    18    17   ar
    45    27    28    1
    46    28    31   am
    47    80    81    1
    48    36    35    1
    49    56    54    1
    50    31    32    1
    51    81    84    1
    52    81    82    1
    53    86    88   ar
    54    86    85   ar
    55    84    85    1
    56    32    35    1
    57    32    33    1
    58    55    54    1
    59    88    90   ar
    60    85    87   ar
    61    54    53    1
    62    33    34    2
    63    33    37   am
    64    82    83    2
    65    53    50    1
    66    37    38    1
    67    90    91    1
    68    90    89   ar
    69    87    89   ar
    70    39    40    2
    71    39    38    1
    72    42    41    1
    73    38    41    1
    74    46    45    2
    75    43    44    1
    76    50    49    1
    77    50    51    1
    78    45    49   am
    79    45    44    1
    80    60    59    2
    81    44    47    1
    82    51    57   am
    83    51    52    2
    84    57    58    1
    85    59    58    1
    86    61    58    1
    87    61    62    1
    88    47    48    1
    89    77    79   ar
    90    77    75   ar
    91    62    63    2
    92    62    64   am
    93    79    78   ar
    94    75    74    1
    95    75    76   ar
    96    78    76   ar
    97    74    71    1
    98    72    71    1
    99    72    73    2
   100    71    70    1
