@<TRIPOS>MOLECULE
tmp/4l87A00.pdb
 182 170 0 0 0
SMALL
GASTEIGER

@<TRIPOS>ATOM
      1  N         38.8340  -46.9280    3.3330 N.3   270  THR270     -0.1218
      2  CA        38.8280  -45.4750    3.1870 C.3   270  THR270      0.1862
      3  C         38.6390  -45.1220    1.7130 C.2   270  THR270      0.2287
      4  O         38.9730  -45.9170    0.8330 O.2   270  THR270     -0.2866
      5  CB        40.1550  -44.8480    3.6750 C.3   270  THR270      0.1770
      6  OG1       40.6360  -45.5450    4.8310 O.3   270  THR270     -0.2211
      7  CG2       39.9660  -43.3790    4.0230 C.3   270  THR270      0.0375
      8  N         40.3570  -42.8080    0.5850 N.3   272  GLU272     -0.1245
      9  CA        41.7660  -42.5090    0.3270 C.3   272  GLU272      0.1567
     10  C         42.4000  -43.4970   -0.6530 C.2   272  GLU272      0.2260
     11  O         43.0610  -43.0900   -1.6080 O.2   272  GLU272     -0.2867
     12  CB        42.5450  -42.5010    1.6500 C.3   272  GLU272      0.0388
     13  CG        44.0610  -42.4110    1.5210 C.3   272  GLU272      0.1160
     14  CD        44.7930  -42.8260    2.7870 C.2   272  GLU272      0.3649
     15  OE1       45.9880  -43.1730    2.6930 O.co2 272  GLU272     -0.2457
     16  OE2       44.1820  -42.8080    3.8770 O.co2 272  GLU272     -0.2457
     17  N         35.8540  -52.0180    7.5610 N.3   301  ARG301     -0.1245
     18  CA        36.9700  -52.2650    8.4750 C.3   301  ARG301      0.1563
     19  C         36.7170  -53.4800    9.3610 C.2   301  ARG301      0.2260
     20  O         35.6520  -53.6100    9.9670 O.2   301  ARG301     -0.2867
     21  CB        37.2670  -51.0250    9.3260 C.3   301  ARG301      0.0307
     22  CG        37.5150  -49.7680    8.5080 C.3   301  ARG301      0.0489
     23  CD        38.3310  -48.7410    9.2670 C.3   301  ARG301      0.2205
     24  NE        38.6030  -47.5710    8.4360 N.pl3 301  ARG301     -0.0865
     25  CZ        39.5640  -46.6840    8.6720 C.cat 301  ARG301      0.5346
     26  NH1       40.3670  -46.8240    9.7200 N.pl3 301  ARG301      0.1354
     27  NH2       39.7270  -45.6540    7.8530 N.pl3 301  ARG301      0.1354
     28  N         38.4670  -54.3310   12.0450 N.3   303  GLU303     -0.1245
     29  CA        38.6170  -53.8780   13.4350 C.3   303  GLU303      0.1567
     30  C         39.0770  -54.9860   14.3930 C.2   303  GLU303      0.2260
     31  O         38.5280  -55.1520   15.4860 O.2   303  GLU303     -0.2867
     32  CB        37.3180  -53.2170   13.9260 C.3   303  GLU303      0.0388
     33  CG        37.5190  -52.0870   14.9280 C.3   303  GLU303      0.1160
     34  CD        38.0890  -50.8250   14.3020 C.2   303  GLU303      0.3649
     35  OE1       37.7270  -50.5010   13.1500 O.co2 303  GLU303     -0.2457
     36  OE2       38.8990  -50.1480   14.9700 O.co2 303  GLU303     -0.2457
     37  N         29.2710  -46.2950   17.0220 N.3   315  PHE315     -0.1227
     38  CA        30.5460  -45.5780   17.0540 C.3   315  PHE315      0.1736
     39  C         31.6830  -46.3800   16.4200 C.2   315  PHE315      0.2595
     40  O         32.4350  -45.8520   15.6010 O.2   315  PHE315     -0.2718
     41  CB        30.9090  -45.1720   18.4880 C.3   315  PHE315      0.0547
     42  CG        32.1610  -44.3450   18.5840 C.ar  315  PHE315     -0.0202
     43  CD1       32.1210  -42.9710   18.3690 C.ar  315  PHE315     -0.0042
     44  CD2       33.3820  -44.9410   18.8860 C.ar  315  PHE315     -0.0042
     45  CE1       33.2750  -42.2080   18.4520 C.ar  315  PHE315     -0.0003
     46  CE2       34.5390  -44.1830   18.9700 C.ar  315  PHE315     -0.0003
     47  CZ        34.4850  -42.8150   18.7500 C.ar  315  PHE315     -0.0000
     48  N         31.8110  -47.6450   16.8140 N.am  316  ARG316     -0.1966
     49  CA        32.8060  -48.5400   16.2300 C.3   316  ARG316      0.1729
     50  C         32.1060  -49.7140   15.5510 C.2   316  ARG316      0.2616
     51  O         31.6030  -50.6240   16.2170 O.2   316  ARG316     -0.2715
     52  CB        33.8070  -49.0160   17.2910 C.3   316  ARG316      0.0348
     53  CG        34.8980  -49.9350   16.7610 C.3   316  ARG316      0.0492
     54  CD        36.0290  -50.1100   17.7620 C.3   316  ARG316      0.2205
     55  NE        37.0380  -49.0580   17.6450 N.pl3 316  ARG316     -0.0865
     56  CZ        37.1310  -48.0020   18.4490 C.cat 316  ARG316      0.5346
     57  NH1       38.0880  -47.1060   18.2500 N.pl3 316  ARG316      0.1354
     58  NH2       36.2770  -47.8370   19.4520 N.pl3 316  ARG316      0.1354
     59  N         32.0710  -49.6720   14.2220 N.am  317  VAL317     -0.1977
     60  CA        31.3770  -50.6780   13.4130 C.3   317  VAL317      0.1596
     61  C         32.2200  -51.1280   12.2180 C.2   317  VAL317      0.2287
     62  O         33.2170  -50.4870   11.8750 O.2   317  VAL317     -0.2864
     63  CB        29.9980  -50.1730   12.9230 C.3   317  VAL317      0.0276
     64  CG1       28.9640  -50.2630   14.0370 C.3   317  VAL317      0.0022
     65  CG2       30.0920  -48.7510   12.3790 C.3   317  VAL317      0.0022
     66  N         30.6170  -48.1770    7.5200 N.3   320  PHE320     -0.1241
     67  CA        30.2270  -46.7740    7.6900 C.3   320  PHE320      0.1605
     68  C         30.5040  -45.9250    6.4490 C.2   320  PHE320      0.2264
     69  O         31.4730  -46.1640    5.7260 O.2   320  PHE320     -0.2867
     70  CB        30.9140  -46.1590    8.9210 C.3   320  PHE320      0.0534
     71  CG        32.4160  -46.0810    8.8170 C.ar  320  PHE320     -0.0203
     72  CD1       33.2100  -47.1830    9.1240 C.ar  320  PHE320     -0.0042
     73  CD2       33.0380  -44.8980    8.4300 C.ar  320  PHE320     -0.0042
     74  CE1       34.5930  -47.1100    9.0340 C.ar  320  PHE320     -0.0003
     75  CE2       34.4200  -44.8190    8.3370 C.ar  320  PHE320     -0.0003
     76  CZ        35.1980  -45.9260    8.6420 C.ar  320  PHE320     -0.0000
     77  N         31.5900  -42.3320    4.7100 N.3   322  LYS322     -0.1245
     78  CA        32.5390  -41.2710    5.0380 C.3   322  LYS322      0.1561
     79  C         32.8480  -40.3800    3.8370 C.2   322  LYS322      0.2260
     80  O         33.1390  -40.8710    2.7430 O.2   322  LYS322     -0.2867
     81  CB        33.8310  -41.8690    5.6080 C.3   322  LYS322      0.0271
     82  CG        34.8480  -40.8410    6.0880 C.3   322  LYS322      0.0035
     83  CD        36.1150  -41.4920    6.6310 C.3   322  LYS322      0.0206
     84  CE        36.8440  -42.3290    5.5880 C.3   322  LYS322      0.1093
     85  NZ        37.1010  -41.6000    4.3140 N.3   322  LYS322     -0.1314
     86  N         35.4520  -37.8410    2.2600 N.3   324  GLU324     -0.1245
     87  CA        36.9050  -37.7130    2.3760 C.3   324  GLU324      0.1567
     88  C         37.4670  -36.5590    1.5460 C.2   324  GLU324      0.2260
     89  O         37.0290  -36.3200    0.4210 O.2   324  GLU324     -0.2867
     90  CB        37.5690  -39.0340    1.9610 C.3   324  GLU324      0.0388
     91  CG        39.0910  -39.0780    2.0700 C.3   324  GLU324      0.1160
     92  CD        39.5960  -39.4140    3.4640 C.2   324  GLU324      0.3649
     93  OE1       40.8170  -39.6280    3.6100 O.co2 324  GLU324     -0.2457
     94  OE2       38.7860  -39.4720    4.4150 O.co2 324  GLU324     -0.2457
     95  N         50.2840  -36.4170   11.3940 N.3   375  LYS375     -0.1245
     96  CA        48.8400  -36.6020   11.5160 C.3   375  LYS375      0.1561
     97  C         48.2380  -35.6930   12.5870 C.2   375  LYS375      0.2260
     98  O         48.7930  -35.5520   13.6790 O.2   375  LYS375     -0.2867
     99  CB        48.5030  -38.0700   11.8010 C.3   375  LYS375      0.0271
    100  CG        47.0270  -38.4230   11.6660 C.3   375  LYS375      0.0035
    101  CD        46.7850  -39.9250   11.7530 C.3   375  LYS375      0.0206
    102  CE        46.7380  -40.4140   13.1930 C.3   375  LYS375      0.1093
    103  NZ        46.4420  -41.8710   13.2780 N.3   375  LYS375     -0.1314
    104  N         37.4920  -39.6860   18.7690 N.3   390  GLU390     -0.1231
    105  CA        38.0600  -39.3890   17.4530 C.3   390  GLU390      0.1699
    106  C         36.9900  -39.3310   16.3610 C.2   390  GLU390      0.2592
    107  O         36.1780  -40.2500   16.2270 O.2   390  GLU390     -0.2718
    108  CB        39.1240  -40.4340   17.0940 C.3   390  GLU390      0.0402
    109  CG        39.8800  -40.1590   15.8000 C.3   390  GLU390      0.1161
    110  CD        40.6390  -41.3710   15.2860 C.2   390  GLU390      0.3649
    111  OE1       40.6650  -41.5730   14.0540 O.co2 390  GLU390     -0.2457
    112  OE2       41.2090  -42.1230   16.1070 O.co2 390  GLU390     -0.2457
    113  N         36.9990  -38.2440   15.5920 N.am  391  LEU391     -0.1966
    114  CA        36.1010  -38.0890   14.4470 C.3   391  LEU391      0.1728
    115  C         36.8620  -37.8860   13.1380 C.2   391  LEU391      0.2616
    116  O         36.4440  -38.3800   12.0890 O.2   391  LEU391     -0.2715
    117  CB        35.1240  -36.9240   14.6550 C.3   391  LEU391      0.0311
    118  CG        34.0440  -36.9500   15.7420 C.3   391  LEU391      0.0022
    119  CD1       33.0000  -35.8890   15.4300 C.3   391  LEU391      0.0001
    120  CD2       33.3760  -38.3100   15.8810 C.3   391  LEU391      0.0001
    121  N         37.9710  -37.1520   13.2070 N.am  392  VAL392     -0.1963
    122  CA        38.7400  -36.7780   12.0180 C.3   392  VAL392      0.1727
    123  C         40.2200  -37.1440   12.1510 C.2   392  VAL392      0.2616
    124  O         40.8020  -37.0270   13.2280 O.2   392  VAL392     -0.2715
    125  CB        38.5840  -35.2680   11.6990 C.3   392  VAL392      0.0290
    126  CG1       39.5760  -34.8090   10.6370 C.3   392  VAL392      0.0023
    127  CG2       37.1630  -34.9570   11.2540 C.3   392  VAL392      0.0023
    128  N         40.8070  -37.6030   11.0460 N.am  393  SER393     -0.1950
    129  CA        42.2490  -37.8080   10.9380 C.3   393  SER393      0.1924
    130  C         42.7790  -37.1180    9.6830 C.2   393  SER393      0.2314
    131  O         42.3440  -37.4190    8.5700 O.2   393  SER393     -0.2863
    132  CB        42.5920  -39.2990   10.9100 C.3   393  SER393      0.2116
    133  OG        42.3100  -39.9140   12.1540 O.3   393  SER393     -0.2180
    134  N         46.1640  -36.3110    7.4850 N.3   395  SER395     -0.1217
    135  CA        47.5280  -36.7860    7.2650 C.3   395  SER395      0.1889
    136  C         48.1660  -36.2260    5.9980 C.2   395  SER395      0.2288
    137  O         47.5200  -36.1380    4.9510 O.2   395  SER395     -0.2866
    138  CB        47.5580  -38.3170    7.2130 C.3   395  SER395      0.2089
    139  OG        47.0320  -38.8840    8.3990 O.3   395  SER395     -0.2183
    140  N         45.4890  -36.7880    2.7770 N.3   426  ASN426     -0.1225
    141  CA        44.1530  -37.3230    3.0320 C.3   426  ASN426      0.1785
    142  C         43.6060  -36.9310    4.4020 C.2   426  ASN426      0.2597
    143  O         44.2860  -37.0760    5.4210 O.2   426  ASN426     -0.2718
    144  CB        44.1210  -38.8470    2.8520 C.3   426  ASN426      0.1169
    145  CG        45.1350  -39.5640    3.7240 C.2   426  ASN426      0.2627
    146  OD1       44.8170  -40.0030    4.8290 O.2   426  ASN426     -0.2716
    147  ND2       46.3640  -39.6830    3.2330 N.am  426  ASN426     -0.0877
    148  N         42.3750  -36.4270    4.4070 N.am  427  ALA427     -0.1966
    149  CA        41.6890  -36.0250    5.6320 C.3   427  ALA427      0.1728
    150  C         40.1930  -36.2790    5.5040 C.2   427  ALA427      0.2616
    151  O         39.6020  -36.0120    4.4600 O.2   427  ALA427     -0.2715
    152  CB        41.9520  -34.5580    5.9330 C.3   427  ALA427      0.0334
    153  N         39.5830  -36.7960    6.5650 N.am  428  THR428     -0.1951
    154  CA        38.1390  -37.0330    6.5630 C.3   428  THR428      0.1897
    155  C         37.3580  -35.7660    6.9080 C.2   428  THR428      0.2313
    156  O         37.6990  -35.0470    7.8490 O.2   428  THR428     -0.2863
    157  CB        37.7240  -38.2160    7.4720 C.3   428  THR428      0.1794
    158  OG1       36.3080  -38.1830    7.6980 O.3   428  THR428     -0.2208
    159  CG2       38.4420  -38.1730    8.8080 C.3   428  THR428      0.0378
    160  N         32.6740  -38.4880    9.0920 N.3   431  ALA431     -0.1245
    161  CA        32.3970  -39.9100    9.2620 C.3   431  ALA431      0.1562
    162  C         30.9810  -40.0580    9.8090 C.2   431  ALA431      0.2260
    163  O         30.7430  -39.8720   11.0060 O.2   431  ALA431     -0.2867
    164  CB        33.4150  -40.5470   10.1950 C.3   431  ALA431      0.0290
    165  N         28.5420  -42.1960   10.7760 N.3   433  THR433     -0.1203
    166  CA        28.1140  -42.9160   11.9820 C.3   433  THR433      0.1994
    167  C         28.6260  -42.2820   13.2740 C.2   433  THR433      0.2617
    168  O         27.9010  -42.2250   14.2690 O.2   433  THR433     -0.2717
    169  CB        28.5350  -44.4010   11.9520 C.3   433  THR433      0.1784
    170  OG1       29.9460  -44.4990   11.7160 O.3   433  THR433     -0.2211
    171  CG2       27.7810  -45.1560   10.8630 C.3   433  THR433      0.0376
    172  N         29.8690  -41.8060   13.2500 N.am  434  ARG434     -0.1979
    173  CA        30.4830  -41.1760   14.4180 C.3   434  ARG434      0.1597
    174  C         30.0600  -39.7180   14.5910 C.2   434  ARG434      0.2287
    175  O         30.0190  -39.2110   15.7140 O.2   434  ARG434     -0.2864
    176  CB        32.0070  -41.2910   14.3600 C.3   434  ARG434      0.0334
    177  CG        32.5320  -42.6810   14.6760 C.3   434  ARG434      0.0492
    178  CD        34.0210  -42.6570   14.9730 C.3   434  ARG434      0.2205
    179  NE        34.5360  -43.9870   15.2950 N.pl3 434  ARG434     -0.0865
    180  CZ        35.7890  -44.2470   15.6620 C.cat 434  ARG434      0.5346
    181  NH1       36.6800  -43.2680   15.7630 N.pl3 434  ARG434      0.1354
    182  NH2       36.1520  -45.4930   15.9320 N.pl3 434  ARG434      0.1354
@<TRIPOS>BOND
     1    11    10    2
     2    10     9    1
     3     9     8    1
     4     9    12    1
     5    89    88    2
     6     4     3    2
     7    13    12    1
     8    13    14    1
     9    88    87    1
    10     3     2    1
    11    90    91    1
    12    90    87    1
    13    91    92    1
    14    86    87    1
    15    15    14   ar
    16    80    79    2
    17   140   141    1
    18    14    16   ar
    19   144   141    1
    20   144   145    1
    21   141   142    1
    22     2     1    1
    23     2     5    1
    24   147   145   am
    25    92    93   ar
    26    92    94   ar
    27     5     7    1
    28     5     6    1
    29   145   146    2
    30    79    78    1
    31    85    84    1
    32   142   148   am
    33   142   143    2
    34   148   149    1
    35   151   150    2
    36    77    78    1
    37   137   136    2
    38    78    81    1
    39   150   149    1
    40   150   153   am
    41    84    83    1
    42    81    82    1
    43   149   152    1
    44    69    68    2
    45   136   135    1
    46    82    83    1
    47    68    67    1
    48   154   153    1
    49   154   155    1
    50   154   157    1
    51   155   156    2
    52   138   135    1
    53   138   139    1
    54   135   134    1
    55   157   158    1
    56   157   159    1
    57    66    67    1
    58    17    18    1
    59    67    70    1
    60    27    25    1
    61    75    73   ar
    62    75    76   ar
    63    73    71   ar
    64    24    25    2
    65    24    23    1
    66    18    21    1
    67    18    19    1
    68    22    23    1
    69    22    21    1
    70   131   130    2
    71    76    74   ar
    72    25    26    1
    73    71    70    1
    74    71    72   ar
    75    74    72   ar
    76   160   161    1
    77   161   162    1
    78   161   164    1
    79    19    20    2
    80   130   129    1
    81   162   163    2
    82   126   125    1
    83   165   166    1
    84   171   169    1
    85   132   129    1
    86   132   133    1
    87   129   128    1
    88   128   123   am
    89   127   125    1
    90    95    96    1
    91    96    99    1
    92    96    97    1
    93   100   101    1
    94   100    99    1
    95   125   122    1
    96   170   169    1
    97   101   102    1
    98    62    61    2
    99   169   166    1
   100   166   167    1
   101   122   123    1
   102   122   121    1
   103    28    29    1
   104   116   115    2
   105   123   124    2
   106    61    60    1
   107    65    63    1
   108    97    98    2
   109    63    60    1
   110    63    64    1
   111   115   121   am
   112   115   114    1
   113    35    34   ar
   114   102   103    1
   115   172   167   am
   116   172   173    1
   117   167   168    2
   118    60    59    1
   119    29    32    1
   120    29    30    1
   121    32    33    1
   122   111   110   ar
   123    59    50   am
   124    34    33    1
   125    34    36   ar
   126   176   173    1
   127   176   177    1
   128    30    31    2
   129   173   174    1
   130   114   117    1
   131   114   113    1
   132   174   175    2
   133   117   118    1
   134   177   178    1
   135   178   179    1
   136   110   109    1
   137   110   112   ar
   138   179   180    2
   139   119   118    1
   140    50    51    2
   141    50    49    1
   142   113   106   am
   143    40    39    2
   144   180   181    1
   145   180   182    1
   146   118   120    1
   147   109   108    1
   148   107   106    2
   149    49    48    1
   150    49    52    1
   151   106   105    1
   152    39    48   am
   153    39    38    1
   154    53    52    1
   155    53    54    1
   156    37    38    1
   157    38    41    1
   158   108   105    1
   159   105   104    1
   160    55    54    1
   161    55    56    2
   162    57    56    1
   163    43    45   ar
   164    43    42   ar
   165    56    58    1
   166    45    47   ar
   167    41    42    1
   168    42    44   ar
   169    47    46   ar
   170    44    46   ar
