@<TRIPOS>MOLECULE
tmp/4l8aA01.pdb
 105 103 0 0 0
SMALL
GASTEIGER

@<TRIPOS>ATOM
      1  N         17.4620   -6.8630   -3.4880 N.3    29  CYS29      -0.1221
      2  CA        16.7600   -7.8570   -4.3110 C.3    29  CYS29       0.1808
      3  C         15.3190   -7.4880   -4.5530 C.2    29  CYS29       0.2601
      4  O         14.6790   -8.1280   -5.3970 O.2    29  CYS29      -0.2717
      5  CB        16.9150   -9.3140   -3.7420 C.3    29  CYS29       0.0970
      6  SG        16.0170   -9.5110   -2.1150 S.3    29  CYS29      -0.0800
      7  N         14.7550   -6.5080   -3.8710 N.am   30  TYR30      -0.1962
      8  CA        13.3360   -6.1650   -3.9030 C.3    30  TYR30       0.1756
      9  C         13.1450   -4.7520   -3.3630 C.2    30  TYR30       0.2461
     10  O         12.6460   -4.5310   -2.2900 O.2    30  TYR30      -0.2730
     11  CB        12.5260   -7.2180   -3.1630 C.3    30  TYR30       0.0574
     12  CG        11.0160   -7.2210   -3.2860 C.ar   30  TYR30      -0.0198
     13  CD1       10.2810   -6.1910   -3.8550 C.ar   30  TYR30      -0.0009
     14  CD2       10.3160   -8.2790   -2.7520 C.ar   30  TYR30      -0.0009
     15  CE1        8.8860   -6.2630   -3.8880 C.ar   30  TYR30       0.0417
     16  CE2        8.9340   -8.3670   -2.7800 C.ar   30  TYR30       0.0417
     17  CZ         8.2120   -7.3450   -3.3450 C.ar   30  TYR30       0.1957
     18  OH         6.8290   -7.3780   -3.3670 O.3    30  TYR30      -0.2866
     19  N         13.6400   -3.7490   -4.1210 N.am   31  PRO31      -0.2716
     20  CA        13.7060   -2.4060   -3.5330 C.3    31  PRO31       0.1536
     21  C         12.3820   -1.7850   -3.1860 C.2    31  PRO31       0.2598
     22  O         12.3620   -0.8650   -2.3870 O.2    31  PRO31      -0.2715
     23  CB        14.4360   -1.5770   -4.6140 C.3    31  PRO31       0.0310
     24  CG        14.2810   -2.4100   -5.8710 C.3    31  PRO31       0.0237
     25  CD        14.3260   -3.8250   -5.4040 C.3    31  PRO31       0.0939
     26  N         11.2690   -2.2550   -3.7690 N.am   32  LYS32      -0.1978
     27  CA         9.9540   -1.7480   -3.4060 C.3    32  LYS32       0.1596
     28  C          9.3850   -2.3850   -2.1540 C.2    32  LYS32       0.2287
     29  O          8.4220   -1.8800   -1.5890 O.2    32  LYS32      -0.2864
     30  CB         8.9900   -1.8860   -4.5970 C.3    32  LYS32       0.0298
     31  CG         9.3240   -0.9510   -5.7420 C.3    32  LYS32       0.0038
     32  CD         9.6240    0.4620   -5.2250 C.3    32  LYS32       0.0206
     33  CE         9.9590    1.4190   -6.3710 C.3    32  LYS32       0.1093
     34  NZ        11.2950    1.1570   -6.9950 N.3    32  LYS32      -0.1314
     35  N          4.4500  -10.7340  -11.2400 N.3    49  ARG49      -0.1245
     36  CA         5.6200  -11.0570  -12.0630 C.3    49  ARG49       0.1563
     37  C          5.3960  -12.3370  -12.8310 C.2    49  ARG49       0.2260
     38  O          4.2690  -12.8680  -12.8980 O.2    49  ARG49      -0.2867
     39  CB         6.8720  -11.0660  -11.2140 C.3    49  ARG49       0.0307
     40  CG         7.1760   -9.7210  -10.6100 C.3    49  ARG49       0.0489
     41  CD         8.4250   -9.8100   -9.7620 C.3    49  ARG49       0.2205
     42  NE         8.7370   -8.5430   -9.1180 N.pl3  49  ARG49      -0.0865
     43  CZ         9.9500   -8.1160   -8.8690 C.cat  49  ARG49       0.5346
     44  NH1       10.1500   -6.9550   -8.2590 N.pl3  49  ARG49       0.1354
     45  NH2       10.9970   -8.8420   -9.2060 N.pl3  49  ARG49       0.1354
     46  N         11.3140   -9.6380  -13.5850 N.3    68  TYR68      -0.1241
     47  CA        10.8570   -8.2660  -13.3090 C.3    68  TYR68       0.1605
     48  C         10.0150   -7.6730  -14.4590 C.2    68  TYR68       0.2264
     49  O          9.0260   -6.9850  -14.2190 O.2    68  TYR68      -0.2867
     50  CB        12.0620   -7.3860  -12.9830 C.3    68  TYR68       0.0534
     51  CG        11.7270   -5.9380  -12.7970 C.ar   68  TYR68      -0.0201
     52  CD1       10.7920   -5.5350  -11.8570 C.ar   68  TYR68      -0.0009
     53  CD2       12.3600   -4.9540  -13.5520 C.ar   68  TYR68      -0.0009
     54  CE1       10.4880   -4.1940  -11.6780 C.ar   68  TYR68       0.0417
     55  CE2       12.0660   -3.6210  -13.3690 C.ar   68  TYR68       0.0417
     56  CZ        11.1300   -3.2520  -12.4370 C.ar   68  TYR68       0.1957
     57  OH        10.8440   -1.9250  -12.2690 O.3    68  TYR68      -0.2866
     58  N         15.5920   -9.8210  -15.1460 N.3    78  LEU78      -0.1231
     59  CA        15.6120  -10.6820  -13.9720 C.3    78  LEU78       0.1693
     60  C         15.2970   -9.9010  -12.7270 C.2    78  LEU78       0.2593
     61  O         15.7400   -8.7850  -12.5720 O.2    78  LEU78      -0.2718
     62  CB        17.0310  -11.2610  -13.8060 C.3    78  LEU78       0.0284
     63  CG        17.1860  -12.4310  -12.8080 C.3    78  LEU78       0.0019
     64  CD1       16.4860  -13.6250  -13.3490 C.3    78  LEU78       0.0001
     65  CD2       18.6420  -12.7360  -12.4840 C.3    78  LEU78       0.0001
     66  N         14.5250  -10.4960  -11.8170 N.am   79  GLY79      -0.1942
     67  CA        14.2360   -9.9100  -10.5110 C.3    79  GLY79       0.2014
     68  C         14.2240  -10.8320   -9.3220 C.2    79  GLY79       0.2639
     69  O         14.2580  -12.0430   -9.4680 O.2    79  GLY79      -0.2714
     70  N         14.2460  -10.2210   -8.1490 N.am   80  ASN80      -0.1958
     71  CA        14.1030  -10.9560   -6.9240 C.3    80  ASN80       0.1819
     72  C         15.0770  -12.1390   -6.7370 C.2    80  ASN80       0.2621
     73  O         14.7110  -13.1760   -6.1870 O.2    80  ASN80      -0.2715
     74  CB        12.6810  -11.4940   -6.7050 C.3    80  ASN80       0.1195
     75  CG        11.5950  -10.4320   -6.4670 C.2    80  ASN80       0.2630
     76  OD1       10.4150  -10.7450   -6.6510 O.2    80  ASN80      -0.2716
     77  ND2       11.9270   -9.2520   -5.9310 N.am   80  ASN80      -0.0877
     78  N         16.3020  -11.9820   -7.1660 N.am   81  MET81      -0.1977
     79  CA        17.3080  -13.0380   -7.1000 C.3    81  MET81       0.1605
     80  C         17.7610  -13.1530   -5.6580 C.2    81  MET81       0.2287
     81  O         18.4310  -12.2390   -5.1340 O.2    81  MET81      -0.2864
     82  CB        18.4740  -12.6890   -8.0270 C.3    81  MET81       0.0413
     83  CG        19.6360  -13.7010   -8.1190 C.3    81  MET81       0.0598
     84  SD        19.2390  -15.3300   -8.8220 S.3    81  MET81      -0.1393
     85  CE        19.2110  -16.2810   -7.3860 C.3    81  MET81       0.0692
     86  N         19.6290   -7.1160  -16.3310 N.3   115  ILE115     -0.1245
     87  CA        19.8250   -7.3450  -14.8760 C.3   115  ILE115      0.1561
     88  C         20.3580   -6.0320  -14.3210 C.2   115  ILE115      0.2260
     89  O         21.3790   -5.4990  -14.7890 O.2   115  ILE115     -0.2867
     90  CB        20.8130   -8.4940  -14.5220 C.3   115  ILE115      0.0252
     91  CG1       20.3560   -9.8410  -15.0990 C.3   115  ILE115      0.0019
     92  CG2       21.0400   -8.6000  -13.0200 C.3   115  ILE115      0.0019
     93  CD1       21.2690  -11.0580  -14.8230 C.3   115  ILE115      0.0001
     94  N         27.2590  -11.0750  -11.9730 N.3   128  TYR128     -0.1241
     95  CA        26.7140  -10.8330  -13.3060 C.3   128  TYR128      0.1605
     96  C         27.8130  -10.6030  -14.2960 C.2   128  TYR128      0.2264
     97  O         27.7280  -11.0350  -15.4510 O.2   128  TYR128     -0.2867
     98  CB        25.7120   -9.6730  -13.2700 C.3   128  TYR128      0.0534
     99  CG        24.6340   -9.9200  -12.2830 C.ar  128  TYR128     -0.0201
    100  CD1       23.9130  -11.0790  -12.2800 C.ar  128  TYR128     -0.0009
    101  CD2       24.3380   -8.9580  -11.3010 C.ar  128  TYR128     -0.0009
    102  CE1       22.9280  -11.3040  -11.3270 C.ar  128  TYR128      0.0417
    103  CE2       23.3680   -9.1390  -10.3680 C.ar  128  TYR128      0.0417
    104  CZ        22.6310  -10.2980  -10.4060 C.ar  128  TYR128      0.1957
    105  OH        21.6460  -10.5170   -9.4770 O.3   128  TYR128     -0.2866
@<TRIPOS>BOND
     1    86    87    1
     2    97    96    2
     3    58    59    1
     4    91    93    1
     5    91    90    1
     6    87    90    1
     7    87    88    1
     8    89    88    2
     9    90    92    1
    10    48    49    2
    11    48    47    1
    12    96    95    1
    13    59    62    1
    14    59    60    1
    15    62    63    1
    16    46    47    1
    17    53    55   ar
    18    53    51   ar
    19    55    56   ar
    20    64    63    1
    21    47    50    1
    22    95    98    1
    23    95    94    1
    24    98    99    1
    25    50    51    1
    26    38    37    2
    27    37    36    1
    28    63    65    1
    29    51    52   ar
    30    60    61    2
    31    60    66   am
    32    56    57    1
    33    56    54   ar
    34    99   100   ar
    35    99   101   ar
    36   100   102   ar
    37    36    35    1
    38    36    39    1
    39    52    54   ar
    40    66    67    1
    41   102   104   ar
    42   101   103   ar
    43    39    40    1
    44    40    41    1
    45    67    68    1
    46   104   103   ar
    47   104   105    1
    48    41    42    1
    49    69    68    2
    50    68    70   am
    51    45    43    1
    52    42    43    2
    53    43    44    1
    54    84    83    1
    55    84    85    1
    56    70    71    1
    57    83    82    1
    58    82    79    1
    59    78    79    1
    60    78    72   am
    61    79    80    1
    62    34    33    1
    63    71    72    1
    64    71    74    1
    65    72    73    2
    66    74    75    1
    67    76    75    2
    68    75    77   am
    69    33    32    1
    70    24    25    1
    71    24    23    1
    72    31    32    1
    73    31    30    1
    74    80    81    2
    75    25    19    1
    76     4     3    2
    77    23    20    1
    78    30    27    1
    79     3     2    1
    80     3     7   am
    81     2     5    1
    82     2     1    1
    83    19    20    1
    84    19     9   am
    85     8     7    1
    86     8     9    1
    87     8    11    1
    88    15    13   ar
    89    15    17   ar
    90    13    12   ar
    91    26    27    1
    92    26    21   am
    93     5     6    1
    94    20    21    1
    95    27    28    1
    96    18    17    1
    97     9    10    2
    98    17    16   ar
    99    12    11    1
   100    12    14   ar
   101    21    22    2
   102    16    14   ar
   103    28    29    2
