@<TRIPOS>MOLECULE
tmp/4l8eA01.pdb
 112 113 0 0 0
SMALL
GASTEIGER

@<TRIPOS>ATOM
      1  N        -36.1560    9.7780   33.9780 N.3     7  PRO7       -0.2102
      2  CA       -37.5710    9.7350   34.3350 C.3     7  PRO7        0.1504
      3  C        -37.8170    8.7740   35.4840 C.2     7  PRO7        0.2576
      4  O        -38.2360    7.6250   35.2930 O.2     7  PRO7       -0.2718
      5  CB       -38.2320    9.2320   33.0570 C.3     7  PRO7        0.0282
      6  CG       -37.1730    8.3950   32.4030 C.3     7  PRO7        0.0208
      7  CD       -35.9050    9.1390   32.6720 C.3     7  PRO7        0.0893
      8  N        -37.5500    9.2830   36.6700 N.am    8  THR8       -0.1940
      9  CA       -37.6340    8.5470   37.9210 C.3     8  THR8        0.2013
     10  C        -38.2470    9.4960   38.9480 C.2     8  THR8        0.2484
     11  O        -38.3070   10.6840   38.7240 O.2     8  THR8       -0.2729
     12  CB       -36.2340    8.2340   38.4250 C.3     8  THR8        0.1807
     13  OG1      -35.5490    9.4610   38.6810 O.3     8  THR8       -0.2208
     14  CG2      -35.4440    7.4110   37.4370 C.3     8  THR8        0.0379
     15  N        -38.6750    8.9740   40.1020 N.am    9  PRO9       -0.2726
     16  CA       -39.2870    9.8960   41.0800 C.3     9  PRO9        0.1402
     17  C        -38.4570   11.1430   41.4040 C.2     9  PRO9        0.2269
     18  O        -39.0050   12.2530   41.4800 O.2     9  PRO9       -0.2865
     19  CB       -39.4620    8.9790   42.3080 C.3     9  PRO9        0.0296
     20  CG       -39.7580    7.6330   41.6540 C.3     9  PRO9        0.0237
     21  CD       -38.7270    7.5820   40.5640 C.3     9  PRO9        0.0939
     22  N        -38.4170   13.6570   38.4550 N.3    12  TYR12      -0.1241
     23  CA       -39.6990   14.3400   38.2710 C.3    12  TYR12       0.1605
     24  C        -39.9050   15.4450   39.3030 C.2    12  TYR12       0.2264
     25  O        -40.5860   16.4250   39.0350 O.2    12  TYR12      -0.2867
     26  CB       -40.8710   13.3760   38.3560 C.3    12  TYR12       0.0534
     27  CG       -41.0680   12.5440   37.1110 C.ar   12  TYR12      -0.0201
     28  CD1      -41.3950   13.1380   35.8940 C.ar   12  TYR12      -0.0009
     29  CD2      -40.9400   11.1770   37.1560 C.ar   12  TYR12      -0.0009
     30  CE1      -41.5760   12.3530   34.7640 C.ar   12  TYR12       0.0417
     31  CE2      -41.1000   10.4040   36.0330 C.ar   12  TYR12       0.0417
     32  CZ       -41.4270   10.9930   34.8520 C.ar   12  TYR12       0.1957
     33  OH       -41.5930   10.1760   33.7490 O.3    12  TYR12      -0.2866
     34  N        -38.8670   -0.5330   46.7610 N.3   115  HIS115     -0.1241
     35  CA       -38.7580   -0.8030   45.3210 C.3   115  HIS115      0.1621
     36  C        -37.6850   -1.8590   45.0650 C.2   115  HIS115      0.2264
     37  O        -37.8770   -2.7920   44.2620 O.2   115  HIS115     -0.2867
     38  CB       -38.3890    0.4740   44.5490 C.3   115  HIS115      0.0745
     39  CG       -39.5110    1.4620   44.4350 C.ar  115  HIS115      0.0817
     40  ND1      -39.4570    2.5490   43.5840 N.ar  115  HIS115     -0.2268
     41  CD2      -40.7210    1.5180   45.0460 C.ar  115  HIS115      0.1154
     42  CE1      -40.5850    3.2410   43.6860 C.ar  115  HIS115      0.1986
     43  NE2      -41.3660    2.6390   44.5610 N.ar  115  HIS115     -0.2212
     44  N        -37.7170   -6.5040   43.6330 N.3   119  ARG119     -0.1245
     45  CA       -37.0300   -7.1140   42.4930 C.3   119  ARG119      0.1563
     46  C        -36.6420   -8.5550   42.7920 C.2   119  ARG119      0.2260
     47  O        -36.1180   -9.2670   41.9180 O.2   119  ARG119     -0.2867
     48  CB       -35.7710   -6.3050   42.1210 C.3   119  ARG119      0.0307
     49  CG       -36.0490   -4.8470   41.8100 C.3   119  ARG119      0.0489
     50  CD       -34.7770   -4.0170   41.7110 C.3   119  ARG119      0.2205
     51  NE       -34.0070   -4.3440   40.5230 N.pl3 119  ARG119     -0.0865
     52  CZ       -34.0400   -3.6800   39.3730 C.cat 119  ARG119      0.5346
     53  NH1      -34.7950   -2.5910   39.2190 N.pl3 119  ARG119      0.1354
     54  NH2      -33.2850   -4.0910   38.3810 N.pl3 119  ARG119      0.1354
     55  N        -43.9020   12.5220   43.5260 N.3   167  PRO167     -0.2102
     56  CA       -43.4370   11.4960   42.5870 C.3   167  PRO167      0.1504
     57  C        -43.2200   10.1390   43.2370 C.2   167  PRO167      0.2575
     58  O        -43.2980    9.1250   42.5200 O.2   167  PRO167     -0.2718
     59  CB       -42.1120   12.0810   42.0750 C.3   167  PRO167      0.0282
     60  CG       -42.2700   13.5640   42.2680 C.3   167  PRO167      0.0208
     61  CD       -43.0230   13.6960   43.5460 C.3   167  PRO167      0.0893
     62  N        -42.9950   10.1280   44.5420 N.am  168  TRP168     -0.1977
     63  CA       -42.8620    8.8920   45.3010 C.3   168  TRP168      0.1640
     64  C        -44.2190    8.3120   45.6790 C.2   168  TRP168      0.2290
     65  O        -44.4620    7.1250   45.5110 O.2   168  TRP168     -0.2864
     66  CB       -42.0000    9.1290   46.5460 C.3   168  TRP168      0.0576
     67  CG       -40.5280    9.0820   46.2150 C.ar  168  TRP168      0.0006
     68  CD1      -39.6820   10.1480   45.9900 C.ar  168  TRP168      0.0946
     69  CD2      -39.7500    7.9050   45.9990 C.ar  168  TRP168      0.0152
     70  NE1      -38.4240    9.6850   45.6730 N.ar  168  TRP168     -0.2442
     71  CE2      -38.4400    8.3170   45.6760 C.ar  168  TRP168      0.0810
     72  CE3      -40.0330    6.5340   46.0480 C.ar  168  TRP168      0.0012
     73  CZ2      -37.4290    7.4100   45.4000 C.ar  168  TRP168      0.0191
     74  CZ3      -39.0420    5.6550   45.7680 C.ar  168  TRP168      0.0001
     75  CH2      -37.7370    6.0860   45.4750 C.ar  168  TRP168      0.0015
     76  N        -46.9900    8.7660   44.1160 N.3   170  LYS170     -0.1231
     77  CA       -47.6190    8.3710   42.8600 C.3   170  LYS170      0.1693
     78  C        -47.3280    6.9160   42.5390 C.2   170  LYS170      0.2592
     79  O        -48.0700    6.2560   41.7870 O.2   170  LYS170     -0.2718
     80  CB       -47.1260    9.2940   41.7080 C.3   170  LYS170      0.0285
     81  CG       -47.1560    8.7040   40.3060 C.3   170  LYS170      0.0035
     82  CD       -47.1970    9.7880   39.2330 C.3   170  LYS170      0.0206
     83  CE       -47.3590    9.2000   37.8260 C.3   170  LYS170      0.1093
     84  NZ       -46.3410    8.1340   37.5470 N.3   170  LYS170     -0.1314
     85  N        -46.2550    6.4050   43.1280 N.am  171  CYS171     -0.1970
     86  CA       -45.8000    5.0540   42.8880 C.3   171  CYS171      0.1712
     87  C        -46.3070    4.0490   43.9230 C.2   171  CYS171      0.2296
     88  O        -45.7960    2.9340   43.9940 O.2   171  CYS171     -0.2864
     89  CB       -44.2760    5.0090   42.8320 C.3   171  CYS171      0.0983
     90  SG       -43.5670    5.8860   41.3980 S.3   171  CYS171     -0.0798
     91  N        -46.6670    0.2640   43.0270 N.3   174  HIS174     -0.1241
     92  CA       -45.3990   -0.4440   42.9110 C.3   174  HIS174      0.1621
     93  C        -44.8660   -0.8230   44.2860 C.2   174  HIS174      0.2264
     94  O        -44.1220   -1.7890   44.4250 O.2   174  HIS174     -0.2867
     95  CB       -44.3610    0.4380   42.2220 C.3   174  HIS174      0.0745
     96  CG       -43.1460   -0.3090   41.7780 C.ar  174  HIS174      0.0817
     97  ND1      -42.9320   -0.6570   40.4650 N.ar  174  HIS174     -0.2268
     98  CD2      -42.0980   -0.8020   42.4800 C.ar  174  HIS174      0.1154
     99  CE1      -41.7910   -1.3230   40.3700 C.ar  174  HIS174      0.1986
    100  NE2      -41.2680   -1.4230   41.5780 N.ar  174  HIS174     -0.2212
    101  N        -45.0750   14.9020   33.5420 N.3   202  TYR202     -0.1241
    102  CA       -45.2690   13.4740   33.2480 C.3   202  TYR202      0.1605
    103  C        -45.6510   13.1580   31.7910 C.2   202  TYR202      0.2264
    104  O        -45.7950   11.9920   31.4370 O.2   202  TYR202     -0.2867
    105  CB       -46.2560   12.8500   34.2390 C.3   202  TYR202      0.0534
    106  CG       -45.6190   12.6000   35.6050 C.ar  202  TYR202     -0.0201
    107  CD1      -45.6110   13.5720   36.5880 C.ar  202  TYR202     -0.0009
    108  CD2      -45.0020   11.3940   35.8740 C.ar  202  TYR202     -0.0009
    109  CE1      -44.9920   13.3370   37.8340 C.ar  202  TYR202      0.0417
    110  CE2      -44.3780   11.1530   37.0970 C.ar  202  TYR202      0.0417
    111  CZ       -44.3770   12.1190   38.0620 C.ar  202  TYR202      0.1957
    112  OH       -43.7650   11.8370   39.2820 O.3   202  TYR202     -0.2866
@<TRIPOS>BOND
     1   104   103    2
     2   103   102    1
     3     6     7    1
     4     6     5    1
     5     7     1    1
     6     5     2    1
     7   102   101    1
     8   102   105    1
     9    33    32    1
    10     1     2    1
    11   105   106    1
    12     2     3    1
    13    30    32   ar
    14    30    28   ar
    15    32    31   ar
    16     4     3    2
    17     3     8   am
    18   106   108   ar
    19   106   107   ar
    20   108   110   ar
    21    28    27   ar
    22    31    29   ar
    23   107   109   ar
    24     8     9    1
    25   110   111   ar
    26    27    29   ar
    27    27    26    1
    28    14    12    1
    29    84    83    1
    30    83    82    1
    31   109   111   ar
    32     9    12    1
    33     9    10    1
    34   111   112    1
    35    23    26    1
    36    23    22    1
    37    23    24    1
    38    54    52    1
    39    12    13    1
    40    11    10    2
    41    10    15   am
    42    25    24    2
    43    53    52    1
    44    82    81    1
    45    52    51    2
    46    15    21    1
    47    15    16    1
    48    81    80    1
    49    99    97   ar
    50    99   100   ar
    51    97    96   ar
    52    51    50    1
    53    21    20    1
    54    16    17    1
    55    16    19    1
    56    90    89    1
    57    17    18    2
    58   100    98   ar
    59    20    19    1
    60    80    77    1
    61    50    49    1
    62    96    95    1
    63    96    98   ar
    64    79    78    2
    65    49    48    1
    66    47    46    2
    67    59    60    1
    68    59    56    1
    69    48    45    1
    70    95    92    1
    71    60    61    1
    72    45    46    1
    73    45    44    1
    74    58    57    2
    75    78    77    1
    76    78    85   am
    77    56    57    1
    78    56    55    1
    79    89    86    1
    80    77    76    1
    81    86    85    1
    82    86    87    1
    83    92    91    1
    84    92    93    1
    85    57    62   am
    86    55    61    1
    87    40    42   ar
    88    40    39   ar
    89    42    43   ar
    90    87    88    2
    91    37    36    2
    92    93    94    2
    93    39    38    1
    94    39    41   ar
    95    62    63    1
    96    38    35    1
    97    43    41   ar
    98    36    35    1
    99    63    64    1
   100    63    66    1
   101    35    34    1
   102    73    75   ar
   103    73    71   ar
   104    75    74   ar
   105    65    64    2
   106    70    71   ar
   107    70    68   ar
   108    71    69   ar
   109    74    72   ar
   110    68    67   ar
   111    69    72   ar
   112    69    67   ar
   113    67    66    1
