@<TRIPOS>MOLECULE
tmp/4l8kC00.pdb
 87 82 0 0 0
SMALL
GASTEIGER

@<TRIPOS>ATOM
      1  N         13.3260   -2.2310   25.5190 N.3   152  LEU152     -0.1245
      2  CA        12.9380   -1.8180   24.1740 C.3   152  LEU152      0.1561
      3  C         14.1190   -1.9090   23.2300 C.2   152  LEU152      0.2260
      4  O         13.9640   -2.4230   22.1240 O.2   152  LEU152     -0.2867
      5  CB        12.4150   -0.3670   24.2000 C.3   152  LEU152      0.0270
      6  CG        11.9670    0.2660   22.8630 C.3   152  LEU152      0.0019
      7  CD1       10.6040   -0.2500   22.4490 C.3   152  LEU152      0.0001
      8  CD2       11.8310    1.7680   22.9940 C.3   152  LEU152      0.0001
      9  N         17.0340   -3.4020   24.0050 N.3   154  SER154     -0.1202
     10  CA        17.5570   -4.7550   24.1170 C.3   154  SER154      0.2020
     11  C         16.9290   -5.6440   22.9680 C.2   154  SER154      0.2618
     12  O         17.6460   -6.2300   22.1450 O.2   154  SER154     -0.2717
     13  CB        17.2700   -5.2770   25.5210 C.3   154  SER154      0.2103
     14  OG        17.7530   -6.5970   25.6530 O.3   154  SER154     -0.2182
     15  N         15.5930   -5.6090   22.8720 N.am  155  ASP155     -0.1973
     16  CA        14.7370   -6.2880   21.9080 C.3   155  ASP155      0.1709
     17  C         15.0190   -5.8070   20.4630 C.2   155  ASP155      0.2293
     18  O         15.1600   -6.6100   19.5420 O.2   155  ASP155     -0.2864
     19  CB        13.2860   -5.9430   22.3260 C.3   155  ASP155      0.1436
     20  CG        12.1510   -6.6510   21.6480 C.2   155  ASP155      0.3671
     21  OD1       11.7840   -6.2340   20.5180 O.co2 155  ASP155     -0.2456
     22  OD2       11.5090   -7.5000   22.3100 O.co2 155  ASP155     -0.2456
     23  N         18.7030   -7.2080   19.4200 N.3   158  ALA158     -0.1245
     24  CA        18.7360   -8.6760   19.3040 C.3   158  ALA158      0.1562
     25  C         17.9580   -9.2200   18.0950 C.2   158  ALA158      0.2260
     26  O         18.4060  -10.1890   17.4730 O.2   158  ALA158     -0.2867
     27  CB        18.2170   -9.3280   20.5810 C.3   158  ALA158      0.0290
     28  N         13.2200  -17.4620   23.6760 N.3   168  THR168     -0.1218
     29  CA        14.4010  -16.7810   24.2340 C.3   168  THR168      0.1862
     30  C         14.6840  -17.2400   25.6630 C.2   168  THR168      0.2287
     31  O         15.8040  -17.1180   26.1550 O.2   168  THR168     -0.2866
     32  CB        14.2500  -15.2460   24.1640 C.3   168  THR168      0.1770
     33  OG1       13.2270  -14.8100   25.0550 O.3   168  THR168     -0.2211
     34  CG2       13.9710  -14.7620   22.7680 C.3   168  THR168      0.0375
     35  N          8.9230  -16.8620   26.5910 N.3   188  VAL188     -0.1231
     36  CA         9.0920  -15.5630   25.9650 C.3   188  VAL188      0.1692
     37  C          9.6960  -15.8300   24.5750 C.2   188  VAL188      0.2592
     38  O         10.6550  -16.5870   24.4610 O.2   188  VAL188     -0.2718
     39  CB         9.9430  -14.5820   26.8350 C.3   188  VAL188      0.0266
     40  CG1       10.0670  -13.2180   26.1520 C.3   188  VAL188      0.0020
     41  CG2        9.3490  -14.4160   28.2340 C.3   188  VAL188      0.0020
     42  N          9.1050  -15.2480   23.5280 N.am  189  TYR189     -0.1962
     43  CA         9.5590  -15.4200   22.1550 C.3   189  TYR189      0.1771
     44  C         10.0450  -14.0950   21.5690 C.2   189  TYR189      0.2619
     45  O          9.6460  -13.0210   22.0350 O.2   189  TYR189     -0.2715
     46  CB         8.4480  -16.0210   21.2750 C.3   189  TYR189      0.0574
     47  CG         7.9850  -17.3960   21.7280 C.ar  189  TYR189     -0.0198
     48  CD1        6.9970  -17.5400   22.7060 C.ar  189  TYR189     -0.0009
     49  CD2        8.5530  -18.5560   21.2020 C.ar  189  TYR189     -0.0009
     50  CE1        6.5710  -18.8000   23.1280 C.ar  189  TYR189      0.0417
     51  CE2        8.1470  -19.8240   21.6360 C.ar  189  TYR189      0.0417
     52  CZ         7.1470  -19.9380   22.5910 C.ar  189  TYR189      0.1957
     53  OH         6.7160  -21.1740   23.0170 O.3   189  TYR189     -0.2866
     54  N         10.9280  -14.1760   20.5570 N.am  190  LEU190     -0.1977
     55  CA        11.4340  -13.0170   19.8160 C.3   190  LEU190      0.1596
     56  C         11.3610  -13.3250   18.3360 C.2   190  LEU190      0.2287
     57  O         11.7470  -14.4180   17.9010 O.2   190  LEU190     -0.2864
     58  CB        12.8550  -12.6020   20.2410 C.3   190  LEU190      0.0297
     59  CG        13.4440  -11.2860   19.6500 C.3   190  LEU190      0.0022
     60  CD1       12.6500  -10.0290   20.1250 C.3   190  LEU190      0.0001
     61  CD2       14.9160  -11.1350   20.0040 C.3   190  LEU190      0.0001
     62  N         19.8800  -10.0880   29.9410 N.3   216  ASP216     -0.1225
     63  CA        18.8020  -10.6250   29.1050 C.3   216  ASP216      0.1805
     64  C         19.1670  -10.5770   27.6090 C.2   216  ASP216      0.2597
     65  O         18.8280  -11.5070   26.8680 O.2   216  ASP216     -0.2718
     66  CB        17.4900   -9.8860   29.3540 C.3   216  ASP216      0.1424
     67  CG        17.0160   -9.8680   30.8070 C.2   216  ASP216      0.3668
     68  OD1       17.4820  -10.7250   31.6130 O.co2 216  ASP216     -0.2456
     69  OD2       16.1660   -9.0380   31.1260 O.co2 216  ASP216     -0.2456
     70  N         19.8550   -9.5120   27.1820 N.am  217  PHE217     -0.1976
     71  CA        20.3420   -9.3310   25.8090 C.3   217  PHE217      0.1639
     72  C         21.3610  -10.4380   25.4680 C.2   217  PHE217      0.2290
     73  O         21.2450  -11.0950   24.4340 O.2   217  PHE217     -0.2864
     74  CB        20.9760   -7.9200   25.6440 C.3   217  PHE217      0.0560
     75  CG        21.6730   -7.7010   24.3190 C.ar  217  PHE217     -0.0200
     76  CD1       20.9400   -7.4780   23.1580 C.ar  217  PHE217     -0.0042
     77  CD2       23.0630   -7.7320   24.2280 C.ar  217  PHE217     -0.0042
     78  CE1       21.5860   -7.2780   21.9320 C.ar  217  PHE217     -0.0003
     79  CE2       23.6990   -7.5640   22.9970 C.ar  217  PHE217     -0.0003
     80  CZ        22.9540   -7.3160   21.8610 C.ar  217  PHE217     -0.0000
     81  N         19.8060  -13.9200   24.9950 N.3   220  VAL220     -0.1245
     82  CA        19.1890  -14.1440   23.6810 C.3   220  VAL220      0.1561
     83  C         20.2940  -14.3380   22.6200 C.2   220  VAL220      0.2260
     84  O         20.1860  -15.2390   21.7890 O.2   220  VAL220     -0.2867
     85  CB        18.2110  -12.9880   23.2980 C.3   220  VAL220      0.0252
     86  CG1       17.6010  -13.1890   21.9180 C.3   220  VAL220      0.0019
     87  CG2       17.1180  -12.8310   24.3450 C.3   220  VAL220      0.0019
@<TRIPOS>BOND
     1    26    25    2
     2    57    56    2
     3    25    24    1
     4    56    55    1
     5    24    23    1
     6    24    27    1
     7    18    17    2
     8    59    61    1
     9    59    60    1
    10    59    58    1
    11    55    58    1
    12    55    54    1
    13    17    16    1
    14    21    20   ar
    15    54    44   am
    16    49    51   ar
    17    49    47   ar
    18    46    47    1
    19    46    43    1
    20    44    45    2
    21    44    43    1
    22    51    52   ar
    23    20    22   ar
    24    20    19    1
    25    47    48   ar
    26    84    83    2
    27    80    78   ar
    28    80    79   ar
    29    16    19    1
    30    16    15    1
    31    86    85    1
    32    78    76   ar
    33     4     3    2
    34    12    11    2
    35    43    42    1
    36     7     6    1
    37    52    53    1
    38    52    50   ar
    39    83    82    1
    40    48    50   ar
    41    34    32    1
    42     6     8    1
    43     6     5    1
    44    15    11   am
    45    11    10    1
    46    79    77   ar
    47    76    75   ar
    48     3     2    1
    49    85    82    1
    50    85    87    1
    51    42    37   am
    52    28    29    1
    53    82    81    1
    54     9    10    1
    55    10    13    1
    56    32    29    1
    57    32    33    1
    58     2     5    1
    59     2     1    1
    60    77    75   ar
    61    29    30    1
    62    75    74    1
    63    73    72    2
    64    38    37    2
    65    37    36    1
    66    72    71    1
    67    13    14    1
    68    74    71    1
    69    30    31    2
    70    71    70    1
    71    36    35    1
    72    36    39    1
    73    40    39    1
    74    39    41    1
    75    65    64    2
    76    70    64   am
    77    64    63    1
    78    63    66    1
    79    63    62    1
    80    66    67    1
    81    67    69   ar
    82    67    68   ar
