@<TRIPOS>MOLECULE
tmp/4l8kA01.pdb
 97 90 0 0 0
SMALL
GASTEIGER

@<TRIPOS>ATOM
      1  N         43.1700   17.3110   83.5590 N.3   154  ASP154     -0.1239
      2  CA        43.9320   17.7980   82.3950 C.3   154  ASP154      0.1674
      3  C         43.6560   16.9940   81.1350 C.2   154  ASP154      0.2266
      4  O         43.5570   17.5790   80.0590 O.2   154  ASP154     -0.2867
      5  CB        45.4500   17.7660   82.6740 C.3   154  ASP154      0.1410
      6  CG        46.0430   19.0940   83.0910 C.2   154  ASP154      0.3668
      7  OD1       45.4330   19.7790   83.9470 O.co2 154  ASP154     -0.2456
      8  OD2       47.1430   19.4170   82.6220 O.co2 154  ASP154     -0.2456
      9  N         45.4350   28.8870   81.6080 N.3   167  THR167     -0.1203
     10  CA        44.2550   28.3710   82.3290 C.3   167  THR167      0.1994
     11  C         43.9880   29.1540   83.6140 C.2   167  THR167      0.2618
     12  O         42.8790   29.1390   84.1480 O.2   167  THR167     -0.2717
     13  CB        44.4050   26.8680   82.6360 C.3   167  THR167      0.1784
     14  OG1       45.4250   26.6640   83.6170 O.3   167  THR167     -0.2211
     15  CG2       44.6630   26.0350   81.3940 C.3   167  THR167      0.0376
     16  N         45.0160   29.8380   84.0870 N.am  168  GLY168     -0.1942
     17  CA        44.9650   30.6250   85.3020 C.3   168  GLY168      0.2014
     18  C         46.3280   30.6850   85.9330 C.2   168  GLY168      0.2639
     19  O         47.3480   30.5310   85.2430 O.2   168  GLY168     -0.2714
     20  N         46.3420   30.9370   87.2480 N.am  169  TYR169     -0.1959
     21  CA        47.5620   31.1200   88.0240 C.3   169  TYR169      0.1771
     22  C         47.5090   30.4040   89.3540 C.2   169  TYR169      0.2620
     23  O         46.4220   30.1610   89.8980 O.2   169  TYR169     -0.2715
     24  CB        47.7980   32.6320   88.3130 C.3   169  TYR169      0.0574
     25  CG        47.8860   33.5170   87.0880 C.ar  169  TYR169     -0.0198
     26  CD1       46.7440   34.0650   86.5160 C.ar  169  TYR169     -0.0009
     27  CD2       49.1250   33.8900   86.5550 C.ar  169  TYR169     -0.0009
     28  CE1       46.8170   34.8790   85.3840 C.ar  169  TYR169      0.0417
     29  CE2       49.2110   34.7260   85.4380 C.ar  169  TYR169      0.0417
     30  CZ        48.0510   35.2110   84.8520 C.ar  169  TYR169      0.1957
     31  OH        48.1210   36.0450   83.7670 O.3   169  TYR169     -0.2866
     32  N         48.7030   30.1320   89.9140 N.am  170  THR170     -0.1951
     33  CA        48.8540   29.5800   91.2640 C.3   170  THR170      0.1897
     34  C         49.7880   30.5040   92.0430 C.2   170  THR170      0.2313
     35  O         50.6580   31.1400   91.4610 O.2   170  THR170     -0.2863
     36  CB        49.3430   28.1080   91.2700 C.3   170  THR170      0.1794
     37  OG1       50.6040   28.0080   90.5980 O.3   170  THR170     -0.2208
     38  CG2       48.3280   27.1340   90.6400 C.3   170  THR170      0.0378
     39  N         49.7630   28.9990   84.5470 N.3   187  VAL187     -0.1245
     40  CA        49.5920   27.5850   84.2610 C.3   187  VAL187      0.1561
     41  C         48.9670   27.5060   82.8630 C.2   187  VAL187      0.2260
     42  O         47.9980   28.2040   82.5840 O.2   187  VAL187     -0.2867
     43  CB        48.7560   26.8500   85.3580 C.3   187  VAL187      0.0252
     44  CG1       48.6070   25.3650   85.0350 C.3   187  VAL187      0.0019
     45  CG2       49.3700   27.0250   86.7370 C.3   187  VAL187      0.0019
     46  N         38.8200   23.2330   89.5620 N.3   215  ASP215     -0.1239
     47  CA        39.8890   23.6010   88.6170 C.3   215  ASP215      0.1674
     48  C         39.5160   23.2130   87.1890 C.2   215  ASP215      0.2266
     49  O         39.8620   23.9390   86.2650 O.2   215  ASP215     -0.2867
     50  CB        41.2210   22.9480   89.0130 C.3   215  ASP215      0.1410
     51  CG        41.6930   23.2380   90.4210 C.2   215  ASP215      0.3668
     52  OD1       41.2480   24.2670   91.0100 O.co2 215  ASP215     -0.2456
     53  OD2       42.5270   22.4730   90.9240 O.co2 215  ASP215     -0.2456
     54  N         36.9540   25.7060   85.9980 N.3   218  ASN218     -0.1225
     55  CA        37.6910   26.9270   85.7360 C.3   218  ASN218      0.1785
     56  C         38.2870   26.9470   84.3100 C.2   218  ASN218      0.2597
     57  O         38.2490   27.9860   83.6540 O.2   218  ASN218     -0.2718
     58  CB        38.7960   27.1080   86.7570 C.3   218  ASN218      0.1169
     59  CG        39.6100   28.3790   86.5860 C.2   218  ASN218      0.2627
     60  OD1       39.0960   29.4670   86.3400 O.2   218  ASN218     -0.2716
     61  ND2       40.9050   28.2620   86.6950 N.am  218  ASN218     -0.0877
     62  N         38.8410   25.8180   83.8530 N.am  219  VAL219     -0.1980
     63  CA        39.4420   25.7320   82.5230 C.3   219  VAL219      0.1595
     64  C         38.3370   25.6940   81.4590 C.2   219  VAL219      0.2287
     65  O         38.4330   26.3970   80.4540 O.2   219  VAL219     -0.2864
     66  CB        40.4060   24.5090   82.4040 C.3   219  VAL219      0.0276
     67  CG1       41.0000   24.3950   80.9920 C.3   219  VAL219      0.0022
     68  CG2       41.5160   24.5820   83.4510 C.3   219  VAL219      0.0022
     69  N         40.7150   23.8320   95.7410 N.3   235  SER235     -0.1217
     70  CA        41.7490   23.8180   94.7180 C.3   235  SER235      0.1889
     71  C         42.2860   22.4410   94.3450 C.2   235  SER235      0.2288
     72  O         43.0180   22.3430   93.3670 O.2   235  SER235     -0.2866
     73  CB        42.9220   24.6820   95.1720 C.3   235  SER235      0.2089
     74  OG        43.3670   24.3000   96.4680 O.3   235  SER235     -0.2183
     75  N         44.5510   21.0210   95.9600 N.3   237  LEU237     -0.1245
     76  CA        45.9170   21.0850   96.4850 C.3   237  LEU237      0.1561
     77  C         45.8280   21.3420   97.9970 C.2   237  LEU237      0.2260
     78  O         45.8290   22.4960   98.4310 O.2   237  LEU237     -0.2867
     79  CB        46.7560   22.1680   95.7720 C.3   237  LEU237      0.0270
     80  CG        46.8880   22.0480   94.2550 C.3   237  LEU237      0.0019
     81  CD1       46.9160   23.4070   93.6080 C.3   237  LEU237      0.0001
     82  CD2       48.1340   21.2920   93.8750 C.3   237  LEU237      0.0001
     83  N         44.3240   29.4630   94.0100 N.3   256  VAL256     -0.1231
     84  CA        44.2450   29.2540   92.5670 C.3   256  VAL256      0.1692
     85  C         43.4780   30.4570   92.0220 C.2   256  VAL256      0.2591
     86  O         42.4110   30.8010   92.5510 O.2   256  VAL256     -0.2718
     87  CB        43.6210   27.8900   92.1600 C.3   256  VAL256      0.0266
     88  CG1       43.2460   27.8620   90.6780 C.3   256  VAL256      0.0020
     89  CG2       44.5620   26.7350   92.4890 C.3   256  VAL256      0.0020
     90  N         44.0560   31.1310   91.0070 N.am  257  LEU257     -0.1980
     91  CA        43.4460   32.3030   90.4120 C.3   257  LEU257      0.1596
     92  C         43.0160   32.0300   88.9900 C.2   257  LEU257      0.2287
     93  O         43.6640   31.2610   88.2790 O.2   257  LEU257     -0.2864
     94  CB        44.4100   33.5190   90.4420 C.3   257  LEU257      0.0297
     95  CG        45.2150   33.7690   91.7250 C.3   257  LEU257      0.0022
     96  CD1       46.2300   34.8460   91.5190 C.3   257  LEU257      0.0001
     97  CD2       44.3080   34.1110   92.8890 C.3   257  LEU257      0.0001
@<TRIPOS>BOND
     1     4     3    2
     2    65    64    2
     3    67    66    1
     4     3     2    1
     5    15    13    1
     6    64    63    1
     7     9    10    1
     8    10    13    1
     9    10    11    1
    10     2     5    1
    11     2     1    1
    12    66    63    1
    13    66    68    1
    14    63    62    1
    15    42    41    2
    16     8     6   ar
    17    13    14    1
    18     5     6    1
    19    41    40    1
    20     6     7   ar
    21    11    16   am
    22    11    12    2
    23    57    56    2
    24    31    30    1
    25    62    56   am
    26    16    17    1
    27    40    39    1
    28    40    43    1
    29    56    55    1
    30    30    28   ar
    31    30    29   ar
    32    44    43    1
    33    19    18    2
    34    17    18    1
    35    43    45    1
    36    28    26   ar
    37    29    27   ar
    38    55    54    1
    39    55    58    1
    40    18    20   am
    41    49    48    2
    42    60    59    2
    43    26    25   ar
    44    27    25   ar
    45    59    61   am
    46    59    58    1
    47    25    24    1
    48    48    47    1
    49    20    21    1
    50    21    24    1
    51    21    22    1
    52    93    92    2
    53    47    50    1
    54    47    46    1
    55    92    91    1
    56    50    51    1
    57    22    23    2
    58    22    32   am
    59    32    33    1
    60    91    94    1
    61    91    90    1
    62    51    53   ar
    63    51    52   ar
    64    94    95    1
    65    37    36    1
    66    38    36    1
    67    88    87    1
    68    90    85   am
    69    33    36    1
    70    33    34    1
    71    35    34    2
    72    96    95    1
    73    95    97    1
    74    85    86    2
    75    85    84    1
    76    87    89    1
    77    87    84    1
    78    84    83    1
    79    72    71    2
    80    81    80    1
    81    82    80    1
    82    80    79    1
    83    71    70    1
    84    70    73    1
    85    70    69    1
    86    73    74    1
    87    79    76    1
    88    75    76    1
    89    76    77    1
    90    77    78    2
