@<TRIPOS>MOLECULE
tmp/4l8nA00.pdb
 86 82 0 0 0
SMALL
GASTEIGER

@<TRIPOS>ATOM
      1  N        -42.2440  -12.1510   -1.3460 N.3   100  ILE100     -0.1245
      2  CA       -40.8010  -11.9790   -1.4500 C.3   100  ILE100      0.1561
      3  C        -40.6330  -11.1990   -2.7360 C.2   100  ILE100      0.2260
      4  O        -41.0560  -11.6680   -3.8020 O.2   100  ILE100     -0.2867
      5  CB       -39.9650  -13.3030   -1.3830 C.3   100  ILE100      0.0252
      6  CG1      -40.1680  -14.0610   -0.0500 C.3   100  ILE100      0.0019
      7  CG2      -38.4680  -13.0420   -1.6280 C.3   100  ILE100      0.0019
      8  CD1      -39.7750  -13.2990    1.3040 C.3   100  ILE100      0.0001
      9  N        -34.7760  -10.3950   -3.0190 N.3   105  LEU105     -0.1245
     10  CA       -33.9990  -11.4450   -3.6820 C.3   105  LEU105      0.1561
     11  C        -32.6740  -10.9190   -4.2620 C.2   105  LEU105      0.2260
     12  O        -31.6700  -11.6330   -4.2200 O.2   105  LEU105     -0.2867
     13  CB       -34.8260  -12.1180   -4.7800 C.3   105  LEU105      0.0270
     14  CG       -36.0130  -12.9690   -4.3150 C.3   105  LEU105      0.0019
     15  CD1      -37.0410  -13.1120   -5.3990 C.3   105  LEU105      0.0001
     16  CD2      -35.5700  -14.3420   -3.8040 C.3   105  LEU105      0.0001
     17  N        -30.4970  -10.9350   -1.3110 N.3   108  ALA108     -0.1231
     18  CA       -30.2100  -12.3050   -0.8870 C.3   108  ALA108      0.1694
     19  C        -29.2200  -13.0100   -1.8350 C.2   108  ALA108      0.2592
     20  O        -28.3790  -13.7850   -1.3690 O.2   108  ALA108     -0.2718
     21  CB       -31.5010  -13.1050   -0.7800 C.3   108  ALA108      0.0304
     22  N        -29.3090  -12.7480   -3.1460 N.am  109  TYR109     -0.1976
     23  CA       -28.3980  -13.3440   -4.1290 C.3   109  TYR109      0.1639
     24  C        -27.3050  -12.3270   -4.5970 C.2   109  TYR109      0.2290
     25  O        -26.7740  -12.4590   -5.7000 O.2   109  TYR109     -0.2864
     26  CB       -29.2060  -13.8550   -5.3320 C.3   109  TYR109      0.0560
     27  CG       -29.9490  -15.1580   -5.1220 C.ar  109  TYR109     -0.0198
     28  CD1      -29.3170  -16.3810   -5.3220 C.ar  109  TYR109     -0.0009
     29  CD2      -31.3130  -15.1690   -4.8520 C.ar  109  TYR109     -0.0009
     30  CE1      -30.0090  -17.5830   -5.2000 C.ar  109  TYR109      0.0417
     31  CE2      -32.0120  -16.3640   -4.7010 C.ar  109  TYR109      0.0417
     32  CZ       -31.3580  -17.5710   -4.8810 C.ar  109  TYR109      0.1957
     33  OH       -32.0390  -18.7570   -4.7550 O.3   109  TYR109     -0.2866
     34  N        -42.2560  -20.8910   -3.3570 N.3   306  LEU306     -0.1245
     35  CA       -41.5630  -19.9140   -4.2130 C.3   306  LEU306      0.1561
     36  C        -41.9200  -19.9450   -5.6990 C.2   306  LEU306      0.2260
     37  O        -41.7160  -18.9220   -6.3600 O.2   306  LEU306     -0.2867
     38  CB       -40.0450  -20.0500   -4.0810 C.3   306  LEU306      0.0270
     39  CG       -39.4500  -19.5520   -2.7740 C.3   306  LEU306      0.0019
     40  CD1      -38.2590  -20.3820   -2.3840 C.3   306  LEU306      0.0001
     41  CD2      -39.1100  -18.0600   -2.8320 C.3   306  LEU306      0.0001
     42  N        -37.0350  -23.4480   -0.1930 N.3   340  ALA340     -0.1245
     43  CA       -36.1450  -22.3590    0.1720 C.3   340  ALA340      0.1562
     44  C        -34.7630  -22.8930    0.5730 C.2   340  ALA340      0.2260
     45  O        -33.7600  -22.2710    0.2210 O.2   340  ALA340     -0.2867
     46  CB       -36.7520  -21.5540    1.3100 C.3   340  ALA340      0.0290
     47  N        -32.7080  -24.0320   -2.5050 N.3   343  PHE343     -0.1227
     48  CA       -32.1740  -22.8420   -3.1670 C.3   343  PHE343      0.1736
     49  C        -31.0090  -22.2740   -2.3820 C.2   343  PHE343      0.2596
     50  O        -29.9730  -21.9660   -2.9740 O.2   343  PHE343     -0.2718
     51  CB       -33.2710  -21.7670   -3.3660 C.3   343  PHE343      0.0547
     52  CG       -34.1630  -21.9120   -4.5830 C.ar  343  PHE343     -0.0202
     53  CD1      -33.6220  -21.9340   -5.8690 C.ar  343  PHE343     -0.0042
     54  CD2      -35.5470  -21.9410   -4.4530 C.ar  343  PHE343     -0.0042
     55  CE1      -34.4500  -22.0370   -7.0000 C.ar  343  PHE343     -0.0003
     56  CE2      -36.3740  -22.0390   -5.5850 C.ar  343  PHE343     -0.0003
     57  CZ       -35.8190  -22.0850   -6.8500 C.ar  343  PHE343     -0.0000
     58  N        -31.1780  -22.1430   -1.0510 N.am  344  SER344     -0.1952
     59  CA       -30.1730  -21.6240   -0.1360 C.3   344  SER344      0.1924
     60  C        -28.8850  -22.4600   -0.1860 C.2   344  SER344      0.2314
     61  O        -27.8100  -21.8830   -0.3630 O.2   344  SER344     -0.2863
     62  CB       -30.7190  -21.5680    1.2840 C.3   344  SER344      0.2116
     63  OG       -29.8840  -20.7690    2.1070 O.3   344  SER344     -0.2180
     64  N        -27.0270  -22.3130   -3.6740 N.3   347  TYR347     -0.1241
     65  CA       -26.3730  -21.0090   -3.7950 C.3   347  TYR347      0.1605
     66  C        -25.0450  -20.9930   -3.0250 C.2   347  TYR347      0.2264
     67  O        -24.0380  -20.5120   -3.5530 O.2   347  TYR347     -0.2867
     68  CB       -27.3170  -19.8930   -3.2910 C.3   347  TYR347      0.0534
     69  CG       -26.7300  -18.4990   -3.3200 C.ar  347  TYR347     -0.0201
     70  CD1      -26.3980  -17.8840   -4.5250 C.ar  347  TYR347     -0.0009
     71  CD2      -26.5480  -17.7750   -2.1470 C.ar  347  TYR347     -0.0009
     72  CE1      -25.8950  -16.5830   -4.5590 C.ar  347  TYR347      0.0417
     73  CE2      -26.0420  -16.4780   -2.1680 C.ar  347  TYR347      0.0417
     74  CZ       -25.7160  -15.8860   -3.3770 C.ar  347  TYR347      0.1957
     75  OH       -25.1940  -14.6180   -3.4070 O.3   347  TYR347     -0.2866
     76  N        -33.1270  -17.7660   -9.9230 N.3   394  PHE394     -0.1241
     77  CA       -33.1750  -16.3590   -9.5680 C.3   394  PHE394      0.1605
     78  C        -32.0050  -15.5600  -10.1430 C.2   394  PHE394      0.2264
     79  O        -32.0210  -14.3320  -10.0480 O.2   394  PHE394     -0.2867
     80  CB       -33.2670  -16.1890   -8.0520 C.3   394  PHE394      0.0534
     81  CG       -34.5700  -16.6720   -7.4450 C.ar  394  PHE394     -0.0203
     82  CD1      -35.7520  -15.9530   -7.6200 C.ar  394  PHE394     -0.0042
     83  CD2      -34.6080  -17.8250   -6.6660 C.ar  394  PHE394     -0.0042
     84  CE1      -36.9500  -16.3970   -7.0540 C.ar  394  PHE394     -0.0003
     85  CE2      -35.8090  -18.2550   -6.0790 C.ar  394  PHE394     -0.0003
     86  CZ       -36.9680  -17.5360   -6.2790 C.ar  394  PHE394     -0.0000
@<TRIPOS>BOND
     1    78    79    2
     2    78    77    1
     3    76    77    1
     4    77    80    1
     5    80    81    1
     6    82    81   ar
     7    82    84   ar
     8    81    83   ar
     9    84    86   ar
    10    55    57   ar
    11    55    53   ar
    12    57    56   ar
    13    83    85   ar
    14    37    36    2
    15    86    85   ar
    16    53    52   ar
    17    25    24    2
    18    36    35    1
    19    56    54   ar
    20    15    14    1
    21    26    27    1
    22    26    23    1
    23    28    30   ar
    24    28    27   ar
    25    30    32   ar
    26    27    29   ar
    27    32    33    1
    28    32    31   ar
    29    29    31   ar
    30    13    14    1
    31    13    10    1
    32    24    23    1
    33    52    54   ar
    34    52    51    1
    35    72    70   ar
    36    72    74   ar
    37    70    69   ar
    38    14    16    1
    39    11    12    2
    40    11    10    1
    41    35    38    1
    42    35    34    1
    43    23    22    1
    44    38    39    1
    45     4     3    2
    46    65    64    1
    47    65    68    1
    48    65    66    1
    49    10     9    1
    50    67    66    2
    51    75    74    1
    52    74    73   ar
    53    51    48    1
    54    69    68    1
    55    69    71   ar
    56    48    47    1
    57    48    49    1
    58    22    19   am
    59    50    49    2
    60    41    39    1
    61    39    40    1
    62     3     2    1
    63    49    58   am
    64    73    71   ar
    65    19    20    2
    66    19    18    1
    67     7     5    1
    68     2     5    1
    69     2     1    1
    70     5     6    1
    71    17    18    1
    72    58    59    1
    73    18    21    1
    74    61    60    2
    75    42    43    1
    76    60    59    1
    77    59    62    1
    78     6     8    1
    79    43    44    1
    80    43    46    1
    81    45    44    2
    82    62    63    1
