@<TRIPOS>MOLECULE
tmp/4l8pA01.pdb
 183 177 0 0 0
SMALL
GASTEIGER

@<TRIPOS>ATOM
      1  N         10.7420   37.5050   10.6960 N.3    27  LYS27      -0.1245
      2  CA        10.7050   37.0030    9.3150 C.3    27  LYS27       0.1561
      3  C          9.8950   37.9250    8.3970 C.2    27  LYS27       0.2260
      4  O         10.2730   38.1550    7.2390 O.2    27  LYS27      -0.2867
      5  CB        10.1670   35.5750    9.2610 C.3    27  LYS27       0.0271
      6  CG        10.3490   34.9160    7.8850 C.3    27  LYS27       0.0035
      7  CD        11.8400   34.6790    7.5650 C.3    27  LYS27       0.0206
      8  CE        12.0010   33.7650    6.3610 C.3    27  LYS27       0.1093
      9  NZ        13.3440   33.2080    6.2060 N.3    27  LYS27      -0.1314
     10  N         12.1710   40.7260    7.5140 N.3    30  TYR30      -0.1227
     11  CA        13.1230   40.2510    6.5110 C.3    30  TYR30       0.1736
     12  C         12.5300   40.3360    5.0920 C.2    30  TYR30       0.2595
     13  O         13.1670   40.8820    4.1750 O.2    30  TYR30      -0.2718
     14  CB        13.6060   38.8250    6.8650 C.3    30  TYR30       0.0548
     15  CG        14.4510   38.1770    5.8040 C.ar   30  TYR30      -0.0200
     16  CD1       13.8560   37.4390    4.7820 C.ar   30  TYR30      -0.0009
     17  CD2       15.8370   38.3250    5.8000 C.ar   30  TYR30      -0.0009
     18  CE1       14.6110   36.8840    3.7690 C.ar   30  TYR30       0.0417
     19  CE2       16.6130   37.7540    4.7900 C.ar   30  TYR30       0.0417
     20  CZ        15.9910   37.0470    3.7770 C.ar   30  TYR30       0.1957
     21  OH        16.7550   36.4550    2.7760 O.3    30  TYR30      -0.2866
     22  N         11.3200   39.7860    4.9020 N.am   31  PHE31      -0.1976
     23  CA        10.7090   39.7910    3.5680 C.3    31  PHE31       0.1639
     24  C         10.3830   41.1790    3.0640 C.2    31  PHE31       0.2290
     25  O         10.6190   41.5000    1.8990 O.2    31  PHE31      -0.2864
     26  CB         9.4250   38.9410    3.5290 C.3    31  PHE31       0.0560
     27  CG         9.6420   37.4550    3.6650 C.ar   31  PHE31      -0.0200
     28  CD1       10.6130   36.7950    2.9290 C.ar   31  PHE31      -0.0042
     29  CD2        8.8110   36.7060    4.5040 C.ar   31  PHE31      -0.0042
     30  CE1       10.7630   35.4180    3.0360 C.ar   31  PHE31      -0.0003
     31  CE2        8.9720   35.3360    4.6070 C.ar   31  PHE31      -0.0003
     32  CZ         9.9430   34.7030    3.8740 C.ar   31  PHE31      -0.0000
     33  N         13.6800   42.7730    2.1450 N.3    34  LEU34      -0.1245
     34  CA        14.2030   42.1100    0.9590 C.3    34  LEU34       0.1561
     35  C         13.5480   42.6640   -0.3090 C.2    34  LEU34       0.2260
     36  O         14.2220   43.0710   -1.2550 O.2    34  LEU34      -0.2867
     37  CB        13.9740   40.6010    1.0550 C.3    34  LEU34       0.0270
     38  CG        14.3930   39.7060   -0.1230 C.3    34  LEU34       0.0019
     39  CD1       15.8920   39.7850   -0.3240 C.3    34  LEU34       0.0001
     40  CD2       13.9830   38.2850    0.1320 C.3    34  LEU34       0.0001
     41  N         19.7420   39.8350   10.6440 N.3    46  LEU46      -0.1245
     42  CA        20.7190   38.7570   10.5730 C.3    46  LEU46       0.1561
     43  C         21.5360   38.7560   11.8460 C.2    46  LEU46       0.2260
     44  O         21.8800   39.8240   12.4140 O.2    46  LEU46      -0.2867
     45  CB        21.6560   38.9230    9.3590 C.3    46  LEU46       0.0270
     46  CG        20.9560   39.0790    7.9960 C.3    46  LEU46       0.0019
     47  CD1       21.9720   39.2700    6.8710 C.3    46  LEU46       0.0001
     48  CD2       20.0450   37.8930    7.7190 C.3    46  LEU46       0.0001
     49  N         26.4820   32.3210    7.3450 N.3    54  TYR54      -0.1227
     50  CA        25.1980   32.8130    6.8910 C.3    54  TYR54       0.1736
     51  C         24.9060   32.0820    5.5930 C.2    54  TYR54       0.2596
     52  O         25.4430   32.4330    4.5370 O.2    54  TYR54      -0.2718
     53  CB        25.2200   34.3470    6.6610 C.3    54  TYR54       0.0548
     54  CG        25.5870   35.0840    7.9380 C.ar   54  TYR54      -0.0200
     55  CD1       26.9210   35.2910    8.2700 C.ar   54  TYR54      -0.0009
     56  CD2       24.6160   35.5060    8.8260 C.ar   54  TYR54      -0.0009
     57  CE1       27.2770   35.9290    9.4450 C.ar   54  TYR54       0.0417
     58  CE2       24.9550   36.1520   10.0160 C.ar   54  TYR54       0.0417
     59  CZ        26.2990   36.3500   10.3160 C.ar   54  TYR54       0.1957
     60  OH        26.7020   36.9880   11.4770 O.3    54  TYR54      -0.2866
     61  N         24.0500   31.0710    5.6760 N.am   55  SER55      -0.1938
     62  CA        23.8070   30.1910    4.5400 C.3    55  SER55       0.2055
     63  C         22.3290   29.8880    4.3540 C.2    55  SER55       0.2643
     64  O         21.5530   29.9250    5.3160 O.2    55  SER55      -0.2714
     65  CB        24.5480   28.8740    4.7410 C.3    55  SER55       0.2130
     66  OG        24.5080   28.0570    3.5630 O.3    55  SER55      -0.2179
     67  N         21.9490   29.6090    3.1080 N.am   56  ASP56      -0.1971
     68  CA        20.6450   29.0160    2.8140 C.3    56  ASP56       0.1709
     69  C         20.7890   27.5630    2.3300 C.2    56  ASP56       0.2293
     70  O         19.8580   27.0240    1.7670 O.2    56  ASP56      -0.2864
     71  CB        19.8560   29.8690    1.8260 C.3    56  ASP56       0.1436
     72  CG        20.4630   29.8890    0.4230 C.2    56  ASP56       0.3671
     73  OD1       21.5280   29.2720    0.2040 O.co2  56  ASP56      -0.2456
     74  OD2       19.8540   30.5640   -0.4530 O.co2  56  ASP56      -0.2456
     75  N         23.9540   29.1540   -1.0230 N.3    59  LEU59      -0.1245
     76  CA        24.7950   30.3180   -0.9500 C.3    59  LEU59       0.1561
     77  C         25.2880   30.4400    0.4840 C.2    59  LEU59       0.2260
     78  O         24.5440   30.2060    1.4270 O.2    59  LEU59      -0.2867
     79  CB        23.9780   31.5420   -1.3590 C.3    59  LEU59       0.0270
     80  CG        23.4920   31.4890   -2.8250 C.3    59  LEU59       0.0019
     81  CD1       22.5230   32.6250   -3.1300 C.3    59  LEU59       0.0001
     82  CD2       24.6690   31.5320   -3.7940 C.3    59  LEU59       0.0001
     83  N         27.7790   32.9670    3.0960 N.3    61  PHE61      -0.1241
     84  CA        28.5330   34.1810    3.3730 C.3    61  PHE61       0.1605
     85  C         29.0320   34.2010    4.8210 C.2    61  PHE61       0.2264
     86  O         28.5720   33.4520    5.6880 O.2    61  PHE61      -0.2867
     87  CB        27.6790   35.4050    3.0490 C.3    61  PHE61       0.0534
     88  CG        27.0540   35.3390    1.6910 C.ar   61  PHE61      -0.0203
     89  CD1       27.7760   35.7260    0.5570 C.ar   61  PHE61      -0.0042
     90  CD2       25.7860   34.7970    1.5260 C.ar   61  PHE61      -0.0042
     91  CE1       27.2220   35.6270   -0.7130 C.ar   61  PHE61      -0.0003
     92  CE2       25.2260   34.7120    0.2520 C.ar   61  PHE61      -0.0003
     93  CZ        25.9420   35.1170   -0.8580 C.ar   61  PHE61      -0.0000
     94  N         26.2320   39.2930    3.1000 N.3    67  VAL67      -0.1245
     95  CA        24.9030   38.8690    2.6550 C.3    67  VAL67       0.1561
     96  C         24.2140   40.0150    1.9060 C.2    67  VAL67       0.2260
     97  O         23.7160   39.8140    0.7940 O.2    67  VAL67      -0.2867
     98  CB        24.0170   38.3780    3.7990 C.3    67  VAL67       0.0252
     99  CG1       22.6010   38.0970    3.2850 C.3    67  VAL67       0.0019
    100  CG2       24.5920   37.1270    4.4640 C.3    67  VAL67       0.0019
    101  N         25.7880   40.8540   -1.5190 N.3    70  TYR70      -0.1227
    102  CA        25.3290   39.8920   -2.5130 C.3    70  TYR70       0.1736
    103  C         23.8990   40.2470   -2.9760 C.2    70  TYR70       0.2595
    104  O         23.6290   40.3090   -4.1770 O.2    70  TYR70      -0.2718
    105  CB        25.3760   38.4410   -1.9790 C.3    70  TYR70       0.0548
    106  CG        24.6340   37.4730   -2.8970 C.ar   70  TYR70      -0.0200
    107  CD1       25.2510   36.9520   -4.0510 C.ar   70  TYR70      -0.0009
    108  CD2       23.3010   37.1300   -2.6560 C.ar   70  TYR70      -0.0009
    109  CE1       24.5650   36.1050   -4.9160 C.ar   70  TYR70       0.0417
    110  CE2       22.6040   36.2920   -3.5250 C.ar   70  TYR70       0.0417
    111  CZ        23.2400   35.7850   -4.6470 C.ar   70  TYR70       0.1957
    112  OH        22.5330   34.9570   -5.4900 O.3    70  TYR70      -0.2866
    113  N         23.0000   40.4460   -2.0280 N.am   71  LEU71      -0.1980
    114  CA        21.5910   40.6740   -2.3700 C.3    71  LEU71       0.1596
    115  C         21.3820   41.9470   -3.1880 C.2    71  LEU71       0.2287
    116  O         20.6110   41.9480   -4.1590 O.2    71  LEU71      -0.2864
    117  CB        20.7060   40.6800   -1.1380 C.3    71  LEU71       0.0297
    118  CG        20.5550   39.3460   -0.3830 C.3    71  LEU71       0.0022
    119  CD1       19.7810   39.5720    0.9070 C.3    71  LEU71       0.0001
    120  CD2       19.8770   38.2680   -1.2220 C.3    71  LEU71       0.0001
    121  N          8.5120   37.9140   -2.2030 N.3    81  HIS81      -0.1241
    122  CA         8.7150   36.6860   -1.4270 C.3    81  HIS81       0.1621
    123  C          7.6570   36.6590   -0.3480 C.2    81  HIS81       0.2264
    124  O          7.6890   37.4620    0.6020 O.2    81  HIS81      -0.2867
    125  CB        10.1090   36.7120   -0.7840 C.3    81  HIS81       0.0745
    126  CG        11.2140   36.6540   -1.7710 C.ar   81  HIS81       0.0817
    127  ND1       11.6760   37.7700   -2.4270 N.ar   81  HIS81      -0.2268
    128  CD2       11.9750   35.6140   -2.2000 C.ar   81  HIS81       0.1154
    129  CE1       12.6350   37.4140   -3.2640 C.ar   81  HIS81       0.1986
    130  NE2       12.8630   36.1150   -3.1210 N.ar   81  HIS81      -0.2212
    131  N          7.0760   29.2800    1.2450 N.3   101  LEU101     -0.1245
    132  CA         7.3750   30.4610    0.4210 C.3   101  LEU101      0.1561
    133  C          6.7710   30.3400   -0.9590 C.2   101  LEU101      0.2260
    134  O          6.9070   29.3110   -1.5880 O.2   101  LEU101     -0.2867
    135  CB         8.8870   30.6070    0.2410 C.3   101  LEU101      0.0270
    136  CG         9.5630   31.6020    1.1360 C.3   101  LEU101      0.0019
    137  CD1        9.1690   33.0430    0.7420 C.3   101  LEU101      0.0001
    138  CD2        9.2360   31.2460    2.5850 C.3   101  LEU101      0.0001
    139  N         11.0440   26.2650    3.4160 N.3   123  TYR123     -0.1241
    140  CA        12.2410   26.7440    4.1470 C.3   123  TYR123      0.1605
    141  C         12.1750   26.2640    5.5740 C.2   123  TYR123      0.2264
    142  O         11.0850   26.1890    6.1800 O.2   123  TYR123     -0.2867
    143  CB        12.2770   28.2770    4.1390 C.3   123  TYR123      0.0534
    144  CG        12.9660   28.8470    2.9220 C.ar  123  TYR123     -0.0201
    145  CD1       12.3140   28.9490    1.7080 C.ar  123  TYR123     -0.0009
    146  CD2       14.3130   29.2280    2.9730 C.ar  123  TYR123     -0.0009
    147  CE1       12.9580   29.4420    0.5850 C.ar  123  TYR123      0.0417
    148  CE2       14.9600   29.7330    1.8470 C.ar  123  TYR123      0.0417
    149  CZ        14.2770   29.8360    0.6610 C.ar  123  TYR123      0.1957
    150  OH        14.9060   30.3260   -0.4630 O.3   123  TYR123     -0.2866
    151  N         18.0090   36.0160   12.5220 N.3   136  ILE136     -0.1231
    152  CA        18.0950   34.8920   11.5880 C.3   136  ILE136      0.1692
    153  C         19.5750   34.5560   11.4190 C.2   136  ILE136      0.2592
    154  O         20.3730   35.4440   11.1230 O.2   136  ILE136     -0.2718
    155  CB        17.4750   35.2820   10.2270 C.3   136  ILE136      0.0266
    156  CG1       16.0450   35.7980   10.3760 C.3   136  ILE136      0.0019
    157  CG2       17.4780   34.1010    9.2980 C.3   136  ILE136      0.0020
    158  CD1       15.4920   36.4240    9.1160 C.3   136  ILE136      0.0001
    159  N         19.9050   33.2740   11.5940 N.am  137  LYS137     -0.1966
    160  CA        21.2810   32.7630   11.5230 C.3   137  LYS137      0.1728
    161  C         21.5220   32.0600   10.1890 C.2   137  LYS137      0.2616
    162  O         22.5490   32.2710    9.5440 O.2   137  LYS137     -0.2715
    163  CB        21.5340   31.7790   12.6680 C.3   137  LYS137      0.0311
    164  CG        22.9640   31.2690   12.7740 C.3   137  LYS137      0.0038
    165  CD        23.0620   30.1940   13.8570 C.3   137  LYS137      0.0206
    166  CE        24.4850   29.7760   14.1430 C.3   137  LYS137      0.1093
    167  NZ        25.1560   29.1350   13.0060 N.3   137  LYS137     -0.1314
    168  N         20.5630   31.2350    9.7720 N.am  138  GLU138     -0.1963
    169  CA        20.6910   30.5000    8.5090 C.3   138  GLU138      0.1733
    170  C         19.4380   29.6890    8.1940 C.2   138  GLU138      0.2617
    171  O         18.5050   29.6070    9.0040 O.2   138  GLU138     -0.2715
    172  CB        21.9580   29.6260    8.5240 C.3   138  GLU138      0.0429
    173  CG        21.9120   28.4220    9.4510 C.3   138  GLU138      0.1163
    174  CD        23.2070   27.6080    9.3940 C.2   138  GLU138      0.3649
    175  OE1       23.6460   27.2170    8.2910 O.co2 138  GLU138     -0.2457
    176  OE2       23.8080   27.3650   10.4430 O.co2 138  GLU138     -0.2457
    177  N         19.3930   29.1160    6.9960 N.am  139  THR139     -0.1951
    178  CA        18.2100   28.3950    6.5560 C.3   139  THR139      0.1897
    179  C         18.5980   27.3010    5.5910 C.2   139  THR139      0.2313
    180  O         19.7500   27.1870    5.1950 O.2   139  THR139     -0.2863
    181  CB        17.1560   29.3660    5.9440 C.3   139  THR139      0.1794
    182  OG1       15.8890   28.7170    5.8300 O.3   139  THR139     -0.2208
    183  CG2       17.5690   29.8620    4.5760 C.3   139  THR139      0.0378
@<TRIPOS>BOND
     1   112   111    1
     2   109   111   ar
     3   109   107   ar
     4   111   110   ar
     5   104   103    2
     6   116   115    2
     7   107   106   ar
     8    82    80    1
     9   110   108   ar
    10   129   130   ar
    11   129   127   ar
    12   115   114    1
    13    81    80    1
    14   130   128   ar
    15   103   102    1
    16   103   113   am
    17   106   108   ar
    18   106   105    1
    19    80    79    1
    20   102   105    1
    21   102   101    1
    22   127   126   ar
    23   114   113    1
    24   114   117    1
    25   121   122    1
    26   128   126   ar
    27   126   125    1
    28   134   133    2
    29   122   125    1
    30   122   123    1
    31    79    76    1
    32    36    35    2
    33   120   118    1
    34   117   118    1
    35    75    76    1
    36   133   132    1
    37    76    77    1
    38    93    91   ar
    39    93    92   ar
    40    91    89   ar
    41   150   149    1
    42    74    72   ar
    43   118   119    1
    44   123   124    2
    45    39    38    1
    46    35    34    1
    47    38    40    1
    48    38    37    1
    49    73    72   ar
    50   135   132    1
    51   135   136    1
    52    92    90   ar
    53   132   131    1
    54    72    71    1
    55    77    78    2
    56    89    88   ar
    57   147   149   ar
    58   147   145   ar
    59   149   148   ar
    60   137   136    1
    61    97    96    2
    62    34    37    1
    63    34    33    1
    64   136   138    1
    65    90    88   ar
    66    88    87    1
    67   145   144   ar
    68    70    69    2
    69    71    68    1
    70   148   146   ar
    71    25    24    2
    72    96    95    1
    73    69    68    1
    74    95    94    1
    75    95    98    1
    76    21    20    1
    77    68    67    1
    78   144   146   ar
    79   144   143    1
    80    28    30   ar
    81    28    27   ar
    82    30    32   ar
    83    87    84    1
    84    24    23    1
    85    83    84    1
    86    67    63   am
    87    99    98    1
    88    84    85    1
    89   139   140    1
    90    26    23    1
    91    26    27    1
    92    66    65    1
    93    23    22    1
    94    27    29   ar
    95    18    20   ar
    96    18    16   ar
    97    20    19   ar
    98    98   100    1
    99    32    31   ar
   100   143   140    1
   101   140   141    1
   102    13    12    2
   103    63    62    1
   104    63    64    2
   105    29    31   ar
   106    52    51    2
   107    62    65    1
   108    62    61    1
   109   183   181    1
   110    16    15   ar
   111    19    17   ar
   112    85    86    2
   113    22    12   am
   114    12    11    1
   115   180   179    2
   116   141   142    2
   117   179   178    1
   118    51    61   am
   119    51    50    1
   120    17    15   ar
   121    15    14    1
   122   182   181    1
   123   181   178    1
   124     9     8    1
   125     8     7    1
   126    11    14    1
   127    11    10    1
   128   178   177    1
   129    53    50    1
   130    53    54    1
   131    47    46    1
   132    50    49    1
   133   177   170   am
   134     4     3    2
   135     7     6    1
   136    48    46    1
   137     6     5    1
   138    54    55   ar
   139    54    56   ar
   140    46    45    1
   141   170   169    1
   142   170   171    2
   143    55    57   ar
   144   175   174   ar
   145     3     2    1
   146   169   172    1
   147   169   168    1
   148   172   173    1
   149    56    58   ar
   150   158   156    1
   151     5     2    1
   152   157   155    1
   153     2     1    1
   154    45    42    1
   155   174   173    1
   156   174   176   ar
   157    57    59   ar
   158   162   161    2
   159   168   161   am
   160    58    59   ar
   161   161   160    1
   162   155   156    1
   163   155   152    1
   164    59    60    1
   165    42    41    1
   166    42    43    1
   167   154   153    2
   168   153   152    1
   169   153   159   am
   170   160   159    1
   171   160   163    1
   172   152   151    1
   173    43    44    2
   174   163   164    1
   175   164   165    1
   176   167   166    1
   177   165   166    1
