@<TRIPOS>MOLECULE
tmp/4l8vB00.pdb
 181 177 0 0 0
SMALL
GASTEIGER

@<TRIPOS>ATOM
      1  N         -0.7150   48.9030  -23.5210 N.3     9  GLY9       -0.1210
      2  CA        -1.4890   48.1630  -22.5480 C.3     9  GLY9        0.1956
      3  C         -1.4290   48.8630  -21.2050 C.2     9  GLY9        0.2613
      4  O         -0.4360   48.7540  -20.4790 O.2     9  GLY9       -0.2717
      5  N         -2.4940   49.5840  -20.8720 N.am   10  THR10      -0.1938
      6  CA        -2.5180   50.3400  -19.6310 C.3    10  THR10       0.2028
      7  C         -3.5350   49.7830  -18.6250 C.2    10  THR10       0.2643
      8  O         -4.4330   50.4840  -18.1560 O.2    10  THR10      -0.2714
      9  CB        -2.6610   51.8740  -19.8970 C.3    10  THR10       0.1808
     10  OG1       -2.6060   52.5960  -18.6630 O.3    10  THR10      -0.2208
     11  CG2       -3.9460   52.2070  -20.6360 C.3    10  THR10       0.0379
     12  N         -3.3720   48.5010  -18.3050 N.am   11  GLY11      -0.1939
     13  CA        -4.1030   47.8770  -17.2170 C.3    11  GLY11       0.2014
     14  C         -3.3050   47.9600  -15.9220 C.2    11  GLY11       0.2639
     15  O         -2.6190   48.9560  -15.6800 O.2    11  GLY11      -0.2714
     16  N         -3.3740   46.9160  -15.0980 N.am   12  LYS12      -0.1963
     17  CA        -2.7600   46.9500  -13.7670 C.3    12  LYS12       0.1728
     18  C         -1.2340   47.0870  -13.7790 C.2    12  LYS12       0.2616
     19  O         -0.6870   48.0050  -13.1650 O.2    12  LYS12      -0.2715
     20  CB        -3.1910   45.7350  -12.9240 C.3    12  LYS12       0.0311
     21  CG        -2.2000   45.3700  -11.8120 C.3    12  LYS12       0.0038
     22  CD        -2.8540   44.6440  -10.6370 C.3    12  LYS12       0.0206
     23  CE        -1.9040   43.6250  -10.0300 C.3    12  LYS12       0.1093
     24  NZ        -0.5410   44.1780   -9.8210 N.3    12  LYS12      -0.1314
     25  N         -0.5600   46.1750  -14.4720 N.am   13  ILE13      -0.1977
     26  CA         0.9020   46.1560  -14.5270 C.3    13  ILE13       0.1596
     27  C          1.4250   47.4060  -15.2160 C.2    13  ILE13       0.2287
     28  O          2.4370   47.9920  -14.8060 O.2    13  ILE13      -0.2864
     29  CB         1.4100   44.9280  -15.3000 C.3    13  ILE13       0.0276
     30  CG1        0.7750   43.6630  -14.7340 C.3    13  ILE13       0.0022
     31  CG2        2.9290   44.8430  -15.2560 C.3    13  ILE13       0.0022
     32  CD1        0.8130   43.5890  -13.2220 C.3    13  ILE13       0.0001
     33  N         -3.9880   51.8970  -25.4500 N.3    35  SER35      -0.1202
     34  CA        -4.6330   50.7260  -24.8950 C.3    35  SER35       0.2020
     35  C         -5.5910   50.1340  -25.8990 C.2    35  SER35       0.2619
     36  O         -5.2360   49.8610  -27.0470 O.2    35  SER35      -0.2717
     37  CB        -5.3930   51.0740  -23.6180 C.3    35  SER35       0.2103
     38  OG        -6.1200   49.9490  -23.1500 O.3    35  SER35      -0.2182
     39  N         -6.8170   49.9540  -25.4400 N.am   36  VAL36      -0.1965
     40  CA        -7.8720   49.3390  -26.2090 C.3    36  VAL36       0.1727
     41  C         -9.1450   50.0210  -25.7410 C.2    36  VAL36       0.2616
     42  O        -10.0510   50.2960  -26.5300 O.2    36  VAL36      -0.2715
     43  CB        -7.8970   47.8200  -25.9530 C.3    36  VAL36       0.0290
     44  CG1       -9.3160   47.3100  -25.7340 C.3    36  VAL36       0.0023
     45  CG2       -7.1970   47.0820  -27.0920 C.3    36  VAL36       0.0023
     46  N         -9.1850   50.3130  -24.4430 N.am   37  ASN37      -0.1972
     47  CA       -10.1990   51.1910  -23.8720 C.3    37  ASN37       0.1688
     48  C         -9.6540   52.6170  -23.7990 C.2    37  ASN37       0.2292
     49  O         -9.1880   53.0690  -22.7510 O.2    37  ASN37      -0.2864
     50  CB       -10.6330   50.7030  -22.4820 C.3    37  ASN37       0.1181
     51  CG       -11.9210   51.3600  -22.0050 C.2    37  ASN37       0.2629
     52  OD1      -12.3090   52.4250  -22.4920 O.2    37  ASN37      -0.2716
     53  ND2      -12.5880   50.7270  -21.0460 N.am   37  ASN37      -0.0877
     54  N         -9.6070   54.7010  -20.4700 N.3    40  ALA40      -0.1245
     55  CA        -8.6770   54.3590  -19.4000 C.3    40  ALA40       0.1562
     56  C         -7.2830   54.8990  -19.7000 C.2    40  ALA40       0.2260
     57  O         -6.5590   55.3040  -18.7920 O.2    40  ALA40      -0.2867
     58  CB        -8.6360   52.8580  -19.1990 C.3    40  ALA40       0.0290
     59  N          2.6950   45.7260  -21.8030 N.3    73  THR73      -0.1203
     60  CA         2.0160   45.2870  -20.6000 C.3    73  THR73       0.1994
     61  C          0.5430   45.0490  -20.9220 C.2    73  THR73       0.2619
     62  O         -0.3400   45.2620  -20.0880 O.2    73  THR73      -0.2717
     63  CB         2.1630   46.3430  -19.4980 C.3    73  THR73       0.1784
     64  OG1        1.7630   47.6210  -20.0070 O.3    73  THR73      -0.2211
     65  CG2        3.6050   46.4350  -19.0580 C.3    73  THR73       0.0376
     66  N          0.2910   44.6140  -22.1520 N.am   74  SER74      -0.1937
     67  CA        -1.0650   44.4000  -22.6310 C.3    74  SER74       0.2055
     68  C         -1.5460   43.0080  -22.2620 C.2    74  SER74       0.2643
     69  O         -0.8540   42.2590  -21.5680 O.2    74  SER74      -0.2714
     70  CB        -1.1330   44.5960  -24.1540 C.3    74  SER74       0.2130
     71  OG        -0.2320   43.7300  -24.8310 O.3    74  SER74      -0.2179
     72  N         -2.7490   42.6820  -22.7180 N.am   75  TRP75      -0.1959
     73  CA        -3.3110   41.3470  -22.5810 C.3    75  TRP75       0.1771
     74  C         -2.3090   40.3170  -23.1140 C.2    75  TRP75       0.2620
     75  O         -1.7510   40.5050  -24.1960 O.2    75  TRP75      -0.2715
     76  CB        -4.6260   41.2970  -23.3570 C.3    75  TRP75       0.0590
     77  CG        -5.3690   40.0030  -23.2790 C.ar   75  TRP75       0.0006
     78  CD1       -5.7510   39.3370  -22.1490 C.ar   75  TRP75       0.0946
     79  CD2       -5.8600   39.2320  -24.3870 C.ar   75  TRP75       0.0152
     80  NE1       -6.4340   38.1860  -22.4870 N.ar   75  TRP75      -0.2442
     81  CE2       -6.5170   38.1010  -23.8550 C.ar   75  TRP75       0.0810
     82  CE3       -5.8010   39.3840  -25.7800 C.ar   75  TRP75       0.0012
     83  CZ2       -7.1130   37.1290  -24.6670 C.ar   75  TRP75       0.0191
     84  CZ3       -6.3920   38.4170  -26.5840 C.ar   75  TRP75       0.0001
     85  CH2       -7.0390   37.3070  -26.0250 C.ar   75  TRP75       0.0015
     86  N         -2.0730   39.2550  -22.3390 N.am   76  GLY76      -0.1954
     87  CA        -1.0420   38.2630  -22.6270 C.3    76  GLY76       0.1869
     88  C         -0.8300   37.8540  -24.0830 C.2    76  GLY76       0.2309
     89  O          0.2540   38.0500  -24.6370 O.2    76  GLY76      -0.2863
     90  N          0.9090   40.2470  -26.7160 N.3    79  HIS79      -0.1241
     91  CA         2.3020   40.6630  -26.5440 C.3    79  HIS79       0.1621
     92  C          3.1320   40.5140  -27.8180 C.2    79  HIS79       0.2264
     93  O          3.7930   41.4640  -28.2580 O.2    79  HIS79      -0.2867
     94  CB         2.9680   39.8450  -25.4390 C.3    79  HIS79       0.0745
     95  CG         2.5470   40.2390  -24.0590 C.ar   79  HIS79       0.0817
     96  ND1        3.0850   39.6590  -22.9240 N.ar   79  HIS79      -0.2268
     97  CD2        1.6430   41.1460  -23.6300 C.ar   79  HIS79       0.1154
     98  CE1        2.5280   40.1940  -21.8620 C.ar   79  HIS79       0.1986
     99  NE2        1.6500   41.1050  -22.2490 N.ar   79  HIS79      -0.2212
    100  N          6.4590   42.3820  -20.6410 N.3    96  GLU96      -0.1231
    101  CA         5.9860   41.6020  -19.5060 C.3    96  GLU96       0.1699
    102  C          5.7190   40.1890  -19.9900 C.2    96  GLU96       0.2592
    103  O          5.3710   39.9950  -21.1510 O.2    96  GLU96      -0.2718
    104  CB         4.7390   42.2370  -18.8880 C.3    96  GLU96       0.0402
    105  CG         5.0660   43.3200  -17.8520 C.3    96  GLU96       0.1161
    106  CD         5.7730   42.7630  -16.6260 C.2    96  GLU96       0.3649
    107  OE1        5.7180   41.5310  -16.4140 O.co2  96  GLU96      -0.2457
    108  OE2        6.3890   43.5500  -15.8690 O.co2  96  GLU96      -0.2457
    109  N          5.9400   39.2010  -19.1240 N.am   97  LYS97      -0.1966
    110  CA         5.6800   37.8090  -19.4760 C.3    97  LYS97       0.1713
    111  C          4.2110   37.6720  -19.8780 C.2    97  LYS97       0.2458
    112  O          3.3570   38.3850  -19.3500 O.2    97  LYS97      -0.2730
    113  CB         6.0190   36.8910  -18.2900 C.3    97  LYS97       0.0311
    114  CG         4.8730   35.9920  -17.8220 C.3    97  LYS97       0.0038
    115  CD         5.1480   35.4000  -16.4380 C.3    97  LYS97       0.0206
    116  CE         3.8960   34.7580  -15.8460 C.3    97  LYS97       0.1093
    117  NZ         2.7470   35.7050  -15.7860 N.3    97  LYS97      -0.1314
    118  N          3.9080   36.7960  -20.8500 N.am   98  PRO98      -0.2727
    119  CA         4.8430   36.0020  -21.6510 C.3    98  PRO98       0.1402
    120  C          5.3080   36.7930  -22.8650 C.2    98  PRO98       0.2269
    121  O          4.6170   37.7100  -23.3300 O.2    98  PRO98      -0.2865
    122  CB         3.9760   34.8380  -22.1240 C.3    98  PRO98       0.0296
    123  CG         2.6220   35.4600  -22.2960 C.3    98  PRO98       0.0237
    124  CD         2.5080   36.5350  -21.2310 C.3    98  PRO98       0.0939
    125  N         10.3380   40.3710  -18.8580 N.3   124  GLY124     -0.1225
    126  CA        10.1470   40.7030  -17.4500 C.3   124  GLY124      0.1811
    127  C         10.1410   39.5560  -16.4530 C.2   124  GLY124      0.2280
    128  O          9.1930   39.4070  -15.6760 O.2   124  GLY124     -0.2866
    129  N         11.3350   38.9790  -13.3330 N.3   126  MET126     -0.1245
    130  CA        11.9180   39.8380  -12.3060 C.3   126  MET126      0.1570
    131  C         12.6920   39.1030  -11.2240 C.2   126  MET126      0.2261
    132  O         13.5000   39.7170  -10.5380 O.2   126  MET126     -0.2867
    133  CB        10.8560   40.7400  -11.6680 C.3   126  MET126      0.0387
    134  CG        10.0080   40.0290  -10.6390 C.3   126  MET126      0.0595
    135  SD         8.8470   38.9010  -11.4220 S.3   126  MET126     -0.1393
    136  CE         8.2350   38.0180   -9.9730 C.3   126  MET126      0.0692
    137  N          8.1350   31.0850  -13.6940 N.3   176  HIS176     -0.1241
    138  CA         9.1070   31.8960  -12.9630 C.3   176  HIS176      0.1621
    139  C         10.2660   31.0400  -12.4620 C.2   176  HIS176      0.2264
    140  O         11.4280   31.4190  -12.6250 O.2   176  HIS176     -0.2867
    141  CB         8.4450   32.6730  -11.8170 C.3   176  HIS176      0.0745
    142  CG         7.5250   33.7470  -12.2740 C.ar  176  HIS176      0.0817
    143  ND1        7.9650   34.9770  -12.7440 N.ar  176  HIS176     -0.2268
    144  CD2        6.1650   33.8100  -12.3460 C.ar  176  HIS176      0.1154
    145  CE1        6.9430   35.7260  -13.0710 C.ar  176  HIS176      0.1986
    146  NE2        5.8260   35.0330  -12.8410 N.ar  176  HIS176     -0.2212
    147  N          1.0890   38.1980   -3.6900 N.3   272  TRP272     -0.1241
    148  CA         2.2680   38.1590   -4.5510 C.3   272  TRP272      0.1605
    149  C          2.9080   39.5190   -4.8730 C.2   272  TRP272      0.2264
    150  O          4.1090   39.5880   -5.1430 O.2   272  TRP272     -0.2867
    151  CB         1.9280   37.4290   -5.8490 C.3   272  TRP272      0.0550
    152  CG         0.8990   38.1340   -6.6890 C.ar  272  TRP272      0.0003
    153  CD1       -0.4570   38.0040   -6.6040 C.ar  272  TRP272      0.0946
    154  CD2        1.1490   39.0660   -7.7550 C.ar  272  TRP272      0.0152
    155  NE1       -1.0650   38.7990   -7.5450 N.ar  272  TRP272     -0.2442
    156  CE2       -0.1060   39.4580   -8.2610 C.ar  272  TRP272      0.0810
    157  CE3        2.3080   39.6070   -8.3180 C.ar  272  TRP272      0.0012
    158  CZ2       -0.2280   40.3710   -9.3090 C.ar  272  TRP272      0.0191
    159  CZ3        2.1820   40.5140   -9.3520 C.ar  272  TRP272      0.0001
    160  CH2        0.9230   40.8860   -9.8400 C.ar  272  TRP272      0.0015
    161  N         10.9750   44.3550   -9.2040 N.3   280  TYR280     -0.1241
    162  CA        10.3500   45.0880  -10.3080 C.3   280  TYR280      0.1605
    163  C         11.0280   46.4500  -10.5160 C.2   280  TYR280      0.2264
    164  O         11.2910   46.8490  -11.6500 O.2   280  TYR280     -0.2867
    165  CB         8.8340   45.2680  -10.0990 C.3   280  TYR280      0.0534
    166  CG         8.0210   43.9850  -10.1170 C.ar  280  TYR280     -0.0201
    167  CD1        7.8120   43.2770  -11.3000 C.ar  280  TYR280     -0.0009
    168  CD2        7.4450   43.4870   -8.9500 C.ar  280  TYR280     -0.0009
    169  CE1        7.0580   42.1030  -11.3150 C.ar  280  TYR280      0.0417
    170  CE2        6.6920   42.3060   -8.9560 C.ar  280  TYR280      0.0417
    171  CZ         6.5030   41.6220  -10.1370 C.ar  280  TYR280      0.1957
    172  OH         5.7570   40.4560  -10.1320 O.3   280  TYR280     -0.2866
    173  N         14.5630   45.8320  -12.0260 N.3   283  GLU283     -0.1245
    174  CA        14.5820   45.3390  -13.4110 C.3   283  GLU283      0.1567
    175  C         14.3050   46.4530  -14.4330 C.2   283  GLU283      0.2260
    176  O         14.9690   46.5380  -15.4700 O.2   283  GLU283     -0.2867
    177  CB        13.6360   44.1420  -13.6060 C.3   283  GLU283      0.0388
    178  CG        12.2220   44.4840  -14.0390 C.3   283  GLU283      0.1160
    179  CD        11.3540   43.2680  -14.2810 C.2   283  GLU283      0.3649
    180  OE1       11.8630   42.2220  -14.7680 O.co2 283  GLU283     -0.2457
    181  OE2       10.1370   43.3700  -13.9830 O.co2 283  GLU283     -0.2457
@<TRIPOS>BOND
     1    93    92    2
     2    92    91    1
     3    45    43    1
     4    36    35    2
     5    90    91    1
     6    84    85   ar
     7    84    82   ar
     8    91    94    1
     9    42    41    2
    10    40    43    1
    11    40    41    1
    12    40    39    1
    13    85    83   ar
    14    43    44    1
    15    35    39   am
    16    35    34    1
    17    82    79   ar
    18    41    46   am
    19    33    34    1
    20    94    95    1
    21    34    37    1
    22    71    70    1
    23    83    81   ar
    24    89    88    2
    25    46    47    1
    26    79    81   ar
    27    79    77   ar
    28    75    74    2
    29    70    67    1
    30    88    87    1
    31    95    97   ar
    32    95    96   ar
    33    47    48    1
    34    47    50    1
    35    81    80   ar
    36    48    49    2
    37    97    99   ar
    38    37    38    1
    39     1     2    1
    40    76    77    1
    41    76    73    1
    42   121   120    2
    43    77    78   ar
    44    74    73    1
    45    74    86   am
    46    96    98   ar
    47   120   119    1
    48    72    73    1
    49    72    68   am
    50    67    68    1
    51    67    66    1
    52    87    86    1
    53     2     3    1
    54    52    51    2
    55    80    78   ar
    56    50    51    1
    57   123   122    1
    58   123   124    1
    59    68    69    2
    60    99    98   ar
    61    66    61   am
    62   122   119    1
    63    51    53   am
    64    59    60    1
    65   119   118    1
    66   124   118    1
    67     3     5   am
    68     3     4    2
    69   103   102    2
    70    61    60    1
    71    61    62    2
    72     5     6    1
    73   118   111   am
    74   100   101    1
    75    11     9    1
    76    60    63    1
    77    54    55    1
    78    64    63    1
    79   102   101    1
    80   102   109   am
    81     9     6    1
    82     9    10    1
    83   111   110    1
    84   111   112    2
    85    56    55    1
    86    56    57    2
    87     6     7    1
    88   101   104    1
    89    63    65    1
    90   110   109    1
    91   110   113    1
    92    55    58    1
    93   104   105    1
    94   125   126    1
    95     7    12   am
    96     7     8    2
    97    12    13    1
    98   113   114    1
    99   105   106    1
   100   114   115    1
   101   126   127    1
   102    13    14    1
   103   106   107   ar
   104   106   108   ar
   105   127   128    2
   106   115   116    1
   107    14    15    2
   108    14    16   am
   109   116   117    1
   110   176   175    2
   111    29    31    1
   112    29    30    1
   113    29    26    1
   114    27    28    2
   115    27    26    1
   116    16    17    1
   117   180   179   ar
   118    30    32    1
   119    26    25    1
   120    25    18   am
   121   175   174    1
   122   179   178    1
   123   179   181   ar
   124   178   177    1
   125    18    17    1
   126    18    19    2
   127    17    20    1
   128   137   138    1
   129   177   174    1
   130   174   173    1
   131   129   130    1
   132   145   146   ar
   133   145   143   ar
   134   138   139    1
   135   138   141    1
   136    20    21    1
   137   146   144   ar
   138   143   142   ar
   139   140   139    2
   140   144   142   ar
   141   130   133    1
   142   130   131    1
   143   142   141    1
   144    21    22    1
   145   133   134    1
   146   164   163    2
   147   135   134    1
   148   135   136    1
   149   169   167   ar
   150   169   171   ar
   151   167   166   ar
   152   131   132    2
   153    22    23    1
   154   163   162    1
   155   162   165    1
   156   162   161    1
   157   171   172    1
   158   171   170   ar
   159   166   165    1
   160   166   168   ar
   161    23    24    1
   162   160   159   ar
   163   160   158   ar
   164   159   157   ar
   165   158   156   ar
   166   170   168   ar
   167   157   154   ar
   168   156   154   ar
   169   156   155   ar
   170   154   152   ar
   171   155   153   ar
   172   152   153   ar
   173   152   151    1
   174   151   148    1
   175   150   149    2
   176   149   148    1
   177   148   147    1
