@<TRIPOS>MOLECULE
tmp/4l8wE01.pdb
 89 84 0 0 0
SMALL
GASTEIGER

@<TRIPOS>ATOM
      1  N        -44.9600  -19.3780    9.6540 N.3    25  TYR25      -0.1241
      2  CA       -43.8390  -20.2410    9.7300 C.3    25  TYR25       0.1605
      3  C        -42.5360  -19.5720    9.2110 C.2    25  TYR25       0.2264
      4  O        -42.5880  -18.6570    8.4020 O.2    25  TYR25      -0.2867
      5  CB       -44.1480  -21.5330    8.9370 C.3    25  TYR25       0.0534
      6  CG       -43.7090  -21.4750    7.4720 C.ar   25  TYR25      -0.0201
      7  CD1      -44.6490  -21.2500    6.4340 C.ar   25  TYR25      -0.0009
      8  CD2      -42.3470  -21.6310    7.1160 C.ar   25  TYR25      -0.0009
      9  CE1      -44.2340  -21.2250    5.0950 C.ar   25  TYR25       0.0417
     10  CE2      -41.9390  -21.6000    5.7910 C.ar   25  TYR25       0.0417
     11  CZ       -42.8890  -21.3800    4.8020 C.ar   25  TYR25       0.1957
     12  OH       -42.4960  -21.3500    3.4950 O.3    25  TYR25      -0.2866
     13  N        -33.0270  -20.1790    7.2520 N.3    30  TYR30      -0.1241
     14  CA       -32.7990  -18.7170    7.2780 C.3    30  TYR30       0.1605
     15  C        -32.2110  -18.2260    8.6210 C.2    30  TYR30       0.2264
     16  O        -31.4430  -17.2750    8.6780 O.2    30  TYR30      -0.2867
     17  CB       -34.1060  -17.9200    6.9790 C.3    30  TYR30       0.0534
     18  CG       -34.6200  -18.1900    5.5810 C.ar   30  TYR30      -0.0201
     19  CD1      -35.6640  -19.1470    5.3360 C.ar   30  TYR30      -0.0009
     20  CD2      -34.0270  -17.5380    4.4720 C.ar   30  TYR30      -0.0009
     21  CE1      -36.0850  -19.4360    4.0180 C.ar   30  TYR30       0.0417
     22  CE2      -34.4590  -17.7940    3.1480 C.ar   30  TYR30       0.0417
     23  CZ       -35.4580  -18.7250    2.9310 C.ar   30  TYR30       0.1957
     24  OH       -35.7760  -18.9020    1.6230 O.3    30  TYR30      -0.2866
     25  N        -37.6830  -16.6980    1.1510 N.3    67  GLY67      -0.1210
     26  CA       -38.5330  -17.4080    0.1940 C.3    67  GLY67       0.1956
     27  C        -39.8290  -17.9470    0.7860 C.2    67  GLY67       0.2612
     28  O        -40.0860  -17.7750    1.9880 O.2    67  GLY67      -0.2717
     29  N        -40.6400  -18.5760   -0.0620 N.am   68  GLY68      -0.1942
     30  CA       -41.9290  -19.1760    0.3550 C.3    68  GLY68       0.2014
     31  C        -42.9490  -19.2000   -0.7810 C.2    68  GLY68       0.2639
     32  O        -42.6070  -18.9310   -1.9270 O.2    68  GLY68      -0.2714
     33  N        -44.2120  -19.4870   -0.4670 N.am   69  GLY69      -0.1954
     34  CA       -45.2360  -19.6320   -1.5100 C.3    69  GLY69       0.1869
     35  C        -46.5190  -19.0110   -1.0300 C.2    69  GLY69       0.2309
     36  O        -47.5080  -19.7100   -0.7320 O.2    69  GLY69      -0.2863
     37  N        -35.3800  -15.1400   -2.9260 N.3   104  CYS104     -0.1221
     38  CA       -36.3970  -15.7570   -3.8010 C.3   104  CYS104      0.1808
     39  C        -37.7250  -15.0330   -3.8910 C.2   104  CYS104      0.2601
     40  O        -37.8390  -14.1140   -4.5970 O.2   104  CYS104     -0.2717
     41  CB       -36.6460  -17.2140   -3.4550 C.3   104  CYS104      0.0970
     42  SG       -37.1940  -18.2160   -4.6950 S.3   104  CYS104     -0.0800
     43  N        -38.7160  -15.4960   -3.1700 N.am  105  LEU105     -0.1979
     44  CA       -39.9710  -14.7980   -3.0190 C.3   105  LEU105      0.1596
     45  C        -39.7300  -13.4250   -2.4450 C.2   105  LEU105      0.2287
     46  O        -40.4900  -12.4880   -2.7430 O.2   105  LEU105     -0.2864
     47  CB       -40.9000  -15.5320   -2.0550 C.3   105  LEU105      0.0297
     48  CG       -42.2930  -14.8880   -2.0230 C.3   105  LEU105      0.0022
     49  CD1      -43.1810  -15.2480   -3.3380 C.3   105  LEU105      0.0001
     50  CD2      -43.0100  -15.2840   -0.7520 C.3   105  LEU105      0.0001
     51  N        -35.0630  -22.5570   -7.0640 N.3   164  SER164     -0.1217
     52  CA       -36.2900  -23.3170   -6.9060 C.3   164  SER164      0.1889
     53  C        -37.4410  -22.3180   -6.9750 C.2   164  SER164      0.2288
     54  O        -38.1490  -22.0970   -6.0220 O.2   164  SER164     -0.2866
     55  CB       -36.2610  -24.1520   -5.6130 C.3   164  SER164      0.2089
     56  OG       -35.9670  -23.2760   -4.5490 O.3   164  SER164     -0.2183
     57  N        -31.4070  -19.1990   -3.7310 N.3   214  ASN214     -0.1240
     58  CA       -31.5300  -19.4010   -2.2660 C.3   214  ASN214      0.1653
     59  C        -30.1750  -19.7520   -1.6150 C.2   214  ASN214      0.2266
     60  O        -29.7570  -20.9040   -1.6430 O.2   214  ASN214     -0.2867
     61  CB       -32.5440  -20.5110   -1.9810 C.3   214  ASN214      0.1155
     62  CG       -33.9710  -20.0640   -2.1970 C.2   214  ASN214      0.2627
     63  OD1      -34.7180  -19.8540   -1.2520 O.2   214  ASN214     -0.2716
     64  ND2      -34.3330  -19.8540   -3.4210 N.am  214  ASN214     -0.0877
     65  N        -29.3810  -22.4870    1.3680 N.3   217  LYS217     -0.1245
     66  CA       -29.6510  -23.9120    1.3420 C.3   217  LYS217      0.1561
     67  C        -28.4230  -24.7590    1.2150 C.2   217  LYS217      0.2260
     68  O        -28.4490  -25.9110    1.6130 O.2   217  LYS217     -0.2867
     69  CB       -30.6210  -24.2830    0.2270 C.3   217  LYS217      0.0271
     70  CG       -32.0670  -23.7970    0.3860 C.3   217  LYS217      0.0035
     71  CD       -32.8070  -24.1690   -0.8960 C.3   217  LYS217      0.0206
     72  CE       -34.2400  -23.5490   -1.0180 C.3   217  LYS217      0.1093
     73  NZ       -35.1060  -23.8160    0.1970 N.3   217  LYS217     -0.1314
     74  N        -39.2070  -29.3950    1.7900 N.3   279  ALA279     -0.1231
     75  CA       -37.8740  -29.0380    1.2890 C.3   279  ALA279      0.1694
     76  C        -37.0080  -28.5300    2.4340 C.2   279  ALA279      0.2592
     77  O        -35.8240  -28.3120    2.3070 O.2   279  ALA279     -0.2718
     78  CB       -37.9760  -27.9920    0.2110 C.3   279  ALA279      0.0304
     79  N        -37.6480  -28.3660    3.5690 N.am  280  PHE280     -0.1976
     80  CA       -37.0580  -27.7880    4.7660 C.3   280  PHE280      0.1639
     81  C        -36.7960  -28.8570    5.8420 C.2   280  PHE280      0.2290
     82  O        -37.7670  -29.4500    6.3390 O.2   280  PHE280     -0.2864
     83  CB       -38.0480  -26.8330    5.3640 C.3   280  PHE280      0.0560
     84  CG       -38.5130  -25.7850    4.4250 C.ar  280  PHE280     -0.0200
     85  CD1      -39.8700  -25.4560    4.3490 C.ar  280  PHE280     -0.0042
     86  CD2      -37.6260  -25.1110    3.6300 C.ar  280  PHE280     -0.0042
     87  CE1      -40.3100  -24.4700    3.4820 C.ar  280  PHE280     -0.0003
     88  CE2      -38.0480  -24.1310    2.7990 C.ar  280  PHE280     -0.0003
     89  CZ       -39.3960  -23.7990    2.6950 C.ar  280  PHE280     -0.0000
@<TRIPOS>BOND
     1    51    52    1
     2    53    52    1
     3    53    54    2
     4    52    55    1
     5    55    56    1
     6    42    41    1
     7    40    39    2
     8    39    38    1
     9    39    43   am
    10    38    41    1
    11    38    37    1
    12    57    58    1
    13    64    62   am
    14    49    48    1
    15    43    44    1
    16    44    45    1
    17    44    47    1
    18    46    45    2
    19    58    61    1
    20    58    59    1
    21    62    61    1
    22    62    63    2
    23    47    48    1
    24    48    50    1
    25    32    31    2
    26    60    59    2
    27    34    35    1
    28    34    33    1
    29    35    36    2
    30    72    71    1
    31    72    73    1
    32    71    70    1
    33    31    33   am
    34    31    30    1
    35    29    30    1
    36    29    27   am
    37    26    27    1
    38    26    25    1
    39    78    75    1
    40    69    70    1
    41    69    66    1
    42    27    28    2
    43    67    66    1
    44    67    68    2
    45    75    74    1
    46    75    76    1
    47    66    65    1
    48    24    23    1
    49    77    76    2
    50    76    79   am
    51    89    88   ar
    52    89    87   ar
    53    88    86   ar
    54    23    22   ar
    55    23    21   ar
    56    22    20   ar
    57    87    85   ar
    58    12    11    1
    59    79    80    1
    60    86    84   ar
    61    21    19   ar
    62    85    84   ar
    63    84    83    1
    64    20    18   ar
    65    80    83    1
    66    80    81    1
    67    11     9   ar
    68    11    10   ar
    69     9     7   ar
    70    19    18   ar
    71    18    17    1
    72    10     8   ar
    73    81    82    2
    74     7     6   ar
    75    17    14    1
    76     8     6   ar
    77    13    14    1
    78    14    15    1
    79     6     5    1
    80     4     3    2
    81    15    16    2
    82     5     2    1
    83     3     2    1
    84     1     2    1
