@<TRIPOS>MOLECULE
tmp/4l8wE02.pdb
 89 86 0 0 0
SMALL
GASTEIGER

@<TRIPOS>ATOM
      1  N        -49.1900  -19.6330    6.7180 N.3    15  VAL15      -0.1231
      2  CA       -49.1290  -21.0770    6.4560 C.3    15  VAL15       0.1692
      3  C        -50.3060  -21.5210    5.5100 C.2    15  VAL15       0.2592
      4  O        -51.4540  -21.0720    5.6740 O.2    15  VAL15      -0.2718
      5  CB       -49.1490  -21.8820    7.8080 C.3    15  VAL15       0.0266
      6  CG1      -49.8230  -23.2450    7.6440 C.3    15  VAL15       0.0020
      7  CG2      -47.7700  -22.0840    8.3570 C.3    15  VAL15       0.0020
      8  N        -50.0310  -22.4100    4.5500 N.am   16  PHE16      -0.1976
      9  CA       -51.0660  -22.7270    3.5740 C.3    16  PHE16       0.1639
     10  C        -52.4040  -23.0880    4.1970 C.2    16  PHE16       0.2290
     11  O        -53.4190  -22.5540    3.7600 O.2    16  PHE16      -0.2864
     12  CB       -50.6970  -23.7870    2.5300 C.3    16  PHE16       0.0560
     13  CG       -51.8470  -24.0900    1.6000 C.ar   16  PHE16      -0.0200
     14  CD1      -52.3230  -23.0990    0.7140 C.ar   16  PHE16      -0.0042
     15  CD2      -52.5200  -25.3160    1.6610 C.ar   16  PHE16      -0.0042
     16  CE1      -53.4410  -23.3370   -0.1570 C.ar   16  PHE16      -0.0003
     17  CE2      -53.6500  -25.5730    0.8040 C.ar   16  PHE16      -0.0003
     18  CZ       -54.1000  -24.5770   -0.1070 C.ar   16  PHE16      -0.0000
     19  N        -44.9600  -19.3780    9.6540 N.3    25  TYR25      -0.1241
     20  CA       -43.8390  -20.2410    9.7300 C.3    25  TYR25       0.1605
     21  C        -42.5360  -19.5720    9.2110 C.2    25  TYR25       0.2264
     22  O        -42.5880  -18.6570    8.4020 O.2    25  TYR25      -0.2867
     23  CB       -44.1480  -21.5330    8.9370 C.3    25  TYR25       0.0534
     24  CG       -43.7090  -21.4750    7.4720 C.ar   25  TYR25      -0.0201
     25  CD1      -44.6490  -21.2500    6.4340 C.ar   25  TYR25      -0.0009
     26  CD2      -42.3470  -21.6310    7.1160 C.ar   25  TYR25      -0.0009
     27  CE1      -44.2340  -21.2250    5.0950 C.ar   25  TYR25       0.0417
     28  CE2      -41.9390  -21.6000    5.7910 C.ar   25  TYR25       0.0417
     29  CZ       -42.8890  -21.3800    4.8020 C.ar   25  TYR25       0.1957
     30  OH       -42.4960  -21.3500    3.4950 O.3    25  TYR25      -0.2866
     31  N        -40.6400  -18.5760   -0.0620 N.3    68  GLY68      -0.1210
     32  CA       -41.9290  -19.1760    0.3550 C.3    68  GLY68       0.1956
     33  C        -42.9490  -19.2000   -0.7810 C.2    68  GLY68       0.2612
     34  O        -42.6070  -18.9310   -1.9270 O.2    68  GLY68      -0.2717
     35  N        -44.2120  -19.4870   -0.4670 N.am   69  GLY69      -0.1956
     36  CA       -45.2360  -19.6320   -1.5100 C.3    69  GLY69       0.1869
     37  C        -46.5190  -19.0110   -1.0300 C.2    69  GLY69       0.2309
     38  O        -47.5080  -19.7100   -0.7320 O.2    69  GLY69      -0.2863
     39  N        -33.4240  -32.1140   -1.2520 N.3   224  ARG224     -0.1245
     40  CA       -33.6640  -32.0470   -2.6740 C.3   224  ARG224      0.1563
     41  C        -32.3190  -32.1560   -3.3740 C.2   224  ARG224      0.2260
     42  O        -31.3000  -31.6860   -2.8600 O.2   224  ARG224     -0.2867
     43  CB       -34.4140  -30.7500   -3.0660 C.3   224  ARG224      0.0307
     44  CG       -35.8350  -30.6310   -2.4740 C.3   224  ARG224      0.0489
     45  CD       -36.7980  -31.6940   -2.9660 C.3   224  ARG224      0.2205
     46  NE       -38.1040  -31.4780   -2.3840 N.pl3 224  ARG224     -0.0865
     47  CZ       -38.5710  -32.0540   -1.2700 C.cat 224  ARG224      0.5346
     48  NH1      -37.8650  -32.9360   -0.5480 N.pl3 224  ARG224      0.1354
     49  NH2      -39.7830  -31.7530   -0.8630 N.pl3 224  ARG224      0.1354
     50  N        -40.8420  -32.2370    3.5710 N.3   278  SER278     -0.1202
     51  CA       -40.7710  -30.8430    3.0810 C.3   278  SER278      0.2020
     52  C        -39.3920  -30.5330    2.4530 C.2   278  SER278      0.2619
     53  O        -38.5000  -31.3570    2.5540 O.2   278  SER278     -0.2717
     54  CB       -41.1710  -29.9020    4.2420 C.3   278  SER278      0.2103
     55  OG       -40.3800  -28.7300    4.3150 O.3   278  SER278     -0.2182
     56  N        -39.2070  -29.3950    1.7900 N.am  279  ALA279     -0.1965
     57  CA       -37.8740  -29.0380    1.2890 C.3   279  ALA279      0.1728
     58  C        -37.0080  -28.5300    2.4340 C.2   279  ALA279      0.2616
     59  O        -35.8240  -28.3120    2.3070 O.2   279  ALA279     -0.2715
     60  CB       -37.9760  -27.9920    0.2110 C.3   279  ALA279      0.0334
     61  N        -37.6480  -28.3660    3.5690 N.am  280  PHE280     -0.1974
     62  CA       -37.0580  -27.7880    4.7660 C.3   280  PHE280      0.1639
     63  C        -36.7960  -28.8570    5.8420 C.2   280  PHE280      0.2290
     64  O        -37.7670  -29.4500    6.3390 O.2   280  PHE280     -0.2864
     65  CB       -38.0480  -26.8330    5.3640 C.3   280  PHE280      0.0560
     66  CG       -38.5130  -25.7850    4.4250 C.ar  280  PHE280     -0.0200
     67  CD1      -39.8700  -25.4560    4.3490 C.ar  280  PHE280     -0.0042
     68  CD2      -37.6260  -25.1110    3.6300 C.ar  280  PHE280     -0.0042
     69  CE1      -40.3100  -24.4700    3.4820 C.ar  280  PHE280     -0.0003
     70  CE2      -38.0480  -24.1310    2.7990 C.ar  280  PHE280     -0.0003
     71  CZ       -39.3960  -23.7990    2.6950 C.ar  280  PHE280     -0.0000
     72  N        -38.7400  -26.5420   10.5250 N.3   283  THR283     -0.1218
     73  CA       -39.4220  -25.2790   10.3250 C.3   283  THR283      0.1862
     74  C        -40.0160  -24.8140   11.6430 C.2   283  THR283      0.2287
     75  O        -40.4020  -25.6430   12.4590 O.2   283  THR283     -0.2866
     76  CB       -40.4590  -25.3010    9.1150 C.3   283  THR283      0.1770
     77  OG1      -41.7870  -24.9590    9.5570 O.3   283  THR283     -0.2211
     78  CG2      -40.4420  -26.5900    8.3190 C.3   283  THR283      0.0375
     79  N        -42.9030  -22.9730   13.5880 N.3   285  PHE285     -0.1241
     80  CA       -44.3130  -22.6100   13.4300 C.3   285  PHE285      0.1605
     81  C        -44.7540  -21.6540   14.5090 C.2   285  PHE285      0.2264
     82  O        -44.4120  -21.8220   15.6770 O.2   285  PHE285     -0.2867
     83  CB       -45.2040  -23.8580   13.4450 C.3   285  PHE285      0.0534
     84  CG       -45.0090  -24.7470   12.2500 C.ar  285  PHE285     -0.0203
     85  CD1      -45.5500  -24.3960   11.0320 C.ar  285  PHE285     -0.0042
     86  CD2      -44.3020  -25.9380   12.3530 C.ar  285  PHE285     -0.0042
     87  CE1      -45.4140  -25.2290    9.9010 C.ar  285  PHE285     -0.0003
     88  CE2      -44.1360  -26.7970   11.2110 C.ar  285  PHE285     -0.0003
     89  CZ       -44.6890  -26.4260    9.9910 C.ar  285  PHE285     -0.0000
@<TRIPOS>BOND
     1    41    42    2
     2    41    40    1
     3    43    40    1
     4    43    44    1
     5    45    44    1
     6    45    46    1
     7    40    39    1
     8    46    47    2
     9    34    33    2
    10    36    37    1
    11    36    35    1
    12    47    49    1
    13    47    48    1
    14    37    38    2
    15    33    35   am
    16    33    32    1
    17    16    18   ar
    18    16    14   ar
    19    18    17   ar
    20    31    32    1
    21    60    57    1
    22    14    13   ar
    23    17    15   ar
    24    57    56    1
    25    57    58    1
    26    13    15   ar
    27    13    12    1
    28    56    52   am
    29    59    58    2
    30    58    61   am
    31    52    53    2
    32    52    51    1
    33    12     9    1
    34    71    70   ar
    35    71    69   ar
    36    70    68   ar
    37    51    50    1
    38    51    54    1
    39    69    67   ar
    40    30    29    1
    41    61    62    1
    42     9    10    1
    43     9     8    1
    44    68    66   ar
    45    11    10    2
    46    54    55    1
    47    67    66   ar
    48    66    65    1
    49     8     3   am
    50    62    65    1
    51    62    63    1
    52    29    27   ar
    53    29    28   ar
    54    27    25   ar
    55     3     4    2
    56     3     2    1
    57    28    26   ar
    58    63    64    2
    59    25    24   ar
    60     2     1    1
    61     2     5    1
    62    26    24   ar
    63    24    23    1
    64     6     5    1
    65     5     7    1
    66    78    76    1
    67    22    21    2
    68    23    20    1
    69    76    77    1
    70    76    73    1
    71    21    20    1
    72    19    20    1
    73    87    89   ar
    74    87    85   ar
    75    89    88   ar
    76    73    72    1
    77    73    74    1
    78    85    84   ar
    79    88    86   ar
    80    74    75    2
    81    84    86   ar
    82    84    83    1
    83    80    83    1
    84    80    79    1
    85    80    81    1
    86    81    82    2
