@<TRIPOS>MOLECULE
tmp/4l8wE00.pdb
 106 104 0 0 0
SMALL
GASTEIGER

@<TRIPOS>ATOM
      1  N        -50.0310  -22.4100    4.5500 N.3    16  PHE16      -0.1241
      2  CA       -51.0660  -22.7270    3.5740 C.3    16  PHE16       0.1605
      3  C        -52.4040  -23.0880    4.1970 C.2    16  PHE16       0.2264
      4  O        -53.4190  -22.5540    3.7600 O.2    16  PHE16      -0.2867
      5  CB       -50.6970  -23.7870    2.5300 C.3    16  PHE16       0.0534
      6  CG       -51.8470  -24.0900    1.6000 C.ar   16  PHE16      -0.0203
      7  CD1      -52.3230  -23.0990    0.7140 C.ar   16  PHE16      -0.0042
      8  CD2      -52.5200  -25.3160    1.6610 C.ar   16  PHE16      -0.0042
      9  CE1      -53.4410  -23.3370   -0.1570 C.ar   16  PHE16      -0.0003
     10  CE2      -53.6500  -25.5730    0.8040 C.ar   16  PHE16      -0.0003
     11  CZ       -54.1000  -24.5770   -0.1070 C.ar   16  PHE16      -0.0000
     12  N        -37.6830  -16.6980    1.1510 N.3    67  GLY67      -0.1210
     13  CA       -38.5330  -17.4080    0.1940 C.3    67  GLY67       0.1956
     14  C        -39.8290  -17.9470    0.7860 C.2    67  GLY67       0.2612
     15  O        -40.0860  -17.7750    1.9880 O.2    67  GLY67      -0.2717
     16  N        -40.6400  -18.5760   -0.0620 N.am   68  GLY68      -0.1942
     17  CA       -41.9290  -19.1760    0.3550 C.3    68  GLY68       0.2014
     18  C        -42.9490  -19.2000   -0.7810 C.2    68  GLY68       0.2639
     19  O        -42.6070  -18.9310   -1.9270 O.2    68  GLY68      -0.2714
     20  N        -44.2120  -19.4870   -0.4670 N.am   69  GLY69      -0.1939
     21  CA       -45.2360  -19.6320   -1.5100 C.3    69  GLY69       0.2014
     22  C        -46.5190  -19.0110   -1.0300 C.2    69  GLY69       0.2639
     23  O        -47.5080  -19.7100   -0.7320 O.2    69  GLY69      -0.2714
     24  N        -46.4940  -17.7000   -0.9560 N.am   70  VAL70      -0.1963
     25  CA       -47.4930  -16.9410   -0.2900 C.3    70  VAL70       0.1727
     26  C        -47.6470  -15.7160   -1.1720 C.2    70  VAL70       0.2616
     27  O        -46.6890  -15.2710   -1.7730 O.2    70  VAL70      -0.2715
     28  CB       -46.9560  -16.6120    1.1070 C.3    70  VAL70       0.0290
     29  CG1      -46.5450  -15.1330    1.2810 C.3    70  VAL70       0.0023
     30  CG2      -47.9060  -17.0380    2.1530 C.3    70  VAL70       0.0023
     31  N        -48.8570  -15.1990   -1.2720 N.am   71  SER71      -0.1950
     32  CA       -49.1650  -14.0590   -2.1540 C.3    71  SER71       0.1924
     33  C        -48.2550  -12.8320   -1.9100 C.2    71  SER71       0.2314
     34  O        -48.0140  -12.4780   -0.7640 O.2    71  SER71      -0.2863
     35  CB       -50.6520  -13.6490   -2.0160 C.3    71  SER71       0.2116
     36  OG       -50.9380  -12.4520   -2.7330 O.3    71  SER71      -0.2180
     37  N        -35.3800  -15.1400   -2.9260 N.3   104  CYS104     -0.1221
     38  CA       -36.3970  -15.7570   -3.8010 C.3   104  CYS104      0.1808
     39  C        -37.7250  -15.0330   -3.8910 C.2   104  CYS104      0.2601
     40  O        -37.8390  -14.1140   -4.5970 O.2   104  CYS104     -0.2717
     41  CB       -36.6460  -17.2140   -3.4550 C.3   104  CYS104      0.0970
     42  SG       -37.1940  -18.2160   -4.6950 S.3   104  CYS104     -0.0800
     43  N        -38.7160  -15.4960   -3.1700 N.am  105  LEU105     -0.1979
     44  CA       -39.9710  -14.7980   -3.0190 C.3   105  LEU105      0.1596
     45  C        -39.7300  -13.4250   -2.4450 C.2   105  LEU105      0.2287
     46  O        -40.4900  -12.4880   -2.7430 O.2   105  LEU105     -0.2864
     47  CB       -40.9000  -15.5320   -2.0550 C.3   105  LEU105      0.0297
     48  CG       -42.2930  -14.8880   -2.0230 C.3   105  LEU105      0.0022
     49  CD1      -43.1810  -15.2480   -3.3380 C.3   105  LEU105      0.0001
     50  CD2      -43.0100  -15.2840   -0.7520 C.3   105  LEU105      0.0001
     51  N        -38.5750  -11.2340   -5.4170 N.3   108  GLU108     -0.1245
     52  CA       -39.7960  -10.8520   -6.1570 C.3   108  GLU108      0.1567
     53  C        -40.6030   -9.7940   -5.4410 C.2   108  GLU108      0.2260
     54  O        -41.0720   -8.8350   -6.0700 O.2   108  GLU108     -0.2867
     55  CB       -40.6640  -12.1030   -6.3990 C.3   108  GLU108      0.0388
     56  CG       -39.8910  -13.2300   -7.0700 C.3   108  GLU108      0.1160
     57  CD       -40.6390  -14.5530   -7.1120 C.2   108  GLU108      0.3649
     58  OE1      -40.1070  -15.5430   -7.6850 O.co2 108  GLU108     -0.2457
     59  OE2      -41.7650  -14.6020   -6.5920 O.co2 108  GLU108     -0.2457
     60  N        -35.0630  -22.5570   -7.0640 N.3   164  SER164     -0.1202
     61  CA       -36.2900  -23.3170   -6.9060 C.3   164  SER164      0.2020
     62  C        -37.4410  -22.3180   -6.9750 C.2   164  SER164      0.2619
     63  O        -38.1490  -22.0970   -6.0220 O.2   164  SER164     -0.2717
     64  CB       -36.2610  -24.1520   -5.6130 C.3   164  SER164      0.2103
     65  OG       -35.9670  -23.2760   -4.5490 O.3   164  SER164     -0.2182
     66  N        -37.5830  -21.6970   -8.1380 N.am  165  HIS165     -0.1961
     67  CA       -38.5710  -20.6560   -8.3270 C.3   165  HIS165      0.1787
     68  C        -39.2700  -20.8270   -9.6690 C.2   165  HIS165      0.2620
     69  O        -38.6270  -21.1650  -10.6300 O.2   165  HIS165     -0.2715
     70  CB       -37.9190  -19.2760   -8.2320 C.3   165  HIS165      0.0785
     71  CG       -36.8190  -19.0280   -9.2280 C.ar  165  HIS165      0.0821
     72  ND1      -36.9520  -18.1520  -10.2920 N.ar  165  HIS165     -0.2267
     73  CD2      -35.5480  -19.4910   -9.2870 C.ar  165  HIS165      0.1154
     74  CE1      -35.8150  -18.0980  -10.9730 C.ar  165  HIS165      0.1986
     75  NE2      -34.9450  -18.9100  -10.3910 N.ar  165  HIS165     -0.2212
     76  N        -40.5760  -20.6120   -9.7120 N.am  166  GLN166     -0.1963
     77  CA       -41.3600  -20.6910  -10.9160 C.3   166  GLN166      0.1733
     78  C        -41.4240  -19.3710  -11.6540 C.2   166  GLN166      0.2616
     79  O        -41.7720  -19.3790  -12.8550 O.2   166  GLN166     -0.2715
     80  CB       -42.8120  -21.0040  -10.5820 C.3   166  GLN166      0.0408
     81  CG       -43.1850  -22.4430  -10.4140 C.3   166  GLN166      0.0908
     82  CD       -44.7100  -22.6230  -10.5320 C.2   166  GLN166      0.2608
     83  OE1      -45.5190  -21.8840   -9.8850 O.2   166  GLN166     -0.2717
     84  NE2      -45.1230  -23.5980  -11.4020 N.am  166  GLN166     -0.0878
     85  N        -41.1920  -18.2520  -10.9470 N.am  167  TRP167     -0.1974
     86  CA       -41.3190  -16.8920  -11.5180 C.3   167  TRP167      0.1640
     87  C        -39.9700  -16.1790  -11.5220 C.2   167  TRP167      0.2290
     88  O        -39.1580  -16.4090  -10.6060 O.2   167  TRP167     -0.2864
     89  CB       -42.2900  -16.0320  -10.6880 C.3   167  TRP167      0.0576
     90  CG       -43.6970  -16.5730  -10.6420 C.ar  167  TRP167      0.0006
     91  CD1      -44.2760  -17.2360   -9.6050 C.ar  167  TRP167      0.0946
     92  CD2      -44.6930  -16.5210  -11.6960 C.ar  167  TRP167      0.0152
     93  NE1      -45.5810  -17.6030   -9.9360 N.ar  167  TRP167     -0.2442
     94  CE2      -45.8580  -17.1760  -11.2080 C.ar  167  TRP167      0.0810
     95  CE3      -44.7190  -15.9680  -12.9860 C.ar  167  TRP167      0.0012
     96  CZ2      -47.0380  -17.3140  -11.9740 C.ar  167  TRP167      0.0191
     97  CZ3      -45.9160  -16.1050  -13.7620 C.ar  167  TRP167      0.0001
     98  CH2      -47.0460  -16.7640  -13.2400 C.ar  167  TRP167      0.0015
     99  N        -31.4070  -19.1990   -3.7310 N.3   214  ASN214     -0.1240
    100  CA       -31.5300  -19.4010   -2.2660 C.3   214  ASN214      0.1653
    101  C        -30.1750  -19.7520   -1.6150 C.2   214  ASN214      0.2266
    102  O        -29.7570  -20.9040   -1.6430 O.2   214  ASN214     -0.2867
    103  CB       -32.5440  -20.5110   -1.9810 C.3   214  ASN214      0.1155
    104  CG       -33.9710  -20.0640   -2.1970 C.2   214  ASN214      0.2627
    105  OD1      -34.7180  -19.8540   -1.2520 O.2   214  ASN214     -0.2716
    106  ND2      -34.3330  -19.8540   -3.4210 N.am  214  ASN214     -0.0877
@<TRIPOS>BOND
     1    97    98   ar
     2    97    95   ar
     3    98    96   ar
     4    95    92   ar
     5    79    78    2
     6    96    94   ar
     7    92    94   ar
     8    92    90   ar
     9    78    85   am
    10    78    77    1
    11    87    86    1
    12    87    88    2
    13    86    85    1
    14    86    89    1
    15    84    82   am
    16    94    93   ar
    17    74    75   ar
    18    74    72   ar
    19    77    80    1
    20    77    76    1
    21    89    90    1
    22    90    91   ar
    23    69    68    2
    24    80    81    1
    25    82    81    1
    26    82    83    2
    27    75    73   ar
    28    72    71   ar
    29    93    91   ar
    30    76    68   am
    31    68    67    1
    32    73    71   ar
    33    71    70    1
    34    67    70    1
    35    67    66    1
    36    66    62   am
    37    58    57   ar
    38    57    56    1
    39    57    59   ar
    40    56    55    1
    41    60    61    1
    42    62    61    1
    43    62    63    2
    44    61    64    1
    45    55    52    1
    46    52    53    1
    47    52    51    1
    48    54    53    2
    49    64    65    1
    50    42    41    1
    51    40    39    2
    52    39    38    1
    53    39    43   am
    54    38    41    1
    55    38    37    1
    56    99   100    1
    57   106   104   am
    58    49    48    1
    59    43    44    1
    60    44    45    1
    61    44    47    1
    62    46    45    2
    63    36    35    1
    64   100   103    1
    65   100   101    1
    66   104   103    1
    67   104   105    2
    68    32    35    1
    69    32    33    1
    70    32    31    1
    71    47    48    1
    72    48    50    1
    73    19    18    2
    74    33    34    2
    75    27    26    2
    76   102   101    2
    77    21    22    1
    78    21    20    1
    79    31    26   am
    80    26    25    1
    81    22    24   am
    82    22    23    2
    83    24    25    1
    84    18    20   am
    85    18    17    1
    86    25    28    1
    87     9    11   ar
    88     9     7   ar
    89    11    10   ar
    90    16    17    1
    91    16    14   am
    92    13    14    1
    93    13    12    1
    94     7     6   ar
    95    14    15    2
    96    10     8   ar
    97    28    29    1
    98    28    30    1
    99     6     8   ar
   100     6     5    1
   101     5     2    1
   102     2     3    1
   103     2     1    1
   104     4     3    2
