@<TRIPOS>MOLECULE
tmp/4l8zA00.pdb
 180 170 0 0 0
SMALL
GASTEIGER

@<TRIPOS>ATOM
      1  N         -0.4050  -32.3170  -32.9550 N.3    32  LEU32      -0.1245
      2  CA        -0.8650  -31.7870  -31.6690 C.3    32  LEU32       0.1561
      3  C         -2.1730  -32.4240  -31.2050 C.2    32  LEU32       0.2260
      4  O         -2.3440  -32.7130  -30.0190 O.2    32  LEU32      -0.2867
      5  CB        -0.9940  -30.2710  -31.7300 C.3    32  LEU32       0.0270
      6  CG         0.3540  -29.5800  -31.9220 C.3    32  LEU32       0.0019
      7  CD1        0.1330  -28.0880  -32.0580 C.3    32  LEU32       0.0001
      8  CD2        1.3400  -29.8960  -30.7830 C.3    32  LEU32       0.0001
      9  N         -1.3150  -35.8470  -29.8370 N.3    35  ASN35      -0.1225
     10  CA        -0.7420  -35.7880  -28.4970 C.3    35  ASN35       0.1785
     11  C         -1.8250  -35.5360  -27.4420 C.2    35  ASN35       0.2597
     12  O         -1.7980  -36.1340  -26.3670 O.2    35  ASN35      -0.2718
     13  CB         0.3600  -34.7240  -28.4100 C.3    35  ASN35       0.1169
     14  CG         1.6370  -35.1440  -29.1250 C.2    35  ASN35       0.2627
     15  OD1        1.6590  -36.1490  -29.8480 O.2    35  ASN35      -0.2716
     16  ND2        2.7070  -34.3670  -28.9410 N.am   35  ASN35      -0.0877
     17  N         -2.7750  -34.6590  -27.7580 N.am   36  SER36      -0.1952
     18  CA        -3.8990  -34.3890  -26.8650 C.3    36  SER36       0.1924
     19  C         -4.7190  -35.6520  -26.6390 C.2    36  SER36       0.2314
     20  O         -5.1140  -35.9510  -25.5120 O.2    36  SER36      -0.2863
     21  CB        -4.8080  -33.2930  -27.4290 C.3    36  SER36       0.2116
     22  OG        -4.1670  -32.0260  -27.4050 O.3    36  SER36      -0.2180
     23  N         -3.6880  -38.7280  -26.7670 N.3    38  ASP38      -0.1225
     24  CA        -2.9110  -39.5730  -25.8570 C.3    38  ASP38       0.1805
     25  C         -3.0850  -39.1480  -24.4040 C.2    38  ASP38       0.2597
     26  O         -3.2430  -39.9900  -23.5230 O.2    38  ASP38      -0.2718
     27  CB        -1.4180  -39.5510  -26.2270 C.3    38  ASP38       0.1424
     28  CG        -1.1230  -40.2480  -27.5480 C.2    38  ASP38       0.3668
     29  OD1       -2.0060  -40.9590  -28.0730 O.co2  38  ASP38      -0.2456
     30  OD2        0.0080  -40.0840  -28.0620 O.co2  38  ASP38      -0.2456
     31  N         -3.0500  -37.8420  -24.1510 N.am   39  ALA39      -0.1979
     32  CA        -3.2050  -37.3080  -22.7960 C.3    39  ALA39       0.1597
     33  C         -4.5970  -37.6200  -22.2390 C.2    39  ALA39       0.2287
     34  O         -4.7680  -37.8790  -21.0390 O.2    39  ALA39      -0.2864
     35  CB        -2.9790  -35.8070  -22.7990 C.3    39  ALA39       0.0319
     36  N         -4.8690  -41.2160  -21.1450 N.3    42  LYS42      -0.1245
     37  CA        -4.2320  -41.4360  -19.8470 C.3    42  LYS42       0.1561
     38  C         -5.1720  -41.1380  -18.6840 C.2    42  LYS42       0.2260
     39  O         -5.2840  -41.9450  -17.7610 O.2    42  LYS42      -0.2867
     40  CB        -2.9520  -40.6090  -19.7080 C.3    42  LYS42       0.0271
     41  CG        -1.8220  -41.0450  -20.6410 C.3    42  LYS42       0.0035
     42  CD        -0.7180  -39.9890  -20.6720 C.3    42  LYS42       0.0206
     43  CE         0.2880  -40.2430  -21.7960 C.3    42  LYS42       0.1093
     44  NZ         1.2830  -41.2700  -21.3960 N.3    42  LYS42      -0.1314
     45  N         -6.7660  -29.3260  -24.4080 N.3    77  ASP77      -0.1239
     46  CA        -7.3670  -30.6090  -24.0420 C.3    77  ASP77       0.1674
     47  C         -7.5690  -30.7360  -22.5350 C.2    77  ASP77       0.2266
     48  O         -6.9360  -30.0370  -21.7420 O.2    77  ASP77      -0.2867
     49  CB        -6.5420  -31.7890  -24.5900 C.3    77  ASP77       0.1410
     50  CG        -5.1840  -31.9160  -23.9280 C.2    77  ASP77       0.3668
     51  OD1       -5.1250  -32.2790  -22.7300 O.co2  77  ASP77      -0.2456
     52  OD2       -4.1540  -31.6870  -24.6070 O.co2  77  ASP77      -0.2456
     53  N         -4.6830  -35.6860  -18.8980 N.3    80  ILE80      -0.1231
     54  CA        -4.0750  -35.8630  -17.5800 C.3    80  ILE80       0.1692
     55  C         -3.2240  -34.6740  -17.1220 C.2    80  ILE80       0.2593
     56  O         -3.0340  -34.4650  -15.9210 O.2    80  ILE80      -0.2718
     57  CB        -3.2680  -37.1830  -17.5250 C.3    80  ILE80       0.0266
     58  CG1       -2.9440  -37.5920  -16.0830 C.3    80  ILE80       0.0019
     59  CG2       -1.9910  -37.0860  -18.3720 C.3    80  ILE80       0.0020
     60  CD1       -2.4950  -39.0450  -15.9770 C.3    80  ILE80       0.0001
     61  N         -2.7070  -33.8890  -18.0660 N.am   81  GLY81      -0.1942
     62  CA        -1.8630  -32.7730  -17.6950 C.3    81  GLY81       0.2014
     63  C         -0.4370  -33.2100  -17.3790 C.2    81  GLY81       0.2638
     64  O         -0.1360  -34.4060  -17.3110 O.2    81  GLY81      -0.2714
     65  N          0.4420  -32.2360  -17.1730 N.am   82  MET82      -0.1976
     66  CA         1.8590  -32.5040  -16.9300 C.3    82  MET82       0.1605
     67  C          2.3160  -31.9210  -15.6070 C.2    82  MET82       0.2287
     68  O          1.9370  -30.8030  -15.2420 O.2    82  MET82      -0.2864
     69  CB         2.7090  -31.9190  -18.0580 C.3    82  MET82       0.0413
     70  CG         2.6340  -32.7250  -19.3510 C.3    82  MET82       0.0598
     71  SD         3.4850  -31.9540  -20.7360 S.3    82  MET82      -0.1393
     72  CE         2.5050  -30.4850  -20.9480 C.3    82  MET82       0.0692
     73  N          7.5240  -33.5300  -15.5420 N.3    86  ASP86      -0.1225
     74  CA         7.2190  -33.8260  -16.9440 C.3    86  ASP86       0.1805
     75  C          7.7560  -32.7100  -17.8480 C.2    86  ASP86       0.2597
     76  O          8.3950  -32.9690  -18.8690 O.2    86  ASP86      -0.2718
     77  CB         5.7110  -33.9280  -17.1660 C.3    86  ASP86       0.1424
     78  CG         5.1070  -35.2190  -16.6250 C.2    86  ASP86       0.3668
     79  OD1        5.8040  -36.2560  -16.5900 O.co2  86  ASP86      -0.2456
     80  OD2        3.9120  -35.1950  -16.2590 O.co2  86  ASP86      -0.2456
     81  N          7.4750  -31.4660  -17.4670 N.am   87  LEU87      -0.1979
     82  CA         7.8470  -30.3200  -18.2820 C.3    87  LEU87       0.1596
     83  C          9.3500  -30.1880  -18.4160 C.2    87  LEU87       0.2287
     84  O          9.8650  -29.9400  -19.5100 O.2    87  LEU87      -0.2864
     85  CB         7.2800  -29.0300  -17.6960 C.3    87  LEU87       0.0297
     86  CG         5.7730  -28.8450  -17.8110 C.3    87  LEU87       0.0022
     87  CD1        5.3760  -27.5700  -17.0810 C.3    87  LEU87       0.0001
     88  CD2        5.3590  -28.7690  -19.2920 C.3    87  LEU87       0.0001
     89  N         10.8290  -35.2120  -18.1130 N.3    90  ASN90      -0.1225
     90  CA        10.3010  -36.4710  -18.6410 C.3    90  ASN90       0.1785
     91  C          9.9480  -36.4790  -20.1170 C.2    90  ASN90       0.2597
     92  O         10.2750  -37.4370  -20.8040 O.2    90  ASN90      -0.2718
     93  CB         9.1090  -36.9660  -17.8180 C.3    90  ASN90       0.1169
     94  CG         9.4570  -37.1670  -16.3720 C.2    90  ASN90       0.2627
     95  OD1       10.6140  -37.4460  -16.0340 O.2    90  ASN90      -0.2716
     96  ND2        8.4580  -37.0220  -15.4930 N.am   90  ASN90      -0.0877
     97  N          9.2850  -35.4300  -20.5950 N.am   91  LEU91      -0.1980
     98  CA         8.8730  -35.3710  -21.9950 C.3    91  LEU91       0.1596
     99  C         10.1300  -35.3670  -22.8690 C.2    91  LEU91       0.2287
    100  O         10.1590  -35.9700  -23.9450 O.2    91  LEU91      -0.2864
    101  CB         8.0090  -34.1410  -22.2850 C.3    91  LEU91       0.0297
    102  CG         6.4790  -34.1910  -22.1790 C.3    91  LEU91       0.0022
    103  CD1        5.8740  -34.9280  -23.3410 C.3    91  LEU91       0.0001
    104  CD2        6.0050  -34.8070  -20.8670 C.3    91  LEU91       0.0001
    105  N         11.6630  -39.1310  -22.7330 N.3    94  ILE94      -0.1245
    106  CA        10.9140  -40.0580  -23.5930 C.3    94  ILE94       0.1561
    107  C         11.2030  -39.8080  -25.0760 C.2    94  ILE94       0.2260
    108  O         11.1970  -40.7390  -25.8800 O.2    94  ILE94      -0.2867
    109  CB         9.3780  -40.0200  -23.3170 C.3    94  ILE94       0.0252
    110  CG1        8.5740  -40.5910  -24.4790 C.3    94  ILE94       0.0019
    111  CG2        8.8800  -38.6310  -23.2100 C.3    94  ILE94       0.0019
    112  CD1        8.4970  -42.0790  -24.4930 C.3    94  ILE94       0.0001
    113  N          5.2970  -33.1360  -31.6310 N.3   122  PHE122     -0.1227
    114  CA         5.0430  -31.8540  -30.9760 C.3   122  PHE122      0.1736
    115  C          5.9000  -30.7540  -31.5870 C.2   122  PHE122      0.2595
    116  O          5.4230  -29.6440  -31.8010 O.2   122  PHE122     -0.2718
    117  CB         5.3210  -31.9370  -29.4710 C.3   122  PHE122      0.0547
    118  CG         5.3270  -30.5940  -28.7790 C.ar  122  PHE122     -0.0202
    119  CD1        4.1480  -30.0360  -28.3070 C.ar  122  PHE122     -0.0042
    120  CD2        6.5180  -29.8960  -28.5900 C.ar  122  PHE122     -0.0042
    121  CE1        4.1530  -28.8080  -27.6620 C.ar  122  PHE122     -0.0003
    122  CE2        6.5300  -28.6590  -27.9520 C.ar  122  PHE122     -0.0003
    123  CZ         5.3340  -28.1170  -27.4840 C.ar  122  PHE122     -0.0000
    124  N          7.1560  -31.0780  -31.8940 N.am  123  TYR123     -0.1976
    125  CA         8.0900  -30.0590  -32.3760 C.3   123  TYR123      0.1639
    126  C          7.7580  -29.5320  -33.7720 C.2   123  TYR123      0.2290
    127  O          8.2830  -28.5010  -34.1870 O.2   123  TYR123     -0.2864
    128  CB         9.5470  -30.5400  -32.2350 C.3   123  TYR123      0.0560
    129  CG         9.8400  -30.8500  -30.7830 C.ar  123  TYR123     -0.0198
    130  CD1       10.0860  -29.8300  -29.8700 C.ar  123  TYR123     -0.0009
    131  CD2        9.7790  -32.1520  -30.3040 C.ar  123  TYR123     -0.0009
    132  CE1       10.3100  -30.1100  -28.5190 C.ar  123  TYR123      0.0417
    133  CE2        9.9960  -32.4370  -28.9630 C.ar  123  TYR123      0.0417
    134  CZ        10.2600  -31.4140  -28.0780 C.ar  123  TYR123      0.1957
    135  OH        10.4780  -31.7050  -26.7460 O.3   123  TYR123     -0.2866
    136  N          2.8290  -23.2500  -23.3960 N.3   134  VAL134     -0.1245
    137  CA         1.9920  -24.3730  -22.9810 C.3   134  VAL134      0.1561
    138  C          1.6000  -24.1540  -21.5290 C.2   134  VAL134      0.2260
    139  O          2.4730  -23.9950  -20.6760 O.2   134  VAL134     -0.2867
    140  CB         2.7280  -25.7250  -23.1170 C.3   134  VAL134      0.0252
    141  CG1        1.8310  -26.8760  -22.6300 C.3   134  VAL134      0.0019
    142  CG2        3.1540  -25.9760  -24.5520 C.3   134  VAL134      0.0019
    143  N         -1.8660  -30.7570  -13.7790 N.3   138  HIS138     -0.1241
    144  CA        -2.0370  -32.1670  -13.4380 C.3   138  HIS138      0.1621
    145  C         -2.6840  -32.1990  -12.0560 C.2   138  HIS138      0.2264
    146  O         -2.4260  -31.3090  -11.2450 O.2   138  HIS138     -0.2867
    147  CB        -0.6620  -32.8340  -13.3700 C.3   138  HIS138      0.0745
    148  CG        -0.7030  -34.3150  -13.1130 C.ar  138  HIS138      0.0817
    149  ND1       -0.7750  -34.8460  -11.8500 N.ar  138  HIS138     -0.2268
    150  CD2       -0.6580  -35.3610  -13.9680 C.ar  138  HIS138      0.1154
    151  CE1       -0.7860  -36.1660  -11.9270 C.ar  138  HIS138      0.1986
    152  NE2       -0.7120  -36.5060  -13.2060 N.ar  138  HIS138     -0.2212
    153  N          4.9220  -23.2020  -19.6630 N.3   146  TRP146     -0.1241
    154  CA         6.1570  -23.5420  -20.3620 C.3   146  TRP146      0.1605
    155  C          6.1830  -22.6770  -21.6050 C.2   146  TRP146      0.2264
    156  O          5.1410  -22.4090  -22.2070 O.2   146  TRP146     -0.2867
    157  CB         6.0610  -25.0130  -20.7600 C.3   146  TRP146      0.0550
    158  CG         7.1660  -25.6210  -21.6170 C.ar  146  TRP146      0.0003
    159  CD1        8.1420  -26.4670  -21.1870 C.ar  146  TRP146      0.0946
    160  CD2        7.3410  -25.4980  -23.0490 C.ar  146  TRP146      0.0152
    161  NE1        8.9240  -26.8750  -22.2530 N.ar  146  TRP146     -0.2442
    162  CE2        8.4510  -26.2970  -23.3980 C.ar  146  TRP146      0.0810
    163  CE3        6.6700  -24.7980  -24.0600 C.ar  146  TRP146      0.0012
    164  CZ2        8.9100  -26.4020  -24.7180 C.ar  146  TRP146      0.0191
    165  CZ3        7.1310  -24.9040  -25.3740 C.ar  146  TRP146      0.0001
    166  CH2        8.2380  -25.7030  -25.6860 C.ar  146  TRP146      0.0015
    167  N         -4.0700  -29.5530  -20.7080 N.3   168  THR168     -0.1218
    168  CA        -2.9560  -28.8690  -21.3430 C.3   168  THR168      0.1862
    169  C         -3.4770  -28.0080  -22.4720 C.2   168  THR168      0.2287
    170  O         -4.3550  -28.4250  -23.2250 O.2   168  THR168     -0.2866
    171  CB        -1.9500  -29.8990  -21.8780 C.3   168  THR168      0.1770
    172  OG1       -1.2980  -30.5230  -20.7680 O.3   168  THR168     -0.2211
    173  CG2       -0.8970  -29.2450  -22.7830 C.3   168  THR168      0.0375
    174  N         -2.0040  -25.6570  -25.5910 N.3   170  VAL170     -0.1245
    175  CA        -0.8460  -25.3010  -26.4110 C.3   170  VAL170      0.1561
    176  C         -1.1990  -24.0700  -27.2430 C.2   170  VAL170      0.2260
    177  O         -2.1180  -24.1080  -28.0810 O.2   170  VAL170     -0.2867
    178  CB        -0.4270  -26.4670  -27.3410 C.3   170  VAL170      0.0252
    179  CG1        0.7530  -26.0580  -28.2200 C.3   170  VAL170      0.0019
    180  CG2       -0.0580  -27.7210  -26.5320 C.3   170  VAL170      0.0019
@<TRIPOS>BOND
     1   127   126    2
     2   126   125    1
     3     1     2    1
     4   125   128    1
     5   125   124    1
     6   128   129    1
     7     7     6    1
     8     6     5    1
     9     6     8    1
    10   124   115   am
    11   116   115    2
    12     5     2    1
    13     2     3    1
    14   113   114    1
    15   115   114    1
    16     3     4    2
    17   114   117    1
    18   129   131   ar
    19   129   130   ar
    20   131   133   ar
    21   130   132   ar
    22    15    14    2
    23     9    10    1
    24   117   118    1
    25    14    16   am
    26    14    13    1
    27   133   134   ar
    28   118   120   ar
    29   118   119   ar
    30   120   122   ar
    31   132   134   ar
    32    10    13    1
    33    10    11    1
    34   119   121   ar
    35   179   178    1
    36   177   176    2
    37   134   135    1
    38    29    28   ar
    39    30    28   ar
    40   122   123   ar
    41    17    11   am
    42    17    18    1
    43   121   123   ar
    44    28    27    1
    45    11    12    2
    46    21    22    1
    47    21    18    1
    48   178   180    1
    49   178   175    1
    50   176   175    1
    51    18    19    1
    52    23    24    1
    53    19    20    2
    54   175   174    1
    55    27    24    1
    56   108   107    2
    57    24    25    1
    58   166   165   ar
    59   166   164   ar
    60   165   163   ar
    61   107   106    1
    62   164   162   ar
    63    52    50   ar
    64    49    46    1
    65    49    50    1
    66   142   140    1
    67   112   110    1
    68   110   109    1
    69    45    46    1
    70    25    31   am
    71    25    26    2
    72    31    32    1
    73   163   160   ar
    74    46    47    1
    75   100    99    2
    76    50    51   ar
    77   106   109    1
    78   106   105    1
    79   162   160   ar
    80   162   161   ar
    81   136   137    1
    82   103   102    1
    83   109   111    1
    84   170   169    2
    85   140   137    1
    86   140   141    1
    87   160   158   ar
    88   137   138    1
    89    99    98    1
    90    35    32    1
    91    32    33    1
    92   173   171    1
    93    47    48    2
    94   169   168    1
    95   101   102    1
    96   101    98    1
    97   161   159   ar
    98    33    34    2
    99   156   155    2
   100   102   104    1
   101    98    97    1
   102   171   168    1
   103   171   172    1
   104    43    44    1
   105    43    42    1
   106   158   159   ar
   107   158   157    1
   108   155   154    1
   109   138   139    2
   110   168   167    1
   111    36    37    1
   112    72    71    1
   113    92    91    2
   114   157   154    1
   115    71    70    1
   116    42    41    1
   117    41    40    1
   118    97    91   am
   119   154   153    1
   120    91    90    1
   121    37    40    1
   122    37    38    1
   123    84    83    2
   124    70    69    1
   125    88    86    1
   126    53    54    1
   127    76    75    2
   128    38    39    2
   129    90    89    1
   130    90    93    1
   131    83    82    1
   132    59    57    1
   133    82    85    1
   134    82    81    1
   135    61    62    1
   136    61    55   am
   137    69    66    1
   138    75    81   am
   139    75    74    1
   140    93    94    1
   141    86    85    1
   142    86    87    1
   143    62    63    1
   144    54    57    1
   145    54    55    1
   146    57    58    1
   147    63    64    2
   148    63    65   am
   149    65    66    1
   150    77    74    1
   151    77    78    1
   152    55    56    2
   153    74    73    1
   154    66    67    1
   155    78    79   ar
   156    78    80   ar
   157    94    95    2
   158    94    96   am
   159    58    60    1
   160    67    68    2
   161   150   152   ar
   162   150   148   ar
   163   143   144    1
   164   144   147    1
   165   144   145    1
   166   147   148    1
   167   152   151   ar
   168   148   149   ar
   169   145   146    2
   170   151   149   ar
