@<TRIPOS>MOLECULE
tmp/4l90A00.pdb
 170 160 0 0 0
SMALL
GASTEIGER

@<TRIPOS>ATOM
      1  N         -0.3710   11.9150   16.0520 N.3    32  LEU32      -0.1245
      2  CA        -0.8070   12.4560   17.3510 C.3    32  LEU32       0.1561
      3  C         -2.1090   11.8130   17.8070 C.2    32  LEU32       0.2260
      4  O         -2.2820   11.5220   18.9950 O.2    32  LEU32      -0.2867
      5  CB        -0.9610   13.9790   17.3020 C.3    32  LEU32       0.0270
      6  CG         0.3480   14.7340   17.0880 C.3    32  LEU32       0.0019
      7  CD1        0.0810   16.2250   17.0150 C.3    32  LEU32       0.0001
      8  CD2        1.3480   14.4060   18.1990 C.3    32  LEU32       0.0001
      9  N         -1.2450    8.3560   19.1250 N.3    35  ASN35      -0.1225
     10  CA        -0.6930    8.4290   20.4790 C.3    35  ASN35       0.1785
     11  C         -1.7710    8.6650   21.5410 C.2    35  ASN35       0.2597
     12  O         -1.7500    8.0620   22.6180 O.2    35  ASN35      -0.2718
     13  CB         0.3870    9.5200   20.5700 C.3    35  ASN35       0.1169
     14  CG         1.7020    9.0980   19.9220 C.2    35  ASN35       0.2627
     15  OD1        1.7690    8.0890   19.2160 O.2    35  ASN35      -0.2716
     16  ND2        2.7520    9.8610   20.1740 N.am   35  ASN35      -0.0877
     17  N         -2.7160    9.5440   21.2380 N.am   36  SER36      -0.1952
     18  CA        -3.8280    9.7920   22.1490 C.3    36  SER36       0.1924
     19  C         -4.6260    8.5150   22.3580 C.2    36  SER36       0.2314
     20  O         -5.0060    8.1800   23.4840 O.2    36  SER36      -0.2863
     21  CB        -4.7460   10.8720   21.5820 C.3    36  SER36       0.2116
     22  OG        -4.0780   12.1250   21.5220 O.3    36  SER36      -0.2180
     23  N         -3.6540    5.4630   22.1690 N.3    38  ASP38      -0.1225
     24  CA        -2.8870    4.6120   23.0830 C.3    38  ASP38       0.1805
     25  C         -3.0360    5.0440   24.5470 C.2    38  ASP38       0.2597
     26  O         -3.1890    4.2070   25.4270 O.2    38  ASP38      -0.2718
     27  CB        -1.4080    4.5670   22.6990 C.3    38  ASP38       0.1424
     28  CG        -1.1680    3.8490   21.3790 C.2    38  ASP38       0.3668
     29  OD1       -2.1260    3.2510   20.8320 O.co2  38  ASP38      -0.2456
     30  OD2       -0.0160    3.8830   20.8930 O.co2  38  ASP38      -0.2456
     31  N         -2.9920    6.3440   24.8160 N.am   39  ALA39      -0.1979
     32  CA        -3.1490    6.8350   26.1950 C.3    39  ALA39       0.1597
     33  C         -4.5630    6.5630   26.7160 C.2    39  ALA39       0.2287
     34  O         -4.7700    6.3090   27.9070 O.2    39  ALA39      -0.2864
     35  CB        -2.8560    8.3160   26.2660 C.3    39  ALA39       0.0319
     36  N         -4.9210    2.9500   27.7600 N.3    42  LYS42      -0.1245
     37  CA        -4.3020    2.6310   29.0450 C.3    42  LYS42       0.1561
     38  C         -5.1980    2.9910   30.2290 C.2    42  LYS42       0.2260
     39  O         -5.3300    2.2000   31.1720 O.2    42  LYS42      -0.2867
     40  CB        -2.9220    3.2800   29.1910 C.3    42  LYS42       0.0271
     41  CG        -2.2140    2.8580   30.4540 C.3    42  LYS42       0.0035
     42  CD        -0.7260    3.2270   30.4570 C.3    42  LYS42       0.0206
     43  CE        -0.0190    2.5780   31.6540 C.3    42  LYS42       0.1093
     44  NZ         1.4630    2.7400   31.5870 N.3    42  LYS42      -0.1314
     45  N         -6.6900   14.8690   24.5630 N.3    77  ASP77      -0.1239
     46  CA        -7.2750   13.5700   24.9140 C.3    77  ASP77       0.1674
     47  C         -7.5380   13.4750   26.4100 C.2    77  ASP77       0.2266
     48  O         -6.9290   14.1920   27.1980 O.2    77  ASP77      -0.2867
     49  CB        -6.4200   12.3740   24.4110 C.3    77  ASP77       0.1410
     50  CG        -5.0750   12.2410   25.1330 C.2    77  ASP77       0.3668
     51  OD1       -5.0590   11.9400   26.3500 O.co2  77  ASP77      -0.2456
     52  OD2       -4.0080   12.3910   24.4830 O.co2  77  ASP77      -0.2456
     53  N         -4.6190    8.5430   30.0460 N.3    80  ILE80      -0.1231
     54  CA        -3.9950    8.3800   31.3590 C.3    80  ILE80       0.1692
     55  C         -3.1400    9.5670   31.8220 C.2    80  ILE80       0.2593
     56  O         -2.9250    9.7480   33.0240 O.2    80  ILE80      -0.2718
     57  CB        -3.1980    7.0570   31.4450 C.3    80  ILE80       0.0266
     58  CG1       -2.9400    6.6710   32.9090 C.3    80  ILE80       0.0019
     59  CG2       -1.8850    7.1410   30.6610 C.3    80  ILE80       0.0020
     60  CD1       -2.5050    5.2160   33.0940 C.3    80  ILE80       0.0001
     61  N         -2.6650   10.3840   30.8810 N.am   81  GLY81      -0.1942
     62  CA        -1.8440   11.5340   31.2310 C.3    81  GLY81       0.2014
     63  C         -0.4050   11.1370   31.5650 C.2    81  GLY81       0.2638
     64  O         -0.0720    9.9490   31.6020 O.2    81  GLY81      -0.2714
     65  N          0.4520   12.1250   31.8110 N.am   82  MET82      -0.1976
     66  CA         1.8700   11.8640   32.0710 C.3    82  MET82       0.1605
     67  C          2.3380   12.4390   33.4040 C.2    82  MET82       0.2287
     68  O          1.9480   13.5430   33.7870 O.2    82  MET82      -0.2864
     69  CB         2.7290   12.4430   30.9420 C.3    82  MET82       0.0413
     70  CG         2.7020   11.6100   29.6650 C.3    82  MET82       0.0598
     71  SD         3.5350   12.4280   28.2890 S.3    82  MET82      -0.1393
     72  CE         2.4380   13.8200   28.0090 C.3    82  MET82       0.0692
     73  N          7.6560   10.7550   33.4000 N.3    86  ASP86      -0.1225
     74  CA         7.3480   10.4800   31.9900 C.3    86  ASP86       0.1805
     75  C          7.9010   11.6070   31.1120 C.2    86  ASP86       0.2597
     76  O          8.5740   11.3620   30.1150 O.2    86  ASP86      -0.2718
     77  CB         5.8320   10.4080   31.7400 C.3    86  ASP86       0.1424
     78  CG         5.1950    9.1260   32.2360 C.2    86  ASP86       0.3668
     79  OD1        5.8760    8.0710   32.3050 O.co2  86  ASP86      -0.2456
     80  OD2        3.9790    9.1810   32.5400 O.co2  86  ASP86      -0.2456
     81  N          7.6010   12.8460   31.4870 N.am   87  LEU87      -0.1979
     82  CA         8.0030   14.0100   30.6920 C.3    87  LEU87       0.1596
     83  C          9.5180   14.1850   30.5990 C.2    87  LEU87       0.2287
     84  O         10.0580   14.5750   29.5660 O.2    87  LEU87      -0.2864
     85  CB         7.3850   15.2770   31.2710 C.3    87  LEU87       0.0297
     86  CG         5.8770   15.4080   31.1380 C.3    87  LEU87       0.0022
     87  CD1        5.4030   16.6700   31.8600 C.3    87  LEU87       0.0001
     88  CD2        5.5120   15.4610   29.6630 C.3    87  LEU87       0.0001
     89  N         11.0030    9.0540   30.9710 N.3    90  ASN90      -0.1225
     90  CA        10.4420    7.8280   30.3980 C.3    90  ASN90       0.1785
     91  C         10.1550    7.8360   28.9110 C.2    90  ASN90       0.2597
     92  O         10.4810    6.8660   28.2250 O.2    90  ASN90      -0.2718
     93  CB         9.1850    7.3880   31.1540 C.3    90  ASN90       0.1169
     94  CG         9.4380    7.1790   32.6150 C.2    90  ASN90       0.2627
     95  OD1       10.5790    6.9120   33.0230 O.2    90  ASN90      -0.2716
     96  ND2        8.3780    7.3010   33.4300 N.am   90  ASN90      -0.0877
     97  N          9.5260    8.8970   28.4140 N.am   91  LEU91      -0.1980
     98  CA         9.1750    8.9320   27.0000 C.3    91  LEU91       0.1596
     99  C         10.4410    8.9030   26.1650 C.2    91  LEU91       0.2287
    100  O         10.4670    8.3010   25.0930 O.2    91  LEU91      -0.2864
    101  CB         8.3220   10.1520   26.6420 C.3    91  LEU91       0.0297
    102  CG         6.8440   10.0430   27.0370 C.3    91  LEU91       0.0022
    103  CD1        5.9940   10.9240   26.1820 C.3    91  LEU91       0.0001
    104  CD2        6.3840    8.6270   26.8710 C.3    91  LEU91       0.0001
    105  N         12.0800    5.2270   26.2110 N.3    94  ILE94      -0.1245
    106  CA        11.2520    4.2890   25.4640 C.3    94  ILE94       0.1561
    107  C         11.3310    4.5670   23.9570 C.2    94  ILE94       0.2260
    108  O         11.0440    3.6920   23.1400 O.2    94  ILE94      -0.2867
    109  CB         9.7810    4.2960   25.9690 C.3    94  ILE94       0.0252
    110  CG1        9.0860    2.9730   25.6700 C.3    94  ILE94       0.0019
    111  CG2        8.9820    5.4190   25.3580 C.3    94  ILE94       0.0019
    112  CD1        9.0650    2.0210   26.8520 C.3    94  ILE94       0.0001
    113  N          5.3770   11.1650   17.3490 N.3   122  PHE122     -0.1227
    114  CA         5.1090   12.4460   18.0100 C.3   122  PHE122      0.1736
    115  C          5.9530   13.5390   17.3870 C.2   122  PHE122      0.2595
    116  O          5.4690   14.6330   17.1580 O.2   122  PHE122     -0.2718
    117  CB         5.4320   12.3730   19.5060 C.3   122  PHE122      0.0547
    118  CG         5.4070   13.7180   20.2040 C.ar  122  PHE122     -0.0202
    119  CD1        4.2080   14.2560   20.6560 C.ar  122  PHE122     -0.0042
    120  CD2        6.5820   14.4390   20.4130 C.ar  122  PHE122     -0.0042
    121  CE1        4.1810   15.4880   21.3030 C.ar  122  PHE122     -0.0003
    122  CE2        6.5580   15.6730   21.0550 C.ar  122  PHE122     -0.0003
    123  CZ         5.3510   16.1910   21.5020 C.ar  122  PHE122     -0.0000
    124  N          7.2190   13.2340   17.1040 N.am  123  TYR123     -0.1976
    125  CA         8.1410   14.2560   16.6100 C.3   123  TYR123      0.1639
    126  C          7.8180   14.7470   15.1970 C.2   123  TYR123      0.2290
    127  O          8.3400   15.7740   14.7680 O.2   123  TYR123     -0.2864
    128  CB         9.6090   13.8110   16.7990 C.3   123  TYR123      0.0560
    129  CG         9.8740   13.4620   18.2470 C.ar  123  TYR123     -0.0198
    130  CD1       10.1620   14.4530   19.1780 C.ar  123  TYR123     -0.0009
    131  CD2        9.7690   12.1470   18.6980 C.ar  123  TYR123     -0.0009
    132  CE1       10.3630   14.1390   20.5190 C.ar  123  TYR123      0.0417
    133  CE2        9.9690   11.8260   20.0290 C.ar  123  TYR123      0.0417
    134  CZ        10.2710   12.8260   20.9310 C.ar  123  TYR123      0.1957
    135  OH        10.4670   12.5050   22.2510 O.3   123  TYR123     -0.2866
    136  N          2.8100   21.0800   25.5710 N.3   134  VAL134     -0.1245
    137  CA         2.0100   19.9300   25.9790 C.3   134  VAL134      0.1561
    138  C          1.6080   20.1490   27.4340 C.2   134  VAL134      0.2260
    139  O          2.4630   20.3860   28.2900 O.2   134  VAL134     -0.2867
    140  CB         2.8120   18.6060   25.8470 C.3   134  VAL134      0.0252
    141  CG1        1.9920   17.4160   26.3470 C.3   134  VAL134      0.0019
    142  CG2        3.2350   18.3760   24.3950 C.3   134  VAL134      0.0019
    143  N          4.9590   21.1080   29.2810 N.3   146  TRP146     -0.1241
    144  CA         6.2030   20.7360   28.5960 C.3   146  TRP146      0.1605
    145  C          6.2290   21.6050   27.3560 C.2   146  TRP146      0.2264
    146  O          5.1750   21.8790   26.7680 O.2   146  TRP146     -0.2867
    147  CB         6.1250   19.2510   28.2040 C.3   146  TRP146      0.0550
    148  CG         7.2310   18.6460   27.3460 C.ar  146  TRP146      0.0003
    149  CD1        8.2250   17.7900   27.7720 C.ar  146  TRP146      0.0946
    150  CD2        7.4100   18.7760   25.9200 C.ar  146  TRP146      0.0152
    151  NE1        9.0170   17.4140   26.7060 N.ar  146  TRP146     -0.2442
    152  CE2        8.5380   18.0050   25.5600 C.ar  146  TRP146      0.0810
    153  CE3        6.7350   19.4860   24.9140 C.ar  146  TRP146      0.0012
    154  CZ2        9.0060   17.9150   24.2400 C.ar  146  TRP146      0.0191
    155  CZ3        7.2020   19.3970   23.5930 C.ar  146  TRP146      0.0001
    156  CH2        8.3230   18.6140   23.2750 C.ar  146  TRP146      0.0015
    157  N         -4.0110   14.6760   28.2920 N.3   168  THR168     -0.1218
    158  CA        -2.9070   15.3650   27.6430 C.3   168  THR168      0.1862
    159  C         -3.4290   16.2130   26.5100 C.2   168  THR168      0.2287
    160  O         -4.3170   15.7950   25.7620 O.2   168  THR168     -0.2866
    161  CB        -1.8820   14.3530   27.1260 C.3   168  THR168      0.1770
    162  OG1       -1.3020   13.6950   28.2480 O.3   168  THR168     -0.2211
    163  CG2       -0.7890   15.0450   26.3310 C.3   168  THR168      0.0375
    164  N         -2.0010   18.5730   23.3560 N.3   170  VAL170     -0.1245
    165  CA        -0.8370   18.9260   22.5520 C.3   170  VAL170      0.1561
    166  C         -1.1680   20.1730   21.7270 C.2   170  VAL170      0.2260
    167  O         -2.0920   20.1620   20.8940 O.2   170  VAL170     -0.2867
    168  CB        -0.4000   17.7530   21.6270 C.3   170  VAL170      0.0252
    169  CG1        0.8200   18.1530   20.7720 C.3   170  VAL170      0.0019
    170  CG2       -0.0780   16.4980   22.4540 C.3   170  VAL170      0.0019
@<TRIPOS>BOND
     1   127   126    2
     2   126   125    1
     3     1     2    1
     4   125   128    1
     5   125   124    1
     6   128   129    1
     7     7     6    1
     8     6     5    1
     9     6     8    1
    10   124   115   am
    11   116   115    2
    12     5     2    1
    13   113   114    1
    14     2     3    1
    15   115   114    1
    16     3     4    2
    17   114   117    1
    18   129   131   ar
    19   129   130   ar
    20   131   133   ar
    21     9    10    1
    22   130   132   ar
    23    15    14    2
    24   117   118    1
    25    14    16   am
    26    14    13    1
    27   133   134   ar
    28   118   120   ar
    29   118   119   ar
    30   120   122   ar
    31    10    13    1
    32    10    11    1
    33   132   134   ar
    34   119   121   ar
    35   169   168    1
    36    29    28   ar
    37    30    28   ar
    38   167   166    2
    39   134   135    1
    40   122   123   ar
    41    17    11   am
    42    17    18    1
    43   121   123   ar
    44    28    27    1
    45    22    21    1
    46    11    12    2
    47    21    18    1
    48   168   170    1
    49   168   165    1
    50   166   165    1
    51    18    19    1
    52    23    24    1
    53    19    20    2
    54   165   164    1
    55    27    24    1
    56    24    25    1
    57   108   107    2
    58   156   155   ar
    59   156   154   ar
    60   155   153   ar
    61   107   106    1
    62   154   152   ar
    63   142   140    1
    64    49    46    1
    65    49    50    1
    66    52    50   ar
    67    25    31   am
    68    25    26    2
    69    45    46    1
    70    31    32    1
    71   153   150   ar
    72    46    47    1
    73   100    99    2
    74    50    51   ar
    75   111   109    1
    76   106   109    1
    77   106   105    1
    78   152   150   ar
    79   152   151   ar
    80   136   137    1
    81   110   109    1
    82   110   112    1
    83   160   159    2
    84   140   137    1
    85   140   141    1
    86   150   148   ar
    87   137   138    1
    88    99    98    1
    89   103   102    1
    90    32    35    1
    91    32    33    1
    92   163   161    1
    93    47    48    2
    94   159   158    1
    95   101    98    1
    96   101   102    1
    97   151   149   ar
    98    33    34    2
    99   146   145    2
   100   104   102    1
   101    98    97    1
   102   161   158    1
   103   161   162    1
   104   148   149   ar
   105   148   147    1
   106   145   144    1
   107   138   139    2
   108   158   157    1
   109    36    37    1
   110    72    71    1
   111   147   144    1
   112    92    91    2
   113    71    70    1
   114    97    91   am
   115   144   143    1
   116    91    90    1
   117    37    40    1
   118    37    38    1
   119    40    41    1
   120    84    83    2
   121    88    86    1
   122    70    69    1
   123    53    54    1
   124    76    75    2
   125    38    39    2
   126    90    89    1
   127    90    93    1
   128    41    42    1
   129    42    43    1
   130    83    82    1
   131    59    57    1
   132    82    85    1
   133    82    81    1
   134    61    62    1
   135    61    55   am
   136    69    66    1
   137    75    81   am
   138    75    74    1
   139    86    85    1
   140    86    87    1
   141    93    94    1
   142    62    63    1
   143    54    57    1
   144    54    55    1
   145    57    58    1
   146    63    64    2
   147    63    65   am
   148    44    43    1
   149    77    74    1
   150    77    78    1
   151    65    66    1
   152    55    56    2
   153    74    73    1
   154    66    67    1
   155    78    79   ar
   156    78    80   ar
   157    94    95    2
   158    94    96   am
   159    58    60    1
   160    67    68    2
