@<TRIPOS>MOLECULE
tmp/4l91A00.pdb
 129 121 0 0 0
SMALL
GASTEIGER

@<TRIPOS>ATOM
      1  N        -34.2240   11.5910   16.1260 N.3    32  LEU32      -0.1245
      2  CA       -34.7360   12.1280   17.3730 C.3    32  LEU32       0.1561
      3  C        -36.0190   11.4130   17.7810 C.2    32  LEU32       0.2260
      4  O        -36.2280   11.1220   18.9650 O.2    32  LEU32      -0.2867
      5  CB       -34.9600   13.6420   17.2740 C.3    32  LEU32       0.0270
      6  CG       -33.6640   14.4340   17.0860 C.3    32  LEU32       0.0019
      7  CD1      -33.9870   15.9100   16.9220 C.3    32  LEU32       0.0001
      8  CD2      -32.7550   14.2360   18.2910 C.3    32  LEU32       0.0001
      9  N        -35.0180    8.0880   19.1790 N.3    35  ASN35      -0.1225
     10  CA       -34.5500    8.2180   20.5590 C.3    35  ASN35       0.1785
     11  C        -35.7100    8.3990   21.5420 C.2    35  ASN35       0.2597
     12  O        -35.7140    7.8150   22.6290 O.2    35  ASN35      -0.2718
     13  CB       -33.5290    9.3590   20.6930 C.3    35  ASN35       0.1169
     14  CG       -32.1570    8.9940   20.1410 C.2    35  ASN35       0.2627
     15  OD1      -31.9880    7.9830   19.4590 O.2    35  ASN35      -0.2716
     16  ND2      -31.1690    9.8350   20.4220 N.am   35  ASN35      -0.0877
     17  N        -36.7090    9.1840   21.1490 N.am   36  SER36      -0.1952
     18  CA       -37.9040    9.3680   21.9680 C.3    36  SER36       0.1924
     19  C        -38.6370    8.0460   22.1710 C.2    36  SER36       0.2314
     20  O        -39.0240    7.7090   23.2830 O.2    36  SER36      -0.2863
     21  CB       -38.8510   10.3700   21.3270 C.3    36  SER36       0.2116
     22  OG       -38.3080   11.6830   21.3650 O.3    36  SER36      -0.2180
     23  N        -36.9220    5.9820   24.7090 N.3    39  ALA39      -0.1245
     24  CA       -37.1540    6.4860   26.0740 C.3    39  ALA39       0.1562
     25  C        -38.5410    6.1000   26.5750 C.2    39  ALA39       0.2260
     26  O        -38.7420    5.8290   27.7680 O.2    39  ALA39      -0.2867
     27  CB       -36.9860    7.9970   26.1110 C.3    39  ALA39       0.0290
     28  N        -41.2790   14.2560   24.2410 N.3    77  ASP77      -0.1239
     29  CA       -41.7690   12.9220   24.5900 C.3    77  ASP77       0.1674
     30  C        -42.0340   12.8040   26.0830 C.2    77  ASP77       0.2266
     31  O        -41.5240   13.5870   26.8840 O.2    77  ASP77      -0.2867
     32  CB       -40.8240   11.8020   24.1280 C.3    77  ASP77       0.1410
     33  CG       -39.5020   11.7950   24.8660 C.2    77  ASP77       0.3668
     34  OD1      -39.5000   11.5400   26.0950 O.co2  77  ASP77      -0.2456
     35  OD2      -38.4540   11.9980   24.2100 O.co2  77  ASP77      -0.2456
     36  N        -38.7600    8.1690   29.7260 N.3    80  ILE80      -0.1231
     37  CA       -38.1670    8.0250   31.0540 C.3    80  ILE80       0.1692
     38  C        -37.4490    9.2810   31.5580 C.2    80  ILE80       0.2593
     39  O        -37.2820    9.4710   32.7660 O.2    80  ILE80      -0.2718
     40  CB       -37.1920    6.8330   31.0730 C.3    80  ILE80       0.0266
     41  CG1      -36.8110    6.4820   32.5160 C.3    80  ILE80       0.0019
     42  CG2      -35.9640    7.1450   30.2240 C.3    80  ILE80       0.0020
     43  CD1      -36.6370    5.0040   32.7440 C.3    80  ILE80       0.0001
     44  N        -37.0080   10.1360   30.6430 N.am   81  GLY81      -0.1942
     45  CA       -36.2630   11.3150   31.0390 C.3    81  GLY81       0.2014
     46  C        -34.8210   11.0060   31.3840 C.2    81  GLY81       0.2638
     47  O        -34.3900    9.8470   31.3780 O.2    81  GLY81      -0.2714
     48  N        -34.0670   12.0490   31.6980 N.am   82  MET82      -0.1976
     49  CA       -32.6390   11.8830   31.9950 C.3    82  MET82       0.1605
     50  C        -32.2540   12.4880   33.3360 C.2    82  MET82       0.2287
     51  O        -32.7330   13.5620   33.7080 O.2    82  MET82      -0.2864
     52  CB       -31.7890   12.5260   30.9090 C.3    82  MET82       0.0413
     53  CG       -31.7340   11.7350   29.6070 C.3    82  MET82       0.0598
     54  SD       -31.0030   12.6450   28.2400 S.3    82  MET82      -0.1393
     55  CE       -32.2780   13.8760   27.9500 C.3    82  MET82       0.0692
     56  N        -26.9480   13.3430   31.7140 N.3    87  LEU87      -0.1245
     57  CA       -26.6550   14.5160   30.8970 C.3    87  LEU87       0.1561
     58  C        -25.1740   14.8250   30.8550 C.2    87  LEU87       0.2260
     59  O        -24.6400   15.2020   29.8220 O.2    87  LEU87      -0.2867
     60  CB       -27.3960   15.7480   31.4280 C.3    87  LEU87       0.0270
     61  CG       -28.9070   15.7660   31.2670 C.3    87  LEU87       0.0019
     62  CD1      -29.4910   16.9920   31.9430 C.3    87  LEU87       0.0001
     63  CD2      -29.2910   15.7600   29.7870 C.3    87  LEU87       0.0001
     64  N        -24.4830    9.5180   28.9100 N.3    91  LEU91      -0.1245
     65  CA       -24.8420    9.4230   27.5010 C.3    91  LEU91       0.1561
     66  C        -23.6260    9.6540   26.6120 C.2    91  LEU91       0.2260
     67  O        -23.5220    9.0760   25.5310 O.2    91  LEU91      -0.2867
     68  CB       -25.9810   10.3750   27.1550 C.3    91  LEU91       0.0270
     69  CG       -27.2660   10.0930   27.9400 C.3    91  LEU91       0.0019
     70  CD1      -28.4270   10.7320   27.2610 C.3    91  LEU91       0.0001
     71  CD2      -27.5080    8.5930   28.1200 C.3    91  LEU91       0.0001
     72  N        -28.5790   11.2530   17.9180 N.3   122  PHE122     -0.1227
     73  CA       -28.9630   12.5230   18.5180 C.3   122  PHE122      0.1736
     74  C        -28.1850   13.6690   17.8840 C.2   122  PHE122      0.2595
     75  O        -28.7230   14.7480   17.6430 O.2   122  PHE122     -0.2718
     76  CB       -28.7050   12.5020   20.0230 C.3   122  PHE122      0.0547
     77  CG       -28.8410   13.8510   20.6650 C.ar  122  PHE122     -0.0202
     78  CD1      -30.0790   14.3240   21.0620 C.ar  122  PHE122     -0.0042
     79  CD2      -27.7310   14.6510   20.8490 C.ar  122  PHE122     -0.0042
     80  CE1      -30.2000   15.5720   21.6570 C.ar  122  PHE122     -0.0003
     81  CE2      -27.8450   15.9160   21.4310 C.ar  122  PHE122     -0.0003
     82  CZ       -29.0810   16.3690   21.8330 C.ar  122  PHE122     -0.0000
     83  N        -26.9090   13.4330   17.6060 N.am  123  TYR123     -0.1976
     84  CA       -26.0420   14.5230   17.1640 C.3   123  TYR123      0.1639
     85  C        -26.3540   14.9780   15.7490 C.2   123  TYR123      0.2290
     86  O        -25.8960   16.0420   15.3180 O.2   123  TYR123     -0.2864
     87  CB       -24.5530   14.1720   17.3710 C.3   123  TYR123      0.0560
     88  CG       -24.2790   13.8880   18.8250 C.ar  123  TYR123     -0.0198
     89  CD1      -24.0150   14.9210   19.7200 C.ar  123  TYR123     -0.0009
     90  CD2      -24.3700   12.5960   19.3210 C.ar  123  TYR123     -0.0009
     91  CE1      -23.8070   14.6580   21.0770 C.ar  123  TYR123      0.0417
     92  CE2      -24.1690   12.3300   20.6620 C.ar  123  TYR123      0.0417
     93  CZ       -23.8900   13.3540   21.5280 C.ar  123  TYR123      0.1957
     94  OH       -23.6860   13.0530   22.8540 O.3   123  TYR123     -0.2866
     95  N        -32.1900   21.0820   25.5360 N.3   134  VAL134     -0.1245
     96  CA       -32.9320   19.8900   25.9290 C.3   134  VAL134      0.1561
     97  C        -33.4170   20.0390   27.3630 C.2   134  VAL134      0.2260
     98  O        -32.6210   20.1770   28.2850 O.2   134  VAL134     -0.2867
     99  CB       -32.0940   18.6060   25.8060 C.3   134  VAL134      0.0252
    100  CG1      -32.9340   17.4050   26.2650 C.3   134  VAL134      0.0019
    101  CG2      -31.6060   18.4090   24.3630 C.3   134  VAL134      0.0019
    102  N        -30.2450   21.2100   29.3920 N.3   146  TRP146     -0.1241
    103  CA       -28.9340   20.9750   28.7810 C.3   146  TRP146      0.1605
    104  C        -28.9360   21.8300   27.5430 C.2   146  TRP146      0.2264
    105  O        -29.9880   22.0230   26.9130 O.2   146  TRP146     -0.2867
    106  CB       -28.8570   19.4920   28.3850 C.3   146  TRP146      0.0550
    107  CG       -27.6630   19.0000   27.5980 C.ar  146  TRP146      0.0003
    108  CD1      -26.6110   18.2740   28.0830 C.ar  146  TRP146      0.0946
    109  CD2      -27.4450   19.1240   26.1830 C.ar  146  TRP146      0.0152
    110  NE1      -25.7500   17.9510   27.0630 N.ar  146  TRP146     -0.2442
    111  CE2      -26.2360   18.4600   25.8900 C.ar  146  TRP146      0.0810
    112  CE3      -28.1600   19.7250   25.1350 C.ar  146  TRP146      0.0012
    113  CZ2      -25.7190   18.3860   24.6010 C.ar  146  TRP146      0.0191
    114  CZ3      -27.6340   19.6570   23.8390 C.ar  146  TRP146      0.0001
    115  CH2      -26.4260   18.9900   23.5890 C.ar  146  TRP146      0.0015
    116  N        -38.7280   14.2660   28.0130 N.3   168  THR168     -0.1218
    117  CA       -37.6640   15.0480   27.4220 C.3   168  THR168      0.1862
    118  C        -38.2210   15.8850   26.2830 C.2   168  THR168      0.2287
    119  O        -39.0440   15.4290   25.4880 O.2   168  THR168     -0.2866
    120  CB       -36.5630   14.1310   26.9020 C.3   168  THR168      0.1770
    121  OG1      -36.0040   13.4250   28.0060 O.3   168  THR168     -0.2211
    122  CG2      -35.4550   14.9340   26.2110 C.3   168  THR168      0.0375
    123  N        -36.6720   18.1570   23.2400 N.3   170  VAL170     -0.1245
    124  CA       -35.5230   18.6000   22.4440 C.3   170  VAL170      0.1561
    125  C        -35.9160   19.7840   21.5950 C.2   170  VAL170      0.2260
    126  O        -36.7260   19.6680   20.6740 O.2   170  VAL170     -0.2867
    127  CB       -34.9740   17.4780   21.5380 C.3   170  VAL170      0.0252
    128  CG1      -33.8300   17.9930   20.6530 C.3   170  VAL170      0.0019
    129  CG2      -34.4740   16.3220   22.3790 C.3   170  VAL170      0.0019
@<TRIPOS>BOND
     1    86    85    2
     2    85    84    1
     3     1     2    1
     4     7     6    1
     5     6     5    1
     6     6     8    1
     7    84    87    1
     8    84    83    1
     9     5     2    1
    10    87    88    1
    11     2     3    1
    12    83    74   am
    13    75    74    2
    14     3     4    2
    15    74    73    1
    16    72    73    1
    17    73    76    1
    18    88    90   ar
    19    88    89   ar
    20     9    10    1
    21    90    92   ar
    22    15    14    2
    23    89    91   ar
    24    76    77    1
    25    14    16   am
    26    14    13    1
    27    10    13    1
    28    10    11    1
    29   128   127    1
    30    92    93   ar
    31    77    79   ar
    32    77    78   ar
    33   126   125    2
    34    79    81   ar
    35    78    80   ar
    36    91    93   ar
    37    17    11   am
    38    17    18    1
    39    21    22    1
    40    21    18    1
    41    81    82   ar
    42    93    94    1
    43   127   129    1
    44   127   124    1
    45    11    12    2
    46   125   124    1
    47    80    82   ar
    48    18    19    1
    49    19    20    2
    50   124   123    1
    51   115   114   ar
    52   115   113   ar
    53   114   112   ar
    54    32    29    1
    55    32    33    1
    56    35    33   ar
    57    28    29    1
    58   101    99    1
    59    29    30    1
    60   113   111   ar
    61    23    24    1
    62    33    34   ar
    63   112   109   ar
    64   119   118    2
    65    67    66    2
    66    95    96    1
    67    99    96    1
    68    99   100    1
    69   111   109   ar
    70   111   110   ar
    71    96    97    1
    72    24    27    1
    73    24    25    1
    74    30    31    2
    75   109   107   ar
    76   122   120    1
    77   118   117    1
    78    25    26    2
    79    66    65    1
    80   120   117    1
    81   120   121    1
    82   105   104    2
    83   110   108   ar
    84    68    65    1
    85    68    69    1
    86    70    69    1
    87    97    98    2
    88   117   116    1
    89    65    64    1
    90   104   103    1
    91   107   108   ar
    92   107   106    1
    93    69    71    1
    94    55    54    1
    95    54    53    1
    96   106   103    1
    97   103   102    1
    98    53    52    1
    99    36    37    1
   100    63    61    1
   101    59    58    2
   102    42    40    1
   103    44    45    1
   104    44    38   am
   105    58    57    1
   106    57    60    1
   107    57    56    1
   108    52    49    1
   109    45    46    1
   110    37    40    1
   111    37    38    1
   112    40    41    1
   113    61    60    1
   114    61    62    1
   115    47    46    2
   116    46    48   am
   117    38    39    2
   118    48    49    1
   119    49    50    1
   120    41    43    1
   121    50    51    2
