@<TRIPOS>MOLECULE
tmp/4l92B00.pdb
 105 97 0 0 0
SMALL
GASTEIGER

@<TRIPOS>ATOM
      1  N         -5.8610   18.6480  -23.6450 N.3   235  ARG235     -0.1245
      2  CA        -6.2080   18.6360  -25.0740 C.3   235  ARG235      0.1563
      3  C         -7.5860   18.0180  -25.2630 C.2   235  ARG235      0.2260
      4  O         -7.8620   16.9390  -24.7390 O.2   235  ARG235     -0.2867
      5  CB        -5.1340   17.9100  -25.9050 C.3   235  ARG235      0.0307
      6  CG        -3.7330   18.5330  -25.7610 C.3   235  ARG235      0.0489
      7  CD        -2.6200   17.6240  -26.2790 C.3   235  ARG235      0.2205
      8  NE        -2.5260   16.3650  -25.5230 N.pl3 235  ARG235     -0.0865
      9  CZ        -1.8270   15.3030  -25.9120 C.cat 235  ARG235      0.5346
     10  NH1       -1.1710   15.3150  -27.0670 N.pl3 235  ARG235      0.1354
     11  NH2       -1.8010   14.2090  -25.1640 N.pl3 235  ARG235      0.1354
     12  N         -9.2030   16.5100  -27.6100 N.3   237  LYS237     -0.1231
     13  CA        -9.1950   15.1790  -28.1990 C.3   237  LYS237      0.1693
     14  C         -8.9810   14.0970  -27.1190 C.2   237  LYS237      0.2592
     15  O         -9.5830   13.0300  -27.1950 O.2   237  LYS237     -0.2718
     16  CB        -8.0680   15.0940  -29.2570 C.3   237  LYS237      0.0285
     17  CG        -8.2390   13.9590  -30.2610 C.3   237  LYS237      0.0035
     18  CD        -7.0830   13.8840  -31.2410 C.3   237  LYS237      0.0206
     19  CE        -7.1690   12.6360  -32.0910 C.3   237  LYS237      0.1093
     20  NZ        -5.9540   12.4510  -32.9330 N.3   237  LYS237     -0.1314
     21  N         -8.1560   14.4020  -26.1050 N.am  238  PHE238     -0.1976
     22  CA        -7.7650   13.4340  -25.0830 C.3   238  PHE238      0.1639
     23  C         -8.3350   13.6690  -23.7010 C.2   238  PHE238      0.2290
     24  O         -8.2480   12.7740  -22.8630 O.2   238  PHE238     -0.2864
     25  CB        -6.2400   13.3350  -25.0430 C.3   238  PHE238      0.0560
     26  CG        -5.6420   13.0740  -26.4070 C.ar  238  PHE238     -0.0200
     27  CD1       -5.9000   11.8790  -27.0850 C.ar  238  PHE238     -0.0042
     28  CD2       -4.8010   14.0040  -27.0030 C.ar  238  PHE238     -0.0042
     29  CE1       -5.3460   11.6390  -28.3480 C.ar  238  PHE238     -0.0003
     30  CE2       -4.2310   13.7540  -28.2590 C.ar  238  PHE238     -0.0003
     31  CZ        -4.5060   12.5730  -28.9220 C.ar  238  PHE238     -0.0000
     32  N         -7.5260   10.5230  -21.2060 N.3   242  ASN242     -0.1240
     33  CA        -6.1320   10.4500  -20.7780 C.3   242  ASN242      0.1653
     34  C         -5.8000   11.1850  -19.5190 C.2   242  ASN242      0.2266
     35  O         -6.2420   12.3170  -19.2980 O.2   242  ASN242     -0.2867
     36  CB        -5.1810   10.9210  -21.9230 C.3   242  ASN242      0.1155
     37  CG        -5.2510   10.1150  -23.2110 C.2   242  ASN242      0.2627
     38  OD1       -6.1190    9.2610  -23.4250 O.2   242  ASN242     -0.2716
     39  ND2       -4.3290   10.3790  -24.1120 N.am  242  ASN242     -0.0877
     40  N          1.8840    6.4670  -23.1830 N.3   287  ASN287     -0.1240
     41  CA         2.4010    7.0910  -24.3980 C.3   287  ASN287      0.1653
     42  C          3.1720    8.3320  -23.9930 C.2   287  ASN287      0.2266
     43  O          2.6270    9.1730  -23.2790 O.2   287  ASN287     -0.2867
     44  CB         1.2490    7.4130  -25.3930 C.3   287  ASN287      0.1155
     45  CG         1.7270    7.9080  -26.7470 C.2   287  ASN287      0.2627
     46  OD1        2.3170    8.9800  -26.8680 O.2   287  ASN287     -0.2716
     47  ND2        1.4800    7.1450  -27.7970 N.am  287  ASN287     -0.0877
     48  N          5.0350   10.2370  -26.5280 N.3   289  SER289     -0.1202
     49  CA         5.4070   10.9540  -27.7660 C.3   289  SER289      0.2020
     50  C          5.3030   12.4790  -27.6110 C.2   289  SER289      0.2618
     51  O          6.1640   13.2040  -28.1150 O.2   289  SER289     -0.2717
     52  CB         4.5860   10.4700  -28.9520 C.3   289  SER289      0.2103
     53  OG         3.2110   10.7310  -28.7330 O.3   289  SER289     -0.2182
     54  N          4.2960   12.9650  -26.8590 N.am  290  ALA290     -0.1979
     55  CA         4.1650   14.4100  -26.6230 C.3   290  ALA290      0.1597
     56  C          4.9670   14.8500  -25.3870 C.2   290  ALA290      0.2287
     57  O          4.7500   14.3460  -24.2740 O.2   290  ALA290     -0.2864
     58  CB         2.7000   14.7900  -26.4640 C.3   290  ALA290      0.0319
     59  N          3.8050   17.7850  -21.2660 N.3   293  LEU293     -0.1245
     60  CA         2.4300   17.6490  -20.7760 C.3   293  LEU293      0.1561
     61  C          2.3930   17.8310  -19.2500 C.2   293  LEU293      0.2260
     62  O          1.3580   18.2320  -18.7170 O.2   293  LEU293     -0.2867
     63  CB         1.7710   16.3050  -21.1880 C.3   293  LEU293      0.0270
     64  CG         1.5600   16.0480  -22.6810 C.3   293  LEU293      0.0019
     65  CD1        0.8610   14.7190  -22.9070 C.3   293  LEU293      0.0001
     66  CD2        0.7650   17.1690  -23.3520 C.3   293  LEU293      0.0001
     67  N          1.7910   -0.9230  -24.0510 N.3   310  ARG310     -0.1245
     68  CA         0.4650   -1.5350  -23.9030 C.3   310  ARG310      0.1563
     69  C          0.5750   -2.7780  -23.0590 C.2   310  ARG310      0.2260
     70  O          1.5200   -3.5650  -23.2320 O.2   310  ARG310     -0.2867
     71  CB        -0.1730   -1.9150  -25.2580 C.3   310  ARG310      0.0307
     72  CG        -0.2960   -0.7860  -26.2690 C.3   310  ARG310      0.0489
     73  CD        -1.6430   -0.0310  -26.1900 C.3   310  ARG310      0.2205
     74  NE        -1.8000    1.0540  -27.1630 N.pl3 310  ARG310     -0.0865
     75  CZ        -1.1460    2.2170  -27.1600 C.cat 310  ARG310      0.5346
     76  NH1       -1.3920    3.1280  -28.0860 N.pl3 310  ARG310      0.1354
     77  NH2       -0.2050    2.4530  -26.2460 N.pl3 310  ARG310      0.1354
     78  N          1.2600   10.0470  -20.9230 N.3   339  ASN339     -0.1240
     79  CA        -0.1750    9.9180  -20.9750 C.3   339  ASN339      0.1653
     80  C         -0.4400    8.4820  -20.5300 C.2   339  ASN339      0.2266
     81  O          0.3380    7.5890  -20.8680 O.2   339  ASN339     -0.2867
     82  CB        -0.7110   10.0810  -22.3800 C.3   339  ASN339      0.1155
     83  CG        -1.3460   11.4110  -22.6240 C.2   339  ASN339      0.2627
     84  OD1       -1.7860   12.1390  -21.7070 O.2   339  ASN339     -0.2716
     85  ND2       -1.4030   11.7480  -23.8720 N.am  339  ASN339     -0.0877
     86  N         -3.8360    5.6780  -20.2120 N.3   341  PHE341     -0.1241
     87  CA        -5.2330    5.4710  -20.5780 C.3   341  PHE341      0.1605
     88  C         -5.5730    3.9850  -20.6490 C.2   341  PHE341      0.2264
     89  O         -4.6790    3.1330  -20.6330 O.2   341  PHE341     -0.2867
     90  CB        -5.5910    6.2180  -21.8990 C.3   341  PHE341      0.0534
     91  CG        -4.6590    5.9760  -23.0680 C.ar  341  PHE341     -0.0203
     92  CD1       -3.4500    6.6670  -23.1740 C.ar  341  PHE341     -0.0042
     93  CD2       -5.0130    5.1030  -24.0940 C.ar  341  PHE341     -0.0042
     94  CE1       -2.5930    6.4480  -24.2530 C.ar  341  PHE341     -0.0003
     95  CE2       -4.1610    4.9010  -25.1930 C.ar  341  PHE341     -0.0003
     96  CZ        -2.9590    5.5780  -25.2680 C.ar  341  PHE341     -0.0000
     97  N         -7.9060    0.9810  -22.7530 N.3   343  GLN343     -0.1245
     98  CA        -8.5310    0.6940  -24.0450 C.3   343  GLN343      0.1566
     99  C         -9.3080   -0.6160  -24.0570 C.2   343  GLN343      0.2260
    100  O         -8.8880   -1.5780  -23.4140 O.2   343  GLN343     -0.2867
    101  CB        -7.5050    0.7570  -25.2050 C.3   343  GLN343      0.0367
    102  CG        -6.8620    2.1440  -25.3840 C.3   343  GLN343      0.0905
    103  CD        -6.4670    2.4880  -26.8100 C.2   343  GLN343      0.2608
    104  OE1       -5.6270    1.8090  -27.4230 O.2   343  GLN343     -0.2717
    105  NE2       -6.9970    3.6180  -27.3420 N.am  343  GLN343     -0.0878
@<TRIPOS>BOND
     1    20    19    1
     2    19    18    1
     3    18    17    1
     4    17    16    1
     5    16    13    1
     6    52    53    1
     7    52    49    1
     8    31    29   ar
     9    31    30   ar
    10    29    27   ar
    11    30    28   ar
    12    13    12    1
    13    13    14    1
    14    51    50    2
    15    76    75    1
    16    47    45   am
    17    49    50    1
    18    49    48    1
    19    50    54   am
    20   104   103    2
    21   105   103   am
    22    15    14    2
    23    74    75    2
    24    74    73    1
    25    75    77    1
    26    14    21   am
    27    27    26   ar
    28    10     9    1
    29    28    26   ar
    30    46    45    2
    31    54    55    1
    32   103   102    1
    33    45    44    1
    34    55    58    1
    35    55    56    1
    36    26    25    1
    37     7     6    1
    38     7     8    1
    39    72    73    1
    40    72    71    1
    41    21    22    1
    42     9     8    2
    43     9    11    1
    44     5     6    1
    45     5     2    1
    46    44    41    1
    47    56    57    2
    48   102   101    1
    49    96    95   ar
    50    96    94   ar
    51     3     2    1
    52     3     4    2
    53    71    68    1
    54   101    98    1
    55    95    93   ar
    56    22    25    1
    57    22    23    1
    58     2     1    1
    59    41    42    1
    60    41    40    1
    61    94    92   ar
    62    39    37   am
    63    93    91   ar
    64    99    98    1
    65    99   100    2
    66    67    68    1
    67    98    97    1
    68    42    43    2
    69    68    69    1
    70    85    83   am
    71    23    24    2
    72    38    37    2
    73    66    64    1
    74    70    69    2
    75    37    36    1
    76    92    91   ar
    77    91    90    1
    78    65    64    1
    79    64    63    1
    80    83    82    1
    81    83    84    2
    82    82    79    1
    83    36    33    1
    84    90    87    1
    85    59    60    1
    86    32    33    1
    87    63    60    1
    88    79    78    1
    89    79    80    1
    90    81    80    2
    91    33    34    1
    92    60    61    1
    93    88    89    2
    94    88    87    1
    95    87    86    1
    96    34    35    2
    97    61    62    2
