@<TRIPOS>MOLECULE
tmp/4l93A00.pdb
 145 132 0 0 0
SMALL
GASTEIGER

@<TRIPOS>ATOM
      1  N          3.3120  -11.0720   -8.3880 N.3    32  LEU32      -0.1245
      2  CA         3.9670  -11.6350   -7.2470 C.3    32  LEU32       0.1561
      3  C          5.2380  -10.8630   -6.9190 C.2    32  LEU32       0.2260
      4  O          5.4840  -10.5590   -5.8060 O.2    32  LEU32      -0.2867
      5  CB         4.2730  -13.0960   -7.4670 C.3    32  LEU32       0.0270
      6  CG         3.0890  -14.0120   -7.6650 C.3    32  LEU32       0.0019
      7  CD1        3.5700  -15.4240   -7.8210 C.3    32  LEU32       0.0001
      8  CD2        2.0350  -13.8510   -6.6150 C.3    32  LEU32       0.0001
      9  N          4.2570   -7.6580   -5.2780 N.3    35  ASN35      -0.1225
     10  CA         3.9680   -7.8370   -3.8530 C.3    35  ASN35       0.1785
     11  C          5.2160   -7.9350   -3.0200 C.2    35  ASN35       0.2597
     12  O          5.3240   -7.3360   -2.0100 O.2    35  ASN35      -0.2718
     13  CB         3.1160   -9.0540   -3.6110 C.3    35  ASN35       0.1169
     14  CG         1.7110   -8.9010   -4.1170 C.2    35  ASN35       0.2627
     15  OD1        1.2650   -7.8530   -4.3760 O.2    35  ASN35      -0.2716
     16  ND2        1.0220   -9.9760   -4.2250 N.am   35  ASN35      -0.0877
     17  N          6.1490   -8.7190   -3.5030 N.am   36  SER36      -0.1952
     18  CA         7.4300   -8.8600   -2.8530 C.3    36  SER36       0.1924
     19  C          8.0860   -7.4890   -2.6610 C.2    36  SER36       0.2314
     20  O          8.4730   -7.1420   -1.6040 O.2    36  SER36      -0.2863
     21  CB         8.3330   -9.8040   -3.6350 C.3    36  SER36       0.2116
     22  OG         7.9000  -11.1170   -3.5650 O.3    36  SER36      -0.2180
     23  N          6.7750   -4.5600   -2.5670 N.3    38  ASP38      -0.1225
     24  CA         6.0480   -3.7770   -1.6110 C.3    38  ASP38       0.1805
     25  C          6.4340   -4.1450   -0.1930 C.2    38  ASP38       0.2597
     26  O          6.5760   -3.3320    0.6430 O.2    38  ASP38      -0.2718
     27  CB         4.5670   -3.9810   -1.7800 C.3    38  ASP38       0.1424
     28  CG         4.0320   -3.3540   -3.0190 C.2    38  ASP38       0.3668
     29  OD1        4.7780   -2.7450   -3.7680 O.co2  38  ASP38      -0.2456
     30  OD2        2.8580   -3.4880   -3.2590 O.co2  38  ASP38      -0.2456
     31  N          6.5350   -5.4370    0.0390 N.am   39  ALA39      -0.1979
     32  CA         6.8780   -5.9920    1.3070 C.3    39  ALA39       0.1597
     33  C          8.3090   -5.6540    1.6920 C.2    39  ALA39       0.2287
     34  O          8.6110   -5.4530    2.8360 O.2    39  ALA39      -0.2864
     35  CB         6.7230   -7.4310    1.2540 C.3    39  ALA39       0.0319
     36  N          8.3600   -2.0110    2.7430 N.3    42  LYS42      -0.1245
     37  CA         7.8820   -1.8880    4.0960 C.3    42  LYS42       0.1561
     38  C          8.9370   -2.1940    5.1770 C.2    42  LYS42       0.2260
     39  O          9.0940   -1.4500    6.0880 O.2    42  LYS42      -0.2867
     40  CB         6.6520   -2.7550    4.2520 C.3    42  LYS42       0.0271
     41  CG         6.1050   -2.7960    5.5720 C.3    42  LYS42       0.0035
     42  CD         5.3550   -1.5920    5.9080 C.3    42  LYS42       0.0206
     43  CE         4.8480   -1.7020    7.3000 C.3    42  LYS42       0.1093
     44  NZ         4.6970   -0.4310    7.9750 N.3    42  LYS42      -0.1314
     45  N          8.6240  -18.2190   -5.3610 N.3    75  ILE75      -0.1245
     46  CA         9.0470  -16.8230   -5.2660 C.3    75  ILE75       0.1561
     47  C          9.3090  -16.4950   -3.8010 C.2    75  ILE75       0.2260
     48  O          8.4240  -16.5190   -3.0290 O.2    75  ILE75      -0.2867
     49  CB         8.0000  -15.8990   -5.7870 C.3    75  ILE75       0.0252
     50  CG1        7.7130  -16.2280   -7.2310 C.3    75  ILE75       0.0019
     51  CG2        8.4150  -14.4850   -5.6410 C.3    75  ILE75       0.0019
     52  CD1        6.6110  -17.1860   -7.4240 C.3    75  ILE75       0.0001
     53  N         10.8640  -13.8460   -0.8920 N.3    77  ASP77      -0.1239
     54  CA        11.3630  -12.5340   -0.5690 C.3    77  ASP77       0.1674
     55  C         11.7450  -12.3900    0.9040 C.2    77  ASP77       0.2266
     56  O         11.3150  -13.1430    1.7110 O.2    77  ASP77      -0.2867
     57  CB        10.4050  -11.4440   -1.0290 C.3    77  ASP77       0.1410
     58  CG         9.1400  -11.3920   -0.2150 C.2    77  ASP77       0.3668
     59  OD1        9.2220  -11.1320    0.9780 O.co2  77  ASP77      -0.2456
     60  OD2        8.0930  -11.6050   -0.7880 O.co2  77  ASP77      -0.2456
     61  N          8.8420   -7.8320    4.7480 N.3    80  ILE80      -0.1231
     62  CA         8.4170   -7.6980    6.1050 C.3    80  ILE80       0.1692
     63  C          7.6730   -8.8950    6.6360 C.2    80  ILE80       0.2593
     64  O          7.6030   -9.0900    7.8070 O.2    80  ILE80      -0.2718
     65  CB         7.5730   -6.4730    6.3200 C.3    80  ILE80       0.0266
     66  CG1        7.5680   -6.1240    7.8020 C.3    80  ILE80       0.0019
     67  CG2        6.2220   -6.6500    5.7550 C.3    80  ILE80       0.0020
     68  CD1        6.9160   -4.9160    8.0980 C.3    80  ILE80       0.0001
     69  N          7.1230   -9.6860    5.7400 N.am   81  GLY81      -0.1942
     70  CA         6.3990  -10.8700    6.1150 C.3    81  GLY81       0.2014
     71  C          5.0200  -10.5810    6.6620 C.2    81  GLY81       0.2641
     72  O          4.6160   -9.4750    6.7120 O.2    81  GLY81      -0.2714
     73  N          4.2910  -11.6200    7.0550 N.am   82  MET82      -0.1931
     74  CA         2.9620  -11.4750    7.6190 C.3    82  MET82       0.1821
     75  C          2.7740  -12.2600    8.9220 C.2    82  MET82       0.2332
     76  O          3.1400  -13.3730    9.0190 O.2    82  MET82      -0.2860
     77  CB         1.8820  -11.9230    6.6380 C.2    82  MET82       0.0096
     78  CG         1.7900  -11.1870    5.3770 C.2    82  MET82       0.0285
     79  SD         0.6880  -11.8930    4.1590 S.3    82  MET82      -0.1125
     80  CE         1.6650  -13.0650    3.4150 C.3    82  MET82       0.0742
     81  N         -2.3650  -11.2580    9.7590 N.3    86  ASP86      -0.1239
     82  CA        -2.2340  -10.5710    8.4900 C.3    86  ASP86       0.1674
     83  C         -2.5090  -11.5740    7.4270 C.2    86  ASP86       0.2266
     84  O         -3.1240  -11.2970    6.4840 O.2    86  ASP86      -0.2867
     85  CB        -0.8040  -10.0880    8.2610 C.3    86  ASP86       0.1410
     86  CG        -0.3760   -9.0000    9.1970 C.2    86  ASP86       0.3668
     87  OD1       -1.2320   -8.3130    9.7060 O.co2  86  ASP86      -0.2456
     88  OD2        0.8320   -8.8510    9.4130 O.co2  86  ASP86      -0.2456
     89  N         -5.4910  -10.7280    5.0830 N.3    90  ASN90      -0.1225
     90  CA        -5.0730  -10.2900    3.7730 C.3    90  ASN90       0.1785
     91  C         -5.2910  -11.2520    2.6520 C.2    90  ASN90       0.2597
     92  O         -5.4130  -10.8480    1.5800 O.2    90  ASN90      -0.2718
     93  CB        -3.6030   -9.9460    3.7730 C.3    90  ASN90       0.1169
     94  CG        -3.3020   -8.6370    4.4080 C.2    90  ASN90       0.2627
     95  OD1       -4.1380   -7.9750    4.9570 O.2    90  ASN90      -0.2716
     96  ND2       -2.0580   -8.2570    4.3210 N.am   90  ASN90      -0.0877
     97  N         -5.3010  -12.5410    2.9030 N.am   91  LEU91      -0.1980
     98  CA        -5.5130  -13.4760    1.8140 C.3    91  LEU91       0.1596
     99  C         -6.9360  -14.0220    1.7920 C.2    91  LEU91       0.2287
    100  O         -7.4030  -14.5080    0.8120 O.2    91  LEU91      -0.2864
    101  CB        -4.5390  -14.6230    1.8660 C.3    91  LEU91       0.0297
    102  CG        -3.0890  -14.3030    1.5850 C.3    91  LEU91       0.0022
    103  CD1       -2.2310  -15.4440    1.4030 C.3    91  LEU91       0.0001
    104  CD2       -2.9410  -13.3370    0.5350 C.3    91  LEU91       0.0001
    105  N         -8.3390   -4.4030    2.3250 N.3    96  LYS96      -0.1245
    106  CA        -8.1320   -3.1200    1.6850 C.3    96  LYS96       0.1561
    107  C         -8.1290   -3.2180    0.1670 C.2    96  LYS96       0.2260
    108  O         -7.8490   -2.2680   -0.5040 O.2    96  LYS96      -0.2867
    109  CB        -6.8370   -2.4950    2.1730 C.3    96  LYS96       0.0271
    110  CG        -5.5810   -3.2830    1.8600 C.3    96  LYS96       0.0035
    111  CD        -4.3040   -2.6610    2.4190 C.3    96  LYS96       0.0206
    112  CE        -3.0980   -2.9300    1.5140 C.3    96  LYS96       0.1093
    113  NZ        -3.4380   -3.3120    0.1020 N.3    96  LYS96      -0.1314
    114  N         -2.3190  -10.9650   -6.1370 N.3   122  PHE122     -0.1241
    115  CA        -1.9050  -12.2670   -5.6610 C.3   122  PHE122      0.1605
    116  C         -2.7080  -13.3580   -6.3190 C.2   122  PHE122      0.2264
    117  O         -2.1910  -14.3580   -6.6580 O.2   122  PHE122     -0.2867
    118  CB        -2.1160  -12.4060   -4.1630 C.3   122  PHE122      0.0534
    119  CG        -2.0540  -13.8330   -3.6720 C.ar  122  PHE122     -0.0203
    120  CD1       -0.8730  -14.5230   -3.6620 C.ar  122  PHE122     -0.0042
    121  CD2       -3.1460  -14.4710   -3.2320 C.ar  122  PHE122     -0.0042
    122  CE1       -0.8300  -15.8210   -3.2250 C.ar  122  PHE122     -0.0003
    123  CE2       -3.0900  -15.7550   -2.8210 C.ar  122  PHE122     -0.0003
    124  CZ        -1.9580  -16.4170   -2.8220 C.ar  122  PHE122     -0.0000
    125  N          1.6920  -20.4520    0.7310 N.3   134  VAL134     -0.1245
    126  CA         2.3610  -19.2410    1.1560 C.3   134  VAL134      0.1561
    127  C          2.9460  -19.4480    2.5340 C.2   134  VAL134      0.2260
    128  O          2.2540  -19.6600    3.4580 O.2   134  VAL134     -0.2867
    129  CB         1.4260  -18.0600    1.1450 C.3   134  VAL134      0.0252
    130  CG1        2.0640  -16.8400    1.6940 C.3   134  VAL134      0.0019
    131  CG2        0.8790  -17.8410   -0.2210 C.3   134  VAL134      0.0019
    132  N          8.4100  -13.8060    2.9490 N.3   168  THR168     -0.1218
    133  CA         7.2960  -14.5520    2.4170 C.3   168  THR168      0.1862
    134  C          7.7500  -15.3890    1.2370 C.2   168  THR168      0.2287
    135  O          8.4440  -14.9430    0.4170 O.2   168  THR168     -0.2866
    136  CB         6.1410  -13.6410    2.0260 C.3   168  THR168      0.1770
    137  OG1        5.4910  -13.1690    3.1720 O.3   168  THR168     -0.2211
    138  CG2        5.1430  -14.3530    1.1480 C.3   168  THR168      0.0375
    139  N          6.1910  -17.8680   -1.7860 N.3   170  VAL170     -0.1245
    140  CA         4.9960  -18.2810   -2.4910 C.3   170  VAL170      0.1561
    141  C          5.3380  -19.4420   -3.4070 C.2   170  VAL170      0.2260
    142  O          6.0550  -19.3080   -4.3270 O.2   170  VAL170     -0.2867
    143  CB         4.4300  -17.1460   -3.3120 C.3   170  VAL170      0.0252
    144  CG1        3.2490  -17.5740   -4.1060 C.3   170  VAL170      0.0019
    145  CG2        4.1390  -16.0330   -2.4600 C.3   170  VAL170      0.0019
@<TRIPOS>BOND
     1     1     2    1
     2     7     6    1
     3     6     5    1
     4     6     8    1
     5     5     2    1
     6    52    50    1
     7     2     3    1
     8    50    49    1
     9     3     4    2
    10   117   116    2
    11   116   115    1
    12   114   115    1
    13    49    51    1
    14    49    46    1
    15   115   118    1
    16    45    46    1
    17     9    10    1
    18    46    47    1
    19    15    14    2
    20   142   141    2
    21    16    14   am
    22   118   119    1
    23    14    13    1
    24   144   143    1
    25    10    13    1
    26    10    11    1
    27    47    48    2
    28    29    28   ar
    29   119   120   ar
    30   119   121   ar
    31   120   122   ar
    32    21    22    1
    33    21    18    1
    34    17    11   am
    35    17    18    1
    36   141   140    1
    37   143   140    1
    38   143   145    1
    39    30    28   ar
    40   121   123   ar
    41   122   124   ar
    42    11    12    2
    43    28    27    1
    44    18    19    1
    45   124   123   ar
    46    19    20    2
    47    23    24    1
    48   140   139    1
    49    27    24    1
    50    24    25    1
    51    57    54    1
    52    57    58    1
    53    53    54    1
    54    60    58   ar
    55    54    55    1
    56   108   107    2
    57   131   129    1
    58    58    59   ar
    59    25    31   am
    60    25    26    2
    61    31    32    1
    62   113   112    1
    63   107   106    1
    64   135   134    2
    65   104   102    1
    66   125   126    1
    67   100    99    2
    68    55    56    2
    69   129   126    1
    70   129   130    1
    71   138   136    1
    72   126   127    1
    73   134   133    1
    74    35    32    1
    75    32    33    1
    76   103   102    1
    77   112   111    1
    78    92    91    2
    79   102   101    1
    80   106   109    1
    81   106   105    1
    82    33    34    2
    83    99    98    1
    84    98   101    1
    85    98    97    1
    86   110   109    1
    87   110   111    1
    88   136   133    1
    89   136   137    1
    90   133   132    1
    91   127   128    2
    92    91    97   am
    93    91    90    1
    94    36    37    1
    95    80    79    1
    96    90    93    1
    97    90    89    1
    98    93    94    1
    99    37    40    1
   100    37    38    1
   101    79    78    1
   102    40    41    1
   103    96    94   am
   104    94    95    2
   105    61    62    1
   106    38    39    2
   107    78    77    2
   108    41    42    1
   109    69    70    1
   110    69    63   am
   111    67    65    1
   112    42    43    1
   113    62    65    1
   114    62    63    1
   115    70    71    1
   116    65    66    1
   117    84    83    2
   118    63    64    2
   119    77    74    1
   120    71    72    2
   121    71    73   am
   122    73    74    1
   123    43    44    1
   124    83    82    1
   125    74    75    1
   126    66    68    1
   127    85    82    1
   128    85    86    1
   129    82    81    1
   130    75    76    2
   131    86    88   ar
   132    86    87   ar
