@<TRIPOS>MOLECULE
tmp/4l94A00.pdb
 124 114 0 0 0
SMALL
GASTEIGER

@<TRIPOS>ATOM
      1  N         -1.6150   11.5280   15.8980 N.3    32  LEU32      -0.1245
      2  CA        -2.2250   12.0260   17.1360 C.3    32  LEU32       0.1561
      3  C         -3.5250   11.2980   17.4800 C.2    32  LEU32       0.2260
      4  O         -3.7820   10.9980   18.6530 O.2    32  LEU32      -0.2867
      5  CB        -2.4250   13.5480   17.0860 C.3    32  LEU32       0.0270
      6  CG        -1.1110   14.3530   17.0370 C.3    32  LEU32       0.0019
      7  CD1       -1.4480   15.8390   16.8360 C.3    32  LEU32       0.0001
      8  CD2       -0.2420   14.1560   18.2920 C.3    32  LEU32       0.0001
      9  N         -2.5180    7.9320   18.9130 N.3    35  ASN35      -0.1225
     10  CA        -2.1360    8.0650   20.3090 C.3    35  ASN35       0.1785
     11  C         -3.3690    8.1680   21.2010 C.2    35  ASN35       0.2597
     12  O         -3.4340    7.5440   22.2570 O.2    35  ASN35      -0.2718
     13  CB        -1.2560    9.2970   20.5160 C.3    35  ASN35       0.1169
     14  CG         0.1240    9.1460   19.9080 C.2    35  ASN35       0.2627
     15  OD1        0.5300    8.0550   19.4980 O.2    35  ASN35      -0.2716
     16  ND2        0.8560   10.2490   19.8500 N.am   35  ASN35      -0.0877
     17  N         -4.3460    8.9540   20.7680 N.am   36  SER36      -0.1952
     18  CA        -5.5950    9.0930   21.5180 C.3    36  SER36       0.1924
     19  C         -6.2950    7.7320   21.6380 C.2    36  SER36       0.2314
     20  O         -6.7680    7.3530   22.7160 O.2    36  SER36      -0.2863
     21  CB        -6.5150   10.1240   20.8540 C.3    36  SER36       0.2116
     22  OG        -6.0130   11.4430   21.0580 O.3    36  SER36      -0.2180
     23  N         -4.9430    4.7800   21.5380 N.3    38  ASP38      -0.1225
     24  CA        -4.1740    3.9780   22.4820 C.3    38  ASP38       0.1805
     25  C         -4.5160    4.3410   23.9250 C.2    38  ASP38       0.2597
     26  O         -4.6860    3.4690   24.7620 O.2    38  ASP38      -0.2718
     27  CB        -2.6730    4.1560   22.2580 C.3    38  ASP38       0.1424
     28  CG        -2.1810    3.5050   20.9760 C.2    38  ASP38       0.3668
     29  OD1       -2.9280    2.7200   20.3530 O.co2  38  ASP38      -0.2456
     30  OD2       -1.0260    3.7820   20.5940 O.co2  38  ASP38      -0.2456
     31  N         -4.6180    5.6370   24.2070 N.am   39  ALA39      -0.1979
     32  CA        -4.9820    6.1080   25.5480 C.3    39  ALA39       0.1597
     33  C         -6.4100    5.6890   25.9670 C.2    39  ALA39       0.2287
     34  O         -6.6750    5.3860   27.1380 O.2    39  ALA39      -0.2864
     35  CB        -4.8160    7.6300   25.6290 C.3    39  ALA39       0.0319
     36  N         -6.5070    2.0550   26.8550 N.3    42  LYS42      -0.1245
     37  CA        -5.8910    1.7830   28.1560 C.3    42  LYS42       0.1561
     38  C         -6.8820    2.0090   29.3000 C.2    42  LYS42       0.2260
     39  O         -6.9690    1.2000   30.2320 O.2    42  LYS42      -0.2867
     40  CB        -4.6080    2.6120   28.3320 C.3    42  LYS42       0.0271
     41  CG        -3.4100    2.0390   27.5630 C.3    42  LYS42       0.0035
     42  CD        -3.8130    1.6590   26.1360 C.3    42  LYS42       0.0206
     43  CE        -2.7720    0.8680   25.3730 C.3    42  LYS42       0.1093
     44  NZ        -2.6920   -0.5350   25.8930 N.3    42  LYS42      -0.1314
     45  N         -9.0320   13.8710   23.7880 N.3    77  ASP77      -0.1239
     46  CA        -9.5540   12.5270   24.0340 C.3    77  ASP77       0.1674
     47  C         -9.8870   12.3520   25.5090 C.2    77  ASP77       0.2266
     48  O         -9.3990   13.0930   26.3650 O.2    77  ASP77      -0.2867
     49  CB        -8.5720   11.4410   23.5560 C.3    77  ASP77       0.1410
     50  CG        -7.2630   11.3990   24.3720 C.2    77  ASP77       0.3668
     51  OD1       -7.3150   11.0920   25.5850 O.co2  77  ASP77      -0.2456
     52  OD2       -6.1700   11.6490   23.7990 O.co2  77  ASP77      -0.2456
     53  N         -6.7920    7.6020   29.1410 N.3    80  ILE80      -0.1231
     54  CA        -6.2860    7.3950   30.5040 C.3    80  ILE80       0.1692
     55  C         -5.5550    8.6210   31.0620 C.2    80  ILE80       0.2593
     56  O         -5.4040    8.7760   32.2820 O.2    80  ILE80      -0.2718
     57  CB        -5.3810    6.1440   30.5650 C.3    80  ILE80       0.0266
     58  CG1       -5.0890    5.7650   32.0260 C.3    80  ILE80       0.0019
     59  CG2       -4.1130    6.3450   29.7240 C.3    80  ILE80       0.0020
     60  CD1       -4.7890    4.3150   32.2200 C.3    80  ILE80       0.0001
     61  N         -5.1200    9.5090   30.1750 N.am   81  GLY81      -0.1942
     62  CA        -4.3830   10.6760   30.6220 C.3    81  GLY81       0.2014
     63  C         -2.9700   10.3270   31.0460 C.2    81  GLY81       0.2638
     64  O         -2.5260    9.1770   30.9630 O.2    81  GLY81      -0.2714
     65  N         -2.2290   11.3400   31.4660 N.am   82  MET82      -0.1976
     66  CA        -0.8510   11.1260   31.8690 C.3    82  MET82       0.1605
     67  C         -0.5620   11.7700   33.2150 C.2    82  MET82       0.2287
     68  O         -1.0640   12.8520   33.5160 O.2    82  MET82      -0.2864
     69  CB         0.1040   11.7090   30.8250 C.3    82  MET82       0.0413
     70  CG         0.1410   10.9440   29.5030 C.3    82  MET82       0.0598
     71  SD         1.1640   11.7510   28.2450 S.3    82  MET82      -0.1393
     72  CE         0.0980   13.1240   27.8010 C.3    82  MET82       0.0692
     73  N          4.7750   10.7960   33.6860 N.3    86  ASP86      -0.1239
     74  CA         4.5680   10.4280   32.2820 C.3    86  ASP86       0.1674
     75  C          4.9550   11.5840   31.3680 C.2    86  ASP86       0.2266
     76  O          5.6820   11.4030   30.3900 O.2    86  ASP86      -0.2867
     77  CB         3.0980   10.0940   32.0120 C.3    86  ASP86       0.1410
     78  CG         2.6780    8.7440   32.5750 C.2    86  ASP86       0.3668
     79  OD1        3.5400    7.8500   32.7170 O.co2  86  ASP86      -0.2456
     80  OD2        1.4650    8.5770   32.8550 O.co2  86  ASP86      -0.2456
     81  N          6.1140   12.1440   27.3740 N.3    91  LEU91      -0.1231
     82  CA         4.6940   11.8780   27.1840 C.3    91  LEU91       0.1693
     83  C          4.3790   10.3850   27.1260 C.2    91  LEU91       0.2593
     84  O          3.6690    9.9220   26.2210 O.2    91  LEU91      -0.2718
     85  CB         4.1780   12.6030   25.9360 C.3    91  LEU91       0.0284
     86  CG         4.3180   14.1310   25.9570 C.3    91  LEU91       0.0019
     87  CD1        5.6280   14.5530   25.3290 C.3    91  LEU91       0.0001
     88  CD2        3.1400   14.7760   25.2290 C.3    91  LEU91       0.0001
     89  N          4.9090    9.6430   28.0950 N.am   92  GLY92      -0.1942
     90  CA         4.6030    8.2280   28.2430 C.3    92  GLY92       0.2014
     91  C          5.0970    7.3340   27.1140 C.2    92  GLY92       0.2639
     92  O          4.5360    6.2580   26.8770 O.2    92  GLY92      -0.2714
     93  N          6.1420    7.7680   26.4180 N.am   93  THR93      -0.1950
     94  CA         6.7030    6.9970   25.3110 C.3    93  THR93       0.1897
     95  C          8.0900    6.4880   25.6780 C.2    93  THR93       0.2313
     96  O          8.7180    6.9940   26.6110 O.2    93  THR93      -0.2863
     97  CB         6.8600    7.8490   24.0230 C.3    93  THR93       0.1794
     98  OG1        7.9090    8.8110   24.1980 O.3    93  THR93      -0.2208
     99  CG2        5.5630    8.5700   23.6780 C.3    93  THR93       0.0378
    100  N          3.9100   11.1320   18.3270 N.3   122  PHE122     -0.1241
    101  CA         3.5240   12.4370   18.8700 C.3   122  PHE122      0.1605
    102  C          4.3340   13.5850   18.2540 C.2   122  PHE122      0.2264
    103  O          3.7820   14.6430   17.9510 O.2   122  PHE122     -0.2867
    104  CB         3.6750   12.4720   20.3960 C.3   122  PHE122      0.0534
    105  CG         3.5870   13.8550   20.9700 C.ar  122  PHE122     -0.0203
    106  CD1        2.3570   14.4620   21.1460 C.ar  122  PHE122     -0.0042
    107  CD2        4.7420   14.5560   21.3110 C.ar  122  PHE122     -0.0042
    108  CE1        2.2660   15.7440   21.6600 C.ar  122  PHE122     -0.0003
    109  CE2        4.6570   15.8500   21.8300 C.ar  122  PHE122     -0.0003
    110  CZ         3.4170   16.4440   21.9950 C.ar  122  PHE122     -0.0000
    111  N         -6.5060   13.6120   27.5810 N.3   168  THR168     -0.1218
    112  CA        -5.4130   14.4350   27.0840 C.3   168  THR168      0.1862
    113  C         -5.9220   15.3480   25.9800 C.2   168  THR168      0.2287
    114  O         -6.7160   14.9350   25.1300 O.2   168  THR168     -0.2866
    115  CB        -4.2960   13.5150   26.5720 C.3   168  THR168      0.1770
    116  OG1       -3.7430   12.8130   27.6930 O.3   168  THR168     -0.2211
    117  CG2       -3.1800   14.2970   25.8440 C.3   168  THR168      0.0375
    118  N         -4.3550   17.8850   23.0690 N.3   170  VAL170     -0.1245
    119  CA        -3.1690   18.3550   22.3580 C.3   170  VAL170      0.1561
    120  C         -3.5490   19.5880   21.5570 C.2   170  VAL170      0.2260
    121  O         -4.3870   19.5160   20.6540 O.2   170  VAL170     -0.2867
    122  CB        -2.6070   17.2730   21.4090 C.3   170  VAL170      0.0252
    123  CG1       -1.4060   17.8220   20.6140 C.3   170  VAL170      0.0019
    124  CG2       -2.1950   16.0460   22.2120 C.3   170  VAL170      0.0019
@<TRIPOS>BOND
     1     1     2    1
     2     7     6    1
     3     6     5    1
     4     6     8    1
     5     5     2    1
     6     2     3    1
     7     3     4    2
     8   103   102    2
     9   102   101    1
    10   100   101    1
    11   101   104    1
    12     9    10    1
    13    15    14    2
    14    16    14   am
    15    14    13    1
    16    10    13    1
    17    10    11    1
    18    29    28   ar
    19   104   105    1
    20    30    28   ar
    21   123   122    1
    22   121   120    2
    23    17    11   am
    24    17    18    1
    25    21    22    1
    26    21    18    1
    27   105   106   ar
    28   105   107   ar
    29    28    27    1
    30   106   108   ar
    31    11    12    2
    32   107   109   ar
    33   122   124    1
    34   122   119    1
    35    18    19    1
    36    23    24    1
    37   120   119    1
    38    19    20    2
    39   108   110   ar
    40   109   110   ar
    41    27    24    1
    42   119   118    1
    43    24    25    1
    44    49    46    1
    45    49    50    1
    46    99    97    1
    47    45    46    1
    48    52    50   ar
    49    25    31   am
    50    25    26    2
    51    97    98    1
    52    97    94    1
    53    46    47    1
    54    31    32    1
    55    50    51   ar
    56   114   113    2
    57    88    86    1
    58    94    95    1
    59    94    93    1
    60    87    86    1
    61    43    44    1
    62    43    42    1
    63    47    48    2
    64    32    35    1
    65    32    33    1
    66    95    96    2
    67   117   115    1
    68    85    86    1
    69    85    82    1
    70    33    34    2
    71   113   112    1
    72    42    41    1
    73    84    83    2
    74    93    91   am
    75   115   112    1
    76   115   116    1
    77    36    37    1
    78    92    91    2
    79   112   111    1
    80    91    90    1
    81    83    82    1
    82    83    89   am
    83    82    81    1
    84    41    40    1
    85    72    71    1
    86    89    90    1
    87    37    40    1
    88    37    38    1
    89    71    70    1
    90    53    54    1
    91    38    39    2
    92    70    69    1
    93    59    57    1
    94    61    62    1
    95    61    55   am
    96    76    75    2
    97    54    57    1
    98    54    55    1
    99    57    58    1
   100    62    63    1
   101    69    66    1
   102    64    63    2
   103    63    65   am
   104    55    56    2
   105    75    74    1
   106    65    66    1
   107    66    67    1
   108    77    74    1
   109    77    78    1
   110    58    60    1
   111    74    73    1
   112    78    79   ar
   113    78    80   ar
   114    67    68    2
