@<TRIPOS>MOLECULE
tmp/4l98A00.pdb
 192 185 0 0 0
SMALL
GASTEIGER

@<TRIPOS>ATOM
      1  N         17.8830   36.2740   32.8530 N.3    46  ILE46      -0.1245
      2  CA        16.8310   36.2080   31.8650 C.3    46  ILE46       0.1561
      3  C         15.8200   35.1270   32.3130 C.2    46  ILE46       0.2260
      4  O         14.6510   35.4210   32.5050 O.2    46  ILE46      -0.2867
      5  CB        17.4190   35.9210   30.4410 C.3    46  ILE46       0.0252
      6  CG1       18.3010   37.0800   29.9550 C.3    46  ILE46       0.0019
      7  CG2       16.3240   35.6960   29.4080 C.3    46  ILE46       0.0019
      8  CD1       19.1450   36.7630   28.7250 C.3    46  ILE46       0.0001
      9  N         13.3520   35.6580   35.1550 N.3    49  PHE49      -0.1227
     10  CA        12.4360   36.7530   34.9200 C.3    49  PHE49       0.1736
     11  C         11.4450   36.4840   33.8200 C.2    49  PHE49       0.2595
     12  O         10.3170   36.9110   33.9270 O.2    49  PHE49      -0.2718
     13  CB        13.2280   38.0200   34.6530 C.3    49  PHE49       0.0547
     14  CG        13.8180   38.5900   35.9130 C.ar   49  PHE49      -0.0202
     15  CD1       14.1640   37.7510   36.9920 C.ar   49  PHE49      -0.0042
     16  CD2       14.0140   39.9420   36.0430 C.ar   49  PHE49      -0.0042
     17  CE1       14.6950   38.2630   38.1580 C.ar   49  PHE49      -0.0003
     18  CE2       14.5360   40.4560   37.2100 C.ar   49  PHE49      -0.0003
     19  CZ        14.8830   39.6210   38.2650 C.ar   49  PHE49      -0.0000
     20  N         11.8610   35.7820   32.7740 N.am   50  GLN50      -0.1979
     21  CA        10.8840   35.2860   31.7910 C.3    50  GLN50       0.1601
     22  C          9.8930   34.3660   32.4990 C.2    50  GLN50       0.2287
     23  O          8.6810   34.4460   32.2980 O.2    50  GLN50      -0.2864
     24  CB        11.5920   34.5980   30.6320 C.3    50  GLN50       0.0394
     25  CG        12.4630   35.5580   29.8400 C.3    50  GLN50       0.0908
     26  CD        11.6700   36.5500   28.9720 C.2    50  GLN50       0.2608
     27  OE1       10.4440   36.5040   28.9050 O.2    50  GLN50      -0.2717
     28  NE2       12.3910   37.4470   28.2800 N.am   50  GLN50      -0.0878
     29  N          8.8800   34.7000   35.5830 N.3    52  CYS52      -0.1221
     30  CA         7.8920   35.5980   36.2080 C.3    52  CYS52       0.1808
     31  C          6.8640   36.1440   35.2120 C.2    52  CYS52       0.2601
     32  O          5.7030   36.2790   35.5380 O.2    52  CYS52      -0.2717
     33  CB         8.5580   36.7760   36.8990 C.3    52  CYS52       0.0970
     34  SG         9.7020   36.3150   38.2250 S.3    52  CYS52      -0.0800
     35  N          7.3150   36.4900   34.0210 N.am   53  GLN53      -0.1979
     36  CA         6.4340   37.0360   33.0140 C.3    53  GLN53       0.1601
     37  C          5.3570   36.0050   32.6130 C.2    53  GLN53       0.2287
     38  O          4.1840   36.3490   32.5520 O.2    53  GLN53      -0.2864
     39  CB         7.2420   37.5090   31.8160 C.3    53  GLN53       0.0394
     40  CG         6.4310   38.2240   30.7710 C.3    53  GLN53       0.0908
     41  CD         5.7890   39.4740   31.3370 C.2    53  GLN53       0.2608
     42  OE1        6.4170   40.5380   31.3960 O.2    53  GLN53      -0.2717
     43  NE2        4.5500   39.3520   31.7580 N.am   53  GLN53      -0.0878
     44  N          4.3460   33.5270   34.4330 N.3    55  ARG55      -0.1231
     45  CA         3.5000   33.3410   35.5810 C.3    55  ARG55       0.1694
     46  C          2.4060   34.3990   35.6180 C.2    55  ARG55       0.2592
     47  O          1.2710   34.0900   35.9540 O.2    55  ARG55      -0.2718
     48  CB         4.3100   33.3690   36.8900 C.3    55  ARG55       0.0321
     49  CG         3.5490   32.7810   38.0840 C.3    55  ARG55       0.0489
     50  CD         3.0500   31.3770   37.7620 C.3    55  ARG55       0.2205
     51  NE         2.6650   30.5570   38.9020 N.pl3  55  ARG55      -0.0865
     52  CZ         2.4120   29.2460   38.8230 C.cat  55  ARG55       0.5346
     53  NH1        2.5030   28.5950   37.6610 N.pl3  55  ARG55       0.1354
     54  NH2        2.0600   28.5780   39.9170 N.pl3  55  ARG55       0.1354
     55  N          2.7520   35.6510   35.3250 N.am   56  SER56      -0.1952
     56  CA         1.7670   36.7230   35.3590 C.3    56  SER56       0.1924
     57  C          0.6530   36.4340   34.3650 C.2    56  SER56       0.2314
     58  O         -0.4870   36.6820   34.6500 O.2    56  SER56      -0.2863
     59  CB         2.3870   38.0830   35.1050 C.3    56  SER56       0.2116
     60  OG         3.1580   38.5250   36.2280 O.3    56  SER56      -0.2180
     61  N         -1.7850   42.2110   40.7750 N.3    90  HIS90      -0.1241
     62  CA        -0.4330   42.0940   41.2760 C.3    90  HIS90       0.1621
     63  C         -0.3790   42.0180   42.7860 C.2    90  HIS90       0.2264
     64  O          0.4410   41.3070   43.3460 O.2    90  HIS90      -0.2867
     65  CB         0.4940   43.1820   40.6930 C.3    90  HIS90       0.0745
     66  CG         0.9660   42.8430   39.3150 C.ar   90  HIS90       0.0817
     67  ND1        0.2410   43.1610   38.1880 N.ar   90  HIS90      -0.2268
     68  CD2        2.0180   42.1030   38.8890 C.ar   90  HIS90       0.1154
     69  CE1        0.8480   42.6630   37.1200 C.ar   90  HIS90       0.1986
     70  NE2        1.9370   42.0240   37.5170 N.ar   90  HIS90      -0.2212
     71  N         -1.0450   38.4500   43.3730 N.3    93  ILE93      -0.1231
     72  CA         0.0980   37.6320   43.0140 C.3    93  ILE93       0.1692
     73  C          1.0980   37.6260   44.1820 C.2    93  ILE93       0.2592
     74  O          1.5590   36.5830   44.5760 O.2    93  ILE93      -0.2718
     75  CB         0.7850   38.1490   41.7240 C.3    93  ILE93       0.0266
     76  CG1       -0.0910   37.8330   40.5010 C.3    93  ILE93       0.0019
     77  CG2        2.1460   37.4770   41.5490 C.3    93  ILE93       0.0020
     78  CD1        0.4200   38.4040   39.1880 C.3    93  ILE93       0.0001
     79  N          1.3980   38.7800   44.7620 N.am   94  TYR94      -0.1976
     80  CA         2.3570   38.8120   45.8460 C.3    94  TYR94       0.1639
     81  C          1.7860   38.1890   47.1360 C.2    94  TYR94       0.2290
     82  O          2.4990   37.5050   47.8930 O.2    94  TYR94      -0.2864
     83  CB         2.9000   40.2390   46.0490 C.3    94  TYR94       0.0560
     84  CG         3.5030   40.8060   44.7900 C.ar   94  TYR94      -0.0198
     85  CD1        4.3460   40.0370   43.9870 C.ar   94  TYR94      -0.0009
     86  CD2        3.2110   42.0840   44.3790 C.ar   94  TYR94      -0.0009
     87  CE1        4.8750   40.5400   42.8170 C.ar   94  TYR94       0.0417
     88  CE2        3.7130   42.5860   43.2000 C.ar   94  TYR94       0.0417
     89  CZ         4.5490   41.8210   42.4170 C.ar   94  TYR94       0.1957
     90  OH         5.0910   42.3380   41.2590 O.3    94  TYR94      -0.2866
     91  N          2.0520   34.4580   46.3820 N.3    97  LEU97      -0.1245
     92  CA         3.4580   34.1140   46.3810 C.3    97  LEU97       0.1561
     93  C          4.0110   33.8770   47.8190 C.2    97  LEU97       0.2260
     94  O          4.8320   32.9870   48.0560 O.2    97  LEU97      -0.2867
     95  CB         4.2230   35.2200   45.6540 C.3    97  LEU97       0.0270
     96  CG         5.7090   35.0100   45.3830 C.3    97  LEU97       0.0019
     97  CD1        5.9940   33.8110   44.4760 C.3    97  LEU97       0.0001
     98  CD2        6.2670   36.2950   44.7990 C.3    97  LEU97       0.0001
     99  N         15.2180   41.9680   42.8790 N.3   130  PHE130     -0.1227
    100  CA        13.8080   41.7000   42.5740 C.3   130  PHE130      0.1736
    101  C         13.0290   40.9870   43.6700 C.2   130  PHE130      0.2595
    102  O         12.0000   41.4720   44.1050 O.2   130  PHE130     -0.2718
    103  CB        13.6660   40.9930   41.2120 C.3   130  PHE130      0.0547
    104  CG        13.4540   41.9600   40.0990 C.ar  130  PHE130     -0.0202
    105  CD1       14.5360   42.5080   39.4490 C.ar  130  PHE130     -0.0042
    106  CD2       12.1920   42.4010   39.7730 C.ar  130  PHE130     -0.0042
    107  CE1       14.3670   43.4180   38.4320 C.ar  130  PHE130     -0.0003
    108  CE2       12.0080   43.3100   38.7420 C.ar  130  PHE130     -0.0003
    109  CZ        13.1040   43.8230   38.0760 C.ar  130  PHE130     -0.0000
    110  N         13.5090   39.8270   44.0890 N.am  131  MET131     -0.1979
    111  CA        12.7320   38.9690   44.9610 C.3   131  MET131      0.1605
    112  C         12.8270   39.3010   46.4700 C.2   131  MET131      0.2287
    113  O         11.8370   39.1670   47.1920 O.2   131  MET131     -0.2864
    114  CB        13.1140   37.5240   44.6850 C.3   131  MET131      0.0413
    115  CG        12.7290   37.0760   43.2830 C.3   131  MET131      0.0598
    116  SD        11.0170   37.4610   42.8420 S.3   131  MET131     -0.1393
    117  CE        10.1360   36.5750   44.1160 C.3   131  MET131      0.0692
    118  N         10.0170   40.8710   48.2800 N.3   134  LYS134     -0.1245
    119  CA         8.8820   39.9770   48.3490 C.3   134  LYS134      0.1561
    120  C          9.0840   38.9880   49.4980 C.2   134  LYS134      0.2260
    121  O          8.1340   38.6430   50.1960 O.2   134  LYS134     -0.2867
    122  CB         8.6430   39.2480   47.0240 C.3   134  LYS134      0.0271
    123  CG         8.0800   40.1420   45.9080 C.3   134  LYS134      0.0035
    124  CD         9.1580   40.9290   45.2000 C.3   134  LYS134      0.0206
    125  CE         8.6180   41.6280   43.9210 C.3   134  LYS134      0.1093
    126  NZ         9.4290   42.8450   43.6210 N.3   134  LYS134     -0.1314
    127  N          8.1150   47.3090   42.7940 N.3   216  HIS216     -0.1241
    128  CA         8.4280   46.3740   41.7120 C.3   216  HIS216      0.1621
    129  C          8.3950   47.1140   40.3590 C.2   216  HIS216      0.2264
    130  O          9.3490   47.0840   39.5770 O.2   216  HIS216     -0.2867
    131  CB         7.4400   45.1900   41.7700 C.3   216  HIS216      0.0745
    132  CG         7.5380   44.2470   40.6210 C.ar  216  HIS216      0.0817
    133  ND1        8.2660   43.0780   40.6700 N.ar  216  HIS216     -0.2268
    134  CD2        6.9800   44.2940   39.3850 C.ar  216  HIS216      0.1154
    135  CE1        8.1690   42.4540   39.5110 C.ar  216  HIS216      0.1986
    136  NE2        7.3950   43.1720   38.7120 N.ar  216  HIS216     -0.2212
    137  N         11.6550   47.9470   37.6460 N.3   220  LEU220     -0.1245
    138  CA        11.5100   47.7420   36.2070 C.3   220  LEU220      0.1561
    139  C         11.7560   49.0210   35.4080 C.2   220  LEU220      0.2260
    140  O         12.4340   48.9730   34.3660 O.2   220  LEU220     -0.2867
    141  CB        10.1150   47.1650   35.9160 C.3   220  LEU220      0.0270
    142  CG         9.7050   45.7830   36.4150 C.3   220  LEU220      0.0019
    143  CD1        8.2770   45.4440   36.1640 C.3   220  LEU220      0.0001
    144  CD2       10.6450   44.6770   35.9560 C.3   220  LEU220      0.0001
    145  N         15.4260   49.7550   35.1130 N.3   223  ILE223     -0.1245
    146  CA        15.9510   48.8640   34.0910 C.3   223  ILE223      0.1561
    147  C         15.6640   49.4330   32.7060 C.2   223  ILE223      0.2260
    148  O         16.5670   49.5570   31.8840 O.2   223  ILE223     -0.2867
    149  CB        15.3870   47.4390   34.2510 C.3   223  ILE223      0.0252
    150  CG1       16.0160   46.7880   35.4670 C.3   223  ILE223      0.0019
    151  CG2       15.7400   46.5870   33.0500 C.3   223  ILE223      0.0019
    152  CD1       15.3860   45.4610   35.8340 C.3   223  ILE223      0.0001
    153  N         18.2400   42.0340   26.3370 N.3   231  SER231     -0.1202
    154  CA        17.7130   40.7740   26.8850 C.3   231  SER231      0.2020
    155  C         17.2080   40.9710   28.2990 C.2   231  SER231      0.2619
    156  O         16.3510   40.2040   28.7860 O.2   231  SER231     -0.2717
    157  CB        18.7510   39.6410   26.8410 C.3   231  SER231      0.2103
    158  OG        19.1770   39.3620   25.5060 O.3   231  SER231     -0.2182
    159  N         17.6860   42.0130   28.9690 N.am  232  LEU232     -0.1965
    160  CA        17.2600   42.2620   30.3550 C.3   232  LEU232      0.1728
    161  C         16.1500   43.2970   30.5160 C.2   232  LEU232      0.2616
    162  O         15.7290   43.5870   31.6260 O.2   232  LEU232     -0.2715
    163  CB        18.4840   42.5850   31.2050 C.3   232  LEU232      0.0311
    164  CG        19.3550   41.3270   31.3480 C.3   232  LEU232      0.0022
    165  CD1       20.6150   41.6400   32.1320 C.3   232  LEU232      0.0001
    166  CD2       18.5660   40.2070   32.0180 C.3   232  LEU232      0.0001
    167  N         15.6340   43.8170   29.4120 N.am  233  HIS233     -0.1960
    168  CA        14.4910   44.7130   29.4610 C.3   233  HIS233      0.1772
    169  C         13.2010   43.9160   29.3980 C.2   233  HIS233      0.2462
    170  O         13.1230   42.8910   28.6920 O.2   233  HIS233     -0.2730
    171  CB        14.5070   45.6460   28.2670 C.3   233  HIS233      0.0785
    172  CG        15.5070   46.7360   28.3600 C.ar  233  HIS233      0.0821
    173  ND1       15.1650   48.0730   28.2640 N.ar  233  HIS233     -0.2267
    174  CD2       16.8600   46.6940   28.5030 C.ar  233  HIS233      0.1154
    175  CE1       16.2700   48.8010   28.3090 C.ar  233  HIS233      0.1986
    176  NE2       17.3040   47.9890   28.4690 N.ar  233  HIS233     -0.2212
    177  N         12.1610   44.4000   30.0890 N.am  234  PRO234     -0.2727
    178  CA        10.8420   43.7930   29.9820 C.3   234  PRO234      0.1402
    179  C         10.1420   44.3300   28.7540 C.2   234  PRO234      0.2269
    180  O          9.2250   45.1290   28.8560 O.2   234  PRO234     -0.2865
    181  CB        10.1570   44.2630   31.2650 C.3   234  PRO234      0.0296
    182  CG        10.7430   45.6080   31.5150 C.3   234  PRO234      0.0237
    183  CD        12.1770   45.4760   31.0880 C.3   234  PRO234      0.0939
    184  N          6.3500   44.4280   28.2130 N.3   237  GLN237     -0.1245
    185  CA         5.6660   45.4470   29.0150 C.3   237  GLN237      0.1566
    186  C          5.8200   46.8210   28.3560 C.2   237  GLN237      0.2260
    187  O          4.8900   47.5850   28.3370 O.2   237  GLN237     -0.2867
    188  CB         6.1670   45.4810   30.4560 C.3   237  GLN237      0.0367
    189  CG         5.9280   44.1980   31.2190 C.3   237  GLN237      0.0905
    190  CD         6.5700   44.1760   32.5860 C.2   237  GLN237      0.2608
    191  OE1        7.0360   45.2110   33.1100 O.2   237  GLN237     -0.2717
    192  NE2        6.5920   43.0020   33.1920 N.am  237  GLN237     -0.0878
@<TRIPOS>BOND
     1   158   157    1
     2   153   154    1
     3   157   154    1
     4   154   155    1
     5   184   185    1
     6   173   175   ar
     7   173   172   ar
     8   171   172    1
     9   171   168    1
    10    28    26   am
    11   155   156    2
    12   155   159   am
    13   175   176   ar
    14   187   186    2
    15   186   185    1
    16   172   174   ar
    17   176   174   ar
    18   170   169    2
    19     8     6    1
    20   179   180    2
    21   179   178    1
    22    27    26    2
    23   159   160    1
    24    26    25    1
    25   185   188    1
    26   169   168    1
    27   169   177   am
    28     7     5    1
    29   167   168    1
    30   167   161   am
    31    25    24    1
    32     6     5    1
    33   178   177    1
    34   178   181    1
    35   177   183    1
    36   160   161    1
    37   160   163    1
    38     5     2    1
    39   188   189    1
    40   161   162    2
    41    24    21    1
    42    40    41    1
    43    40    39    1
    44   183   182    1
    45   163   164    1
    46   189   190    1
    47   181   182    1
    48    41    42    2
    49    41    43   am
    50   164   166    1
    51   164   165    1
    52    21    22    1
    53    21    20    1
    54    39    36    1
    55     2     3    1
    56     2     1    1
    57   148   147    2
    58    23    22    2
    59     3     4    2
    60    38    37    2
    61   190   191    2
    62   190   192   am
    63    37    36    1
    64   147   146    1
    65    20    11   am
    66    36    35    1
    67   151   149    1
    68    11    12    2
    69    11    10    1
    70    35    31   am
    71   146   149    1
    72   146   145    1
    73   149   150    1
    74    57    58    2
    75    57    56    1
    76   140   139    2
    77    44    45    1
    78    13    10    1
    79    13    14    1
    80    10     9    1
    81    59    56    1
    82    59    60    1
    83    31    32    2
    84    31    30    1
    85    55    56    1
    86    55    46   am
    87   139   138    1
    88   150   152    1
    89    45    46    1
    90    45    48    1
    91    29    30    1
    92    46    47    2
    93    14    16   ar
    94    14    15   ar
    95   141   138    1
    96   141   142    1
    97   144   142    1
    98    16    18   ar
    99   143   142    1
   100   138   137    1
   101    30    33    1
   102    48    49    1
   103    33    34    1
   104    15    17   ar
   105    69    70   ar
   106    69    67   ar
   107    18    19   ar
   108    70    68   ar
   109    53    52    1
   110    50    49    1
   111    50    51    1
   112   109   107   ar
   113   109   108   ar
   114    17    19   ar
   115    67    66   ar
   116   107   105   ar
   117   136   134   ar
   118   136   135   ar
   119   108   106   ar
   120    52    51    2
   121    52    54    1
   122    68    66   ar
   123    78    76    1
   124    66    65    1
   125   134   132   ar
   126   105   104   ar
   127   135   133   ar
   128   130   129    2
   129   106   104   ar
   130   104   103    1
   131   129   128    1
   132    76    75    1
   133   132   133   ar
   134   132   131    1
   135    65    62    1
   136    61    62    1
   137   103   100    1
   138    90    89    1
   139    62    63    1
   140    77    75    1
   141   128   131    1
   142   128   127    1
   143    75    72    1
   144    89    87   ar
   145    89    88   ar
   146   100    99    1
   147   100   101    1
   148    63    64    2
   149    87    85   ar
   150   116   115    1
   151   116   117    1
   152    72    71    1
   153    72    73    1
   154    88    86   ar
   155   115   114    1
   156   126   125    1
   157   101   110   am
   158   101   102    2
   159   125   124    1
   160    85    84   ar
   161   110   111    1
   162    73    74    2
   163    73    79   am
   164    86    84   ar
   165    97    96    1
   166   114   111    1
   167    79    80    1
   168    84    83    1
   169    98    96    1
   170   111   112    1
   171   124   123    1
   172    96    95    1
   173    95    92    1
   174    80    83    1
   175    80    81    1
   176   123   122    1
   177    92    91    1
   178    92    93    1
   179   112   113    2
   180   122   119    1
   181    81    82    2
   182    93    94    2
   183   118   119    1
   184   119   120    1
   185   120   121    2
