@<TRIPOS>MOLECULE
tmp/4l9iB00.pdb
 152 141 0 0 0
SMALL
GASTEIGER

@<TRIPOS>ATOM
      1  N        -36.8210   38.9520   18.6230 N.3   163  LEU163     -0.1231
      2  CA       -35.9680   39.3530   19.7380 C.3   163  LEU163      0.1693
      3  C        -35.2970   40.7000   19.5150 C.2   163  LEU163      0.2593
      4  O        -34.9320   41.3800   20.4800 O.2   163  LEU163     -0.2718
      5  CB       -34.9110   38.2900   19.9890 C.3   163  LEU163      0.0284
      6  CG       -35.4830   36.9250   20.3670 C.3   163  LEU163      0.0019
      7  CD1      -34.3690   35.8840   20.3590 C.3   163  LEU163      0.0001
      8  CD2      -36.1970   36.9770   21.7230 C.3   163  LEU163      0.0001
      9  N        -35.1330   41.0740   18.2460 N.am  164  GLY164     -0.1942
     10  CA       -34.5260   42.3390   17.8670 C.3   164  GLY164      0.2014
     11  C        -34.7830   42.6350   16.4000 C.2   164  GLY164      0.2639
     12  O        -34.9420   41.7150   15.5900 O.2   164  GLY164     -0.2714
     13  N        -34.8610   43.9280   16.0790 N.am  165  ARG165     -0.1963
     14  CA       -34.8330   44.4230   14.6950 C.3   165  ARG165      0.1729
     15  C        -33.5940   45.2930   14.5240 C.2   165  ARG165      0.2617
     16  O        -33.2070   46.0380   15.4330 O.2   165  ARG165     -0.2715
     17  CB       -36.0820   45.2440   14.3510 C.3   165  ARG165      0.0348
     18  CG       -37.3640   44.5430   14.7450 C.3   165  ARG165      0.0492
     19  CD       -38.5400   44.8680   13.8400 C.3   165  ARG165      0.2205
     20  NE       -39.3690   43.6780   13.6540 N.pl3 165  ARG165     -0.0865
     21  CZ       -40.6790   43.6650   13.4150 C.cat 165  ARG165      0.5346
     22  NH1      -41.3820   44.7920   13.3210 N.pl3 165  ARG165      0.1354
     23  NH2      -41.3000   42.4970   13.2730 N.pl3 165  ARG165      0.1354
     24  N        -32.9650   45.1760   13.3600 N.am  166  GLY166     -0.1940
     25  CA       -31.7930   45.9700   13.0310 C.3   166  GLY166      0.2014
     26  C        -32.0410   46.6730   11.7210 C.2   166  GLY166      0.2639
     27  O        -33.1950   46.8630   11.3030 O.2   166  GLY166     -0.2714
     28  N        -30.9490   47.0620   11.0730 N.am  167  GLY167     -0.1939
     29  CA       -31.0320   47.6970    9.7750 C.3   167  GLY167      0.2014
     30  C        -31.2430   46.6440    8.7160 C.2   167  GLY167      0.2639
     31  O        -32.1540   46.7530    7.9010 O.2   167  GLY167     -0.2714
     32  N        -30.4050   45.6130    8.7380 N.am  168  PHE168     -0.1959
     33  CA       -30.4180   44.6060    7.6750 C.3   168  PHE168      0.1774
     34  C        -31.4180   43.4920    7.8750 C.2   168  PHE168      0.2659
     35  O        -31.7110   42.7480    6.9380 O.2   168  PHE168     -0.2711
     36  CB       -29.0210   44.0310    7.4490 C.3   168  PHE168      0.0574
     37  CG       -28.1790   44.8790    6.5410 C.ar  168  PHE168     -0.0200
     38  CD1      -28.5450   45.0470    5.2130 C.ar  168  PHE168     -0.0042
     39  CD2      -27.0440   45.5360    7.0180 C.ar  168  PHE168     -0.0042
     40  CE1      -27.7890   45.8380    4.3730 C.ar  168  PHE168     -0.0003
     41  CE2      -26.2820   46.3340    6.1800 C.ar  168  PHE168     -0.0003
     42  CZ       -26.6560   46.4900    4.8530 C.ar  168  PHE168     -0.0000
     43  N        -31.9520   43.3790    9.0810 N.am  169  GLY169     -0.1730
     44  CA       -32.8370   42.2700    9.3760 C.2   169  GLY169      0.1340
     45  C        -33.2860   42.1470   10.8070 C.2   169  GLY169      0.2521
     46  O        -33.2140   43.1000   11.5820 O.2   169  GLY169     -0.2816
     47  N        -33.9350   39.3780   14.3660 N.3   171  VAL171     -0.1245
     48  CA       -33.5880   38.1670   15.0720 C.3   171  VAL171      0.1561
     49  C        -34.8600   37.5740   15.6450 C.2   171  VAL171      0.2260
     50  O        -35.5800   38.2480   16.3710 O.2   171  VAL171     -0.2867
     51  CB       -32.5880   38.4320   16.1880 C.3   171  VAL171      0.0252
     52  CG1      -32.2280   37.1370   16.9040 C.3   171  VAL171      0.0019
     53  CG2      -31.3450   39.0710   15.6110 C.3   171  VAL171      0.0019
     54  N        -31.6710   31.3740   18.4880 N.3   184  ALA184     -0.1245
     55  CA       -31.9730   32.6770   17.9110 C.3   184  ALA184      0.1562
     56  C        -31.6420   32.5580   16.4470 C.2   184  ALA184      0.2260
     57  O        -30.6460   31.9110   16.0970 O.2   184  ALA184     -0.2867
     58  CB       -31.1130   33.7490   18.5520 C.3   184  ALA184      0.0290
     59  N        -30.9760   34.9540   13.1280 N.3   186  LYS186     -0.1245
     60  CA       -30.7810   36.2650   12.5190 C.3   186  LYS186      0.1561
     61  C        -30.9730   36.1410   11.0030 C.2   186  LYS186      0.2260
     62  O        -30.2440   35.4090   10.3350 O.2   186  LYS186     -0.2867
     63  CB       -29.3890   36.7920   12.8610 C.3   186  LYS186      0.0271
     64  CG       -29.0720   38.2010   12.3560 C.3   186  LYS186      0.0035
     65  CD       -27.8380   38.7520   13.0880 C.3   186  LYS186      0.0206
     66  CE       -26.8880   39.5260   12.1840 C.3   186  LYS186      0.1093
     67  NZ       -25.9440   40.3930   12.9650 N.3   186  LYS186     -0.1314
     68  N        -31.0710   38.0220    7.4490 N.3   188  LEU188     -0.1245
     69  CA       -30.6440   39.2260    6.7420 C.3   188  LEU188      0.1561
     70  C        -31.3350   39.2340    5.3990 C.2   188  LEU188      0.2260
     71  O        -31.2320   38.2760    4.6690 O.2   188  LEU188     -0.2867
     72  CB       -29.1260   39.2290    6.5860 C.3   188  LEU188      0.0270
     73  CG       -28.3860   39.2340    7.9180 C.3   188  LEU188      0.0019
     74  CD1      -26.8820   39.1800    7.6920 C.3   188  LEU188      0.0001
     75  CD2      -28.7530   40.4700    8.7390 C.3   188  LEU188      0.0001
     76  N        -21.5470   34.4650   20.9220 N.3   218  VAL218     -0.1245
     77  CA       -22.6760   33.7400   20.3520 C.3   218  VAL218      0.1561
     78  C        -22.1570   32.6250   19.4310 C.2   218  VAL218      0.2260
     79  O        -21.2840   32.8670   18.5930 O.2   218  VAL218     -0.2867
     80  CB       -23.6560   34.6400   19.5770 C.3   218  VAL218      0.0252
     81  CG1      -24.3560   35.6060   20.5030 C.3   218  VAL218      0.0019
     82  CG2      -22.9350   35.4090   18.4840 C.3   218  VAL218      0.0019
     83  N        -28.3510   30.6130   15.8690 N.3   234  MET234     -0.1182
     84  CA       -27.3230   30.7440   16.8880 C.3   234  MET234      0.1917
     85  C        -27.8310   30.7770   18.3260 C.2   234  MET234      0.2635
     86  O        -29.0260   30.7940   18.5830 O.2   234  MET234     -0.2714
     87  CB       -26.4700   31.9700   16.5870 C.2   234  MET234      0.0083
     88  CG       -27.1450   33.2970   16.8100 C.2   234  MET234      0.0282
     89  SD       -26.1730   34.7560   16.3060 S.3   234  MET234     -0.1125
     90  CE       -25.8920   34.4610   14.5830 C.3   234  MET234      0.0742
     91  N        -26.8980   30.7280   19.2690 N.am  235  THR235     -0.1950
     92  CA       -27.2200   30.7840   20.6790 C.3   235  THR235      0.1897
     93  C        -28.3690   31.7360   20.9370 C.2   235  THR235      0.2313
     94  O        -28.3090   32.9130   20.5510 O.2   235  THR235     -0.2863
     95  CB       -26.0270   31.3080   21.4780 C.3   235  THR235      0.1794
     96  OG1      -24.8280   30.6510   21.0400 O.3   235  THR235     -0.2208
     97  CG2      -26.2410   31.0770   22.9500 C.3   235  THR235      0.0378
     98  N        -30.0440   34.3820   22.9120 N.3   237  MET237     -0.1245
     99  CA       -29.7900   35.3700   23.9590 C.3   237  MET237      0.1570
    100  C        -31.0720   36.1710   24.2450 C.2   237  MET237      0.2261
    101  O        -31.3910   37.1420   23.5790 O.2   237  MET237     -0.2867
    102  CB       -28.6460   36.2870   23.5260 C.3   237  MET237      0.0387
    103  CG       -27.3560   35.5510   23.1570 C.3   237  MET237      0.0595
    104  SD       -26.6540   34.5910   24.5270 S.3   237  MET237     -0.1393
    105  CE       -26.0070   35.9040   25.5460 C.3   237  MET237      0.0692
    106  N        -29.7030   43.5310   25.6500 N.3   241  ASP241     -0.1239
    107  CA       -28.3260   43.9460   25.5200 C.3   241  ASP241      0.1674
    108  C        -27.9850   44.8900   26.6640 C.2   241  ASP241      0.2266
    109  O        -28.8650   45.3670   27.3740 O.2   241  ASP241     -0.2867
    110  CB       -28.0030   44.5000   24.1080 C.3   241  ASP241      0.1410
    111  CG       -28.6670   45.8410   23.7850 C.2   241  ASP241      0.3668
    112  OD1      -28.5320   46.7970   24.5700 O.co2 241  ASP241     -0.2456
    113  OD2      -29.2730   45.9530   22.6890 O.co2 241  ASP241     -0.2456
    114  N        -24.2450   47.8700   23.2080 N.3   288  GLU288     -0.1231
    115  CA       -25.3260   47.3520   22.3830 C.3   288  GLU288      0.1699
    116  C        -25.0090   45.9990   21.7520 C.2   288  GLU288      0.2592
    117  O        -25.9240   45.3140   21.3700 O.2   288  GLU288     -0.2718
    118  CB       -25.8240   48.3500   21.3030 C.3   288  GLU288      0.0402
    119  CG       -24.8690   49.4430   20.8610 C.3   288  GLU288      0.1161
    120  CD       -24.6520   50.5840   21.8860 C.2   288  GLU288      0.3649
    121  OE1      -23.6830   50.5310   22.6680 O.co2 288  GLU288     -0.2457
    122  OE2      -25.4280   51.5520   21.8940 O.co2 288  GLU288     -0.2457
    123  N        -23.7350   45.6130   21.6470 N.am  289  ASN289     -0.1974
    124  CA       -23.3800   44.3120   21.0540 C.3   289  ASN289      0.1688
    125  C        -23.1260   43.1920   22.0690 C.2   289  ASN289      0.2292
    126  O        -22.8260   42.0560   21.7010 O.2   289  ASN289     -0.2864
    127  CB       -22.2110   44.4760   20.0870 C.3   289  ASN289      0.1181
    128  CG       -22.6180   45.1760   18.8050 C.2   289  ASN289      0.2629
    129  OD1      -23.7520   45.0790   18.3750 O.2   289  ASN289     -0.2716
    130  ND2      -21.6950   45.8780   18.1860 N.am  289  ASN289     -0.0877
    131  N        -24.8130   40.8460   24.7740 N.3   291  LEU291     -0.1245
    132  CA       -26.1480   40.3430   25.0950 C.3   291  LEU291      0.1561
    133  C        -26.1440   39.4530   26.3320 C.2   291  LEU291      0.2260
    134  O        -25.1670   38.7530   26.5830 O.2   291  LEU291     -0.2867
    135  CB       -26.6770   39.5260   23.9210 C.3   291  LEU291      0.0270
    136  CG       -26.3420   40.0780   22.5320 C.3   291  LEU291      0.0019
    137  CD1      -26.7550   39.1120   21.4200 C.3   291  LEU291      0.0001
    138  CD2      -26.9910   41.4400   22.3370 C.3   291  LEU291      0.0001
    139  N        -21.5160   39.7340   20.3970 N.3   301  SER301     -0.1202
    140  CA       -22.2160   39.4140   19.1660 C.3   301  SER301      0.2020
    141  C        -21.9350   40.4700   18.1060 C.2   301  SER301      0.2618
    142  O        -21.2070   41.4510   18.3510 O.2   301  SER301     -0.2717
    143  CB       -23.7150   39.3690   19.4200 C.3   301  SER301      0.2103
    144  OG       -24.1850   40.6530   19.7890 O.3   301  SER301     -0.2182
    145  N        -22.5320   40.2730   16.9320 N.am  302  ASP302     -0.1973
    146  CA       -22.3540   41.1630   15.7790 C.3   302  ASP302      0.1709
    147  C        -20.8880   41.2400   15.3780 C.2   302  ASP302      0.2293
    148  O        -20.2130   42.2340   15.6080 O.2   302  ASP302     -0.2864
    149  CB       -22.9370   42.5610   16.0270 C.3   302  ASP302      0.1436
    150  CG       -23.1350   43.3590   14.7360 C.2   302  ASP302      0.3671
    151  OD1      -22.7000   42.9160   13.6210 O.co2 302  ASP302     -0.2456
    152  OD2      -23.7420   44.4530   14.8460 O.co2 302  ASP302     -0.2456
@<TRIPOS>BOND
     1    40    42   ar
     2    40    38   ar
     3    71    70    2
     4    42    41   ar
     5    38    37   ar
     6    70    69    1
     7    41    39   ar
     8    37    39   ar
     9    37    36    1
    10    72    69    1
    11    72    73    1
    12    69    68    1
    13    35    34    2
    14    36    33    1
    15    33    34    1
    16    33    32    1
    17    74    73    1
    18    34    43    1
    19    31    30    2
    20    73    75    1
    21    30    32   am
    22    30    29    1
    23    43    44    2
    24    44    45    1
    25    29    28    1
    26    62    61    2
    27    45    46    2
    28    61    60    1
    29    28    26   am
    30    27    26    2
    31    26    25    1
    32    66    67    1
    33    66    65    1
    34    64    63    1
    35    64    65    1
    36    60    63    1
    37    60    59    1
    38    25    24    1
    39    23    21    1
    40    22    21    1
    41    24    15   am
    42    21    20    2
    43   151   150   ar
    44    20    19    1
    45    19    18    1
    46    17    14    1
    47    17    18    1
    48    47    48    1
    49    15    14    1
    50    15    16    2
    51    90    89    1
    52    14    13    1
    53   150   152   ar
    54   150   149    1
    55    48    49    1
    56    48    51    1
    57   147   148    2
    58   147   146    1
    59    12    11    2
    60    53    51    1
    61    49    50    2
    62   146   149    1
    63   146   145    1
    64    83    84    1
    65    13    11   am
    66    57    56    2
    67    51    52    1
    68    89    88    1
    69    11    10    1
    70    56    55    1
    71    87    88    2
    72    87    84    1
    73    84    85    1
    74   145   141   am
    75    10     9    1
    76    55    54    1
    77    55    58    1
    78   141   142    2
    79   141   140    1
    80   130   128   am
    81     9     3   am
    82    85    86    2
    83    85    91   am
    84   129   128    2
    85    82    80    1
    86    79    78    2
    87     1     2    1
    88   128   127    1
    89   140   143    1
    90   140   139    1
    91    91    92    1
    92   143   144    1
    93    78    77    1
    94     3     2    1
    95     3     4    2
    96    80    77    1
    97    80    81    1
    98     2     5    1
    99     5     6    1
   100   127   124    1
   101    77    76    1
   102     7     6    1
   103     6     8    1
   104    94    93    2
   105    92    93    1
   106    92    95    1
   107   119   118    1
   108   119   120    1
   109    96    95    1
   110   124   123    1
   111   124   125    1
   112   118   115    1
   113   117   116    2
   114   137   136    1
   115    95    97    1
   116   123   116   am
   117   126   125    2
   118   116   115    1
   119   120   122   ar
   120   120   121   ar
   121   138   136    1
   122   115   114    1
   123   136   135    1
   124   113   111   ar
   125    98    99    1
   126   103   102    1
   127   103   104    1
   128   102    99    1
   129   101   100    2
   130   111   110    1
   131   111   112   ar
   132   135   132    1
   133    99   100    1
   134   110   107    1
   135   104   105    1
   136   131   132    1
   137   132   133    1
   138   107   106    1
   139   107   108    1
   140   133   134    2
   141   108   109    2
