@<TRIPOS>MOLECULE
tmp/4l9kA00.pdb
 164 158 0 0 0
SMALL
GASTEIGER

@<TRIPOS>ATOM
      1  N        -18.3050   -3.5750    4.7870 N.3   110  ARG110     -0.1231
      2  CA       -17.2400   -3.5500    5.7800 C.3   110  ARG110      0.1694
      3  C        -17.0830   -4.9500    6.3830 C.2   110  ARG110      0.2592
      4  O        -18.0610   -5.6730    6.6340 O.2   110  ARG110     -0.2718
      5  CB       -17.5370   -2.5360    6.9000 C.3   110  ARG110      0.0321
      6  CG       -17.7060   -1.0950    6.4460 C.3   110  ARG110      0.0489
      7  CD       -16.3720   -0.4600    6.0630 C.3   110  ARG110      0.2205
      8  NE       -15.4420   -0.4230    7.1920 N.pl3 110  ARG110     -0.0865
      9  CZ       -14.4010    0.4060    7.2920 C.cat 110  ARG110      0.5346
     10  NH1      -14.1490    1.2900    6.3290 N.pl3 110  ARG110      0.1354
     11  NH2      -13.6130    0.3570    8.3630 N.pl3 110  ARG110      0.1354
     12  N        -15.8340   -5.3190    6.6000 N.am  111  LEU111     -0.1966
     13  CA       -15.5080   -6.5500    7.2700 C.3   111  LEU111      0.1728
     14  C        -15.9010   -6.3180    8.7270 C.2   111  LEU111      0.2616
     15  O        -15.4890   -5.3200    9.3250 O.2   111  LEU111     -0.2715
     16  CB       -14.0020   -6.7770    7.1420 C.3   111  LEU111      0.0311
     17  CG       -13.5330   -8.0290    6.3950 C.3   111  LEU111      0.0022
     18  CD1      -14.5600   -8.4940    5.3960 C.3   111  LEU111      0.0001
     19  CD2      -12.1930   -7.7720    5.7400 C.3   111  LEU111      0.0001
     20  N        -16.6960   -7.2230    9.2940 N.am  112  VAL112     -0.1963
     21  CA       -17.1570   -7.0920   10.6800 C.3   112  VAL112      0.1727
     22  C        -16.4910   -8.1680   11.5530 C.2   112  VAL112      0.2616
     23  O        -16.2110   -9.2720   11.0780 O.2   112  VAL112     -0.2715
     24  CB       -18.6980   -7.2280   10.7970 C.3   112  VAL112      0.0290
     25  CG1      -19.1090   -8.6570   10.5810 C.3   112  VAL112      0.0023
     26  CG2      -19.1690   -6.7950   12.1670 C.3   112  VAL112      0.0023
     27  N        -16.1680   -7.8270   12.8010 N.am  113  ARG113     -0.1964
     28  CA       -15.6090   -8.8130   13.7220 C.3   113  ARG113      0.1714
     29  C        -16.6870   -9.3480   14.6590 C.2   113  ARG113      0.2458
     30  O        -17.1110   -8.6340   15.5710 O.2   113  ARG113     -0.2730
     31  CB       -14.4530   -8.2150   14.5310 C.3   113  ARG113      0.0347
     32  CG       -13.9240   -9.1240   15.6570 C.3   113  ARG113      0.0492
     33  CD       -12.9390   -8.3500   16.5540 C.3   113  ARG113      0.2205
     34  NE       -11.6400   -8.2220   15.9040 N.pl3 113  ARG113     -0.0865
     35  CZ       -10.6410   -7.4520   16.3310 C.cat 113  ARG113      0.5346
     36  NH1      -10.7820   -6.6650   17.3950 N.pl3 113  ARG113      0.1354
     37  NH2       -9.5010   -7.4240   15.6530 N.pl3 113  ARG113      0.1354
     38  N        -17.1230  -10.6140   14.4510 N.am  114  PRO114     -0.2727
     39  CA       -18.1140  -11.2320   15.3440 C.3   114  PRO114      0.1402
     40  C        -17.5660  -11.4240   16.7600 C.2   114  PRO114      0.2269
     41  O        -16.3880  -11.1640   17.0240 O.2   114  PRO114     -0.2865
     42  CB       -18.3550  -12.6130   14.7090 C.3   114  PRO114      0.0296
     43  CG       -17.8670  -12.4980   13.3100 C.3   114  PRO114      0.0237
     44  CD       -16.7250  -11.5300   13.3670 C.3   114  PRO114      0.0939
     45  N        -16.7570  -16.6860   16.4860 N.3   119  MET119     -0.1245
     46  CA       -15.6620  -16.9990   15.5710 C.3   119  MET119      0.1570
     47  C        -14.9940  -18.3550   15.8530 C.2   119  MET119      0.2261
     48  O        -14.6990  -19.1090   14.9360 O.2   119  MET119     -0.2867
     49  CB       -14.6240  -15.8770   15.5510 C.3   119  MET119      0.0387
     50  CG       -15.1890  -14.5040   15.2790 C.3   119  MET119      0.0595
     51  SD       -13.8660  -13.2630   15.3670 S.3   119  MET119     -0.1393
     52  CE       -12.9650  -13.5910   13.8640 C.3   119  MET119      0.0692
     53  N        -11.0020  -16.5050    4.6980 N.3   134  TYR134     -0.1241
     54  CA       -10.1060  -15.4290    5.0510 C.3   134  TYR134      0.1605
     55  C         -9.3310  -14.9800    3.8260 C.2   134  TYR134      0.2264
     56  O         -9.3010  -13.7920    3.5260 O.2   134  TYR134     -0.2867
     57  CB        -9.1220  -15.9010    6.1140 C.3   134  TYR134      0.0534
     58  CG        -8.0610  -14.8890    6.4810 C.ar  134  TYR134     -0.0201
     59  CD1       -8.3690  -13.7810    7.2520 C.ar  134  TYR134     -0.0009
     60  CD2       -6.7560  -15.0320    6.0320 C.ar  134  TYR134     -0.0009
     61  CE1       -7.3930  -12.8530    7.5900 C.ar  134  TYR134      0.0417
     62  CE2       -5.7810  -14.1200    6.3690 C.ar  134  TYR134      0.0417
     63  CZ        -6.1040  -13.0340    7.1560 C.ar  134  TYR134      0.1957
     64  OH        -5.1400  -12.1040    7.4870 O.3   134  TYR134     -0.2866
     65  N         -9.9710  -11.1100    2.0600 N.3   138  ILE138     -0.1245
     66  CA        -8.8890  -10.1570    2.0350 C.3   138  ILE138      0.1561
     67  C         -8.4860   -9.8740    0.5900 C.2   138  ILE138      0.2260
     68  O         -8.3210   -8.7140    0.2090 O.2   138  ILE138     -0.2867
     69  CB        -7.6780  -10.6360    2.8960 C.3   138  ILE138      0.0252
     70  CG1       -8.1060  -10.7770    4.3590 C.3   138  ILE138      0.0019
     71  CG2       -6.4990   -9.6990    2.7580 C.3   138  ILE138      0.0019
     72  CD1       -8.9930   -9.6520    4.8390 C.3   138  ILE138      0.0001
     73  N         -8.2340   -6.4480   -1.5700 N.3   142  HIS142     -0.1241
     74  CA        -6.8700   -5.9680   -1.7810 C.3   142  HIS142      0.1621
     75  C         -6.2580   -6.6800   -2.9880 C.2   142  HIS142      0.2264
     76  O         -5.3560   -7.5260   -2.8350 O.2   142  HIS142     -0.2867
     77  CB        -6.0130   -6.2090   -0.5450 C.3   142  HIS142      0.0745
     78  CG        -6.5220   -5.5110    0.6750 C.ar  142  HIS142      0.0817
     79  ND1       -6.1040   -4.2500    1.0430 N.ar  142  HIS142     -0.2268
     80  CD2       -7.3900   -5.9140    1.6330 C.ar  142  HIS142      0.1154
     81  CE1       -6.7140   -3.8950    2.1600 C.ar  142  HIS142      0.1986
     82  NE2       -7.5010   -4.8870    2.5380 N.ar  142  HIS142     -0.2212
     83  N         -2.4360   -7.1710   -3.2410 N.3   145  PHE145     -0.1241
     84  CA        -1.6720   -7.7330   -2.1280 C.3   145  PHE145      0.1605
     85  C         -0.6510   -8.7320   -2.6210 C.2   145  PHE145      0.2264
     86  O         -0.9590   -9.5370   -3.4960 O.2   145  PHE145     -0.2867
     87  CB        -2.5830   -8.3930   -1.1210 C.3   145  PHE145      0.0534
     88  CG        -2.0190   -8.4120    0.2480 C.ar  145  PHE145     -0.0203
     89  CD1       -1.2000   -9.4620    0.6600 C.ar  145  PHE145     -0.0042
     90  CD2       -2.2820   -7.3690    1.1230 C.ar  145  PHE145     -0.0042
     91  CE1       -0.6620   -9.4720    1.9300 C.ar  145  PHE145     -0.0003
     92  CE2       -1.7460   -7.3640    2.3940 C.ar  145  PHE145     -0.0003
     93  CZ        -0.9220   -8.4170    2.7970 C.ar  145  PHE145     -0.0000
     94  N          0.5770  -13.1380    1.4110 N.3   150  LEU150     -0.1245
     95  CA        -0.7590  -13.3990    1.9580 C.3   150  LEU150      0.1561
     96  C         -0.8630  -14.8190    2.5640 C.2   150  LEU150      0.2260
     97  O         -1.5880  -15.0370    3.5420 O.2   150  LEU150     -0.2867
     98  CB        -1.8390  -13.1940    0.8850 C.3   150  LEU150      0.0270
     99  CG        -3.2740  -13.2090    1.3980 C.3   150  LEU150      0.0019
    100  CD1       -3.4280  -12.1300    2.4560 C.3   150  LEU150      0.0001
    101  CD2       -4.2420  -12.9750    0.2940 C.3   150  LEU150      0.0001
    102  N          0.1150  -14.5600    6.0570 N.3   153  PHE153     -0.1241
    103  CA        -0.9460  -14.0130    6.8920 C.3   153  PHE153      0.1605
    104  C         -1.9520  -15.1030    7.2370 C.2   153  PHE153      0.2264
    105  O         -2.3570  -15.2340    8.3780 O.2   153  PHE153     -0.2867
    106  CB        -1.6450  -12.8620    6.1860 C.3   153  PHE153      0.0534
    107  CG        -0.9690  -11.5360    6.3860 C.ar  153  PHE153     -0.0203
    108  CD1        0.1490  -11.1970    5.6380 C.ar  153  PHE153     -0.0042
    109  CD2       -1.4630  -10.6190    7.2940 C.ar  153  PHE153     -0.0042
    110  CE1        0.7660   -9.9950    5.8130 C.ar  153  PHE153     -0.0003
    111  CE2       -0.8420   -9.4140    7.4730 C.ar  153  PHE153     -0.0003
    112  CZ         0.2780   -9.0970    6.7360 C.ar  153  PHE153     -0.0000
    113  N         -3.0050  -16.3190   10.8660 N.3   157  TYR157     -0.1241
    114  CA        -4.4290  -16.2070   11.1970 C.3   157  TYR157      0.1605
    115  C         -4.9320  -17.5480   11.7140 C.2   157  TYR157      0.2264
    116  O         -5.7180  -17.5830   12.6620 O.2   157  TYR157     -0.2867
    117  CB        -5.2130  -15.7730    9.9570 C.3   157  TYR157      0.0534
    118  CG        -6.7260  -15.5980   10.0850 C.ar  157  TYR157     -0.0201
    119  CD1       -7.2910  -14.4280   10.6070 C.ar  157  TYR157     -0.0009
    120  CD2       -7.5970  -16.5940    9.6320 C.ar  157  TYR157     -0.0009
    121  CE1       -8.6820  -14.2720   10.6850 C.ar  157  TYR157      0.0417
    122  CE2       -8.9800  -16.4410    9.7070 C.ar  157  TYR157      0.0417
    123  CZ        -9.5170  -15.2930   10.2320 C.ar  157  TYR157      0.1957
    124  OH       -10.8950  -15.1800   10.2950 O.3   157  TYR157     -0.2866
    125  N         -5.3610  -10.5300   16.2630 N.3   178  LEU178     -0.1245
    126  CA        -6.0440  -10.1350   15.0420 C.3   178  LEU178      0.1561
    127  C         -5.7870   -8.6650   14.7290 C.2   178  LEU178      0.2260
    128  O         -5.5220   -8.2930   13.5720 O.2   178  LEU178     -0.2867
    129  CB        -7.5490  -10.4180   15.1360 C.3   178  LEU178      0.0270
    130  CG        -8.0030  -11.8890   15.2150 C.3   178  LEU178      0.0019
    131  CD1       -9.5160  -12.0120   15.1400 C.3   178  LEU178      0.0001
    132  CD2       -7.3410  -12.7770   14.1750 C.3   178  LEU178      0.0001
    133  N         -2.6280   -8.3480   13.0680 N.3   181  LEU181     -0.1231
    134  CA        -2.6690   -8.8000   11.6700 C.3   181  LEU181      0.1693
    135  C         -3.3440   -7.7860   10.7760 C.2   181  LEU181      0.2591
    136  O         -2.9010   -7.5330    9.6560 O.2   181  LEU181     -0.2718
    137  CB        -3.4140  -10.1040   11.5330 C.3   181  LEU181      0.0284
    138  CG        -2.6790  -11.4060   11.7780 C.3   181  LEU181      0.0019
    139  CD1       -3.7000  -12.5570   11.6240 C.3   181  LEU181      0.0001
    140  CD2       -1.5270  -11.5590   10.8060 C.3   181  LEU181      0.0001
    141  N         -4.4100   -7.1980   11.2950 N.am  182  ARG182     -0.1980
    142  CA        -5.1940   -6.1980   10.5790 C.3   182  ARG182      0.1597
    143  C         -4.3060   -4.9920   10.2300 C.2   182  ARG182      0.2287
    144  O         -4.2890   -4.5410    9.0890 O.2   182  ARG182     -0.2864
    145  CB        -6.3830   -5.7980   11.4800 C.3   182  ARG182      0.0334
    146  CG        -7.4770   -4.9960   10.8440 C.3   182  ARG182      0.0492
    147  CD        -8.6850   -4.8670   11.7930 C.3   182  ARG182      0.2205
    148  NE        -8.3890   -4.2900   13.1080 N.pl3 182  ARG182     -0.0865
    149  CZ        -9.2760   -4.1860   14.1100 C.cat 182  ARG182      0.5346
    150  NH1       -8.9180   -3.6250   15.2630 N.pl3 182  ARG182      0.1354
    151  NH2      -10.5230   -4.6500   13.9770 N.pl3 182  ARG182      0.1354
    152  N         -1.2700   -6.0040    7.8700 N.3   185  GLY185     -0.1210
    153  CA        -1.8290   -6.3050    6.5660 C.3   185  GLY185      0.1956
    154  C         -2.0650   -5.0360    5.7830 C.2   185  GLY185      0.2611
    155  O         -1.6530   -4.9100    4.6100 O.2   185  GLY185     -0.2717
    156  N         -2.7210   -4.0820    6.4410 N.am  186  LYS186     -0.1979
    157  CA        -2.9790   -2.7730    5.8420 C.3   186  LYS186      0.1596
    158  C         -1.6580   -2.1210    5.3770 C.2   186  LYS186      0.2287
    159  O         -1.5730   -1.6340    4.2490 O.2   186  LYS186     -0.2864
    160  CB        -3.7570   -1.8740    6.8190 C.3   186  LYS186      0.0298
    161  CG        -3.4390   -0.3740    6.6970 C.3   186  LYS186      0.0038
    162  CD        -4.3730    0.5010    7.5560 C.3   186  LYS186      0.0206
    163  CE        -4.5580    1.8980    6.9340 C.3   186  LYS186      0.1093
    164  NZ        -5.6330    2.7240    7.5820 N.3   186  LYS186     -0.1314
@<TRIPOS>BOND
     1    86    85    2
     2    83    84    1
     3    75    76    2
     4    75    74    1
     5    85    84    1
     6    84    87    1
     7    74    73    1
     8    74    77    1
     9    87    88    1
    10    77    78    1
    11    68    67    2
    12    88    89   ar
    13    88    90   ar
    14   101    99    1
    15    67    66    1
    16    89    91   ar
    17    78    79   ar
    18    78    80   ar
    19    98    99    1
    20    98    95    1
    21    79    81   ar
    22    90    92   ar
    23    99   100    1
    24    94    95    1
    25    80    82   ar
    26    91    93   ar
    27    95    96    1
    28    66    65    1
    29    66    69    1
    30    81    82   ar
    31    92    93   ar
    32    96    97    2
    33    71    69    1
    34    69    70    1
    35    56    55    2
    36    55    54    1
    37   159   158    2
    38    70    72    1
    39   155   154    2
    40    53    54    1
    41     1     2    1
    42    54    57    1
    43   158   157    1
    44    18    17    1
    45   108   110   ar
    46   108   107   ar
    47    19    17    1
    48     2     3    1
    49     2     5    1
    50   154   156   am
    51   154   153    1
    52   110   112   ar
    53   157   156    1
    54   157   160    1
    55    60    62   ar
    56    60    58   ar
    57   102   103    1
    58     7     6    1
    59     7     8    1
    60    57    58    1
    61   106   107    1
    62   106   103    1
    63    10     9    1
    64    62    63   ar
    65     3    12   am
    66     3     4    2
    67   107   109   ar
    68    17    16    1
    69     6     5    1
    70    58    59   ar
    71   153   152    1
    72    12    13    1
    73   161   160    1
    74   161   162    1
    75   112   111   ar
    76   103   104    1
    77   163   162    1
    78   163   164    1
    79    16    13    1
    80    63    64    1
    81    63    61   ar
    82     8     9    2
    83   104   105    2
    84    59    61   ar
    85    13    14    1
    86     9    11    1
    87   109   111   ar
    88    14    20   am
    89    14    15    2
    90   144   143    2
    91    20    21    1
    92   120   122   ar
    93   120   118   ar
    94   136   135    2
    95   122   123   ar
    96   117   118    1
    97   117   114    1
    98   118   119   ar
    99   143   142    1
   100   123   124    1
   101   123   121   ar
   102   142   141    1
   103   142   145    1
   104    25    24    1
   105   119   121   ar
   106    21    24    1
   107    21    22    1
   108   135   141   am
   109   135   134    1
   110    24    26    1
   111   140   138    1
   112   146   145    1
   113   146   147    1
   114   113   114    1
   115    23    22    2
   116   114   115    1
   117   137   134    1
   118   137   138    1
   119    22    27   am
   120   139   138    1
   121   134   133    1
   122   115   116    2
   123   147   148    1
   124    27    28    1
   125   148   149    2
   126    43    44    1
   127    43    42    1
   128    44    38    1
   129   128   127    2
   130    28    31    1
   131    28    29    1
   132    52    51    1
   133   151   149    1
   134   149   150    1
   135   132   130    1
   136    38    29   am
   137    38    39    1
   138    31    32    1
   139    29    30    2
   140    42    39    1
   141   127   126    1
   142    48    47    2
   143   126   129    1
   144   126   125    1
   145   129   130    1
   146   131   130    1
   147    50    51    1
   148    50    49    1
   149    39    40    1
   150    49    46    1
   151    46    47    1
   152    46    45    1
   153    37    35    1
   154    32    33    1
   155    34    35    2
   156    34    33    1
   157    35    36    1
   158    40    41    2
