@<TRIPOS>MOLECULE
tmp/4l9pB01.pdb
 177 173 0 0 0
SMALL
GASTEIGER

@<TRIPOS>ATOM
      1  N         19.1760   -8.5510   -5.7350 N.3    86  TRP86      -0.1241
      2  CA        18.7340   -8.0050   -4.4510 C.3    86  TRP86       0.1605
      3  C         17.6540   -6.9440   -4.6070 C.2    86  TRP86       0.2264
      4  O         16.6970   -6.8940   -3.8140 O.2    86  TRP86      -0.2867
      5  CB        19.8690   -7.3790   -3.6720 C.3    86  TRP86       0.0550
      6  CG        20.7510   -8.3170   -2.9330 C.ar   86  TRP86       0.0003
      7  CD1       22.1130   -8.3990   -3.0400 C.ar   86  TRP86       0.0946
      8  CD2       20.3780   -9.1880   -1.8600 C.ar   86  TRP86       0.0152
      9  NE1       22.5950   -9.3010   -2.1250 N.ar   86  TRP86      -0.2442
     10  CE2       21.5540   -9.8140   -1.3910 C.ar   86  TRP86       0.0810
     11  CE3       19.1700   -9.4790   -1.2230 C.ar   86  TRP86       0.0012
     12  CZ2       21.5690  -10.7120   -0.3330 C.ar   86  TRP86       0.0191
     13  CZ3       19.1860  -10.4140   -0.1590 C.ar   86  TRP86       0.0001
     14  CH2       20.3760  -10.9890    0.2640 C.ar   86  TRP86       0.0015
     15  N         24.6430  -14.8150   -2.8390 N.3   134  ALA134     -0.1245
     16  CA        23.6660  -13.7820   -2.4390 C.3   134  ALA134      0.1562
     17  C         22.6740  -13.4760   -3.5510 C.2   134  ALA134      0.2260
     18  O         21.4810  -13.2910   -3.3140 O.2   134  ALA134     -0.2867
     19  CB        24.3980  -12.5110   -1.9710 C.3   134  ALA134      0.0290
     20  N         20.3740  -16.4850   -3.6830 N.3   137  TYR137     -0.1241
     21  CA        19.3840  -16.3960   -2.6100 C.3   137  TYR137      0.1605
     22  C         18.2930  -15.3850   -2.9780 C.2   137  TYR137      0.2264
     23  O         17.0920  -15.6610   -2.8880 O.2   137  TYR137     -0.2867
     24  CB        20.1690  -15.9920   -1.3660 C.3   137  TYR137      0.0534
     25  CG        19.3550  -15.5390   -0.1690 C.ar  137  TYR137     -0.0201
     26  CD1       18.9880  -16.4280    0.8430 C.ar  137  TYR137     -0.0009
     27  CD2       19.0170  -14.1930    0.0140 C.ar  137  TYR137     -0.0009
     28  CE1       18.3220  -16.0080    1.9950 C.ar  137  TYR137      0.0417
     29  CE2       18.3940  -13.7450    1.1620 C.ar  137  TYR137      0.0417
     30  CZ        18.0430  -14.6640    2.1480 C.ar  137  TYR137      0.1957
     31  OH        17.4130  -14.1700    3.2670 O.3   137  TYR137     -0.2866
     32  N         27.5170  -15.3480    5.6640 N.3   185  ARG185     -0.1245
     33  CA        26.5720  -15.1210    4.5470 C.3   185  ARG185      0.1563
     34  C         26.5960  -16.2350    3.5830 C.2   185  ARG185      0.2260
     35  O         25.5430  -16.6510    3.0670 O.2   185  ARG185     -0.2867
     36  CB        26.9490  -13.9250    3.6440 C.3   185  ARG185      0.0307
     37  CG        26.8820  -12.7120    4.3780 C.3   185  ARG185      0.0489
     38  CD        27.4280  -11.5730    3.3710 C.3   185  ARG185      0.2205
     39  NE        28.8190  -11.8190    3.0220 N.pl3 185  ARG185     -0.0865
     40  CZ        29.3640  -11.5740    1.8070 C.cat 185  ARG185      0.5346
     41  NH1       28.6820  -11.0200    0.8140 N.pl3 185  ARG185      0.1354
     42  NH2       30.5800  -11.8720    1.6410 N.pl3 185  ARG185      0.1354
     43  N         24.6760  -19.2430    5.1880 N.3   188  TYR188     -0.1227
     44  CA        23.2330  -19.0560    5.2770 C.3   188  TYR188      0.1736
     45  C         22.5910  -18.9900    3.8880 C.2   188  TYR188      0.2595
     46  O         21.5650  -19.6740    3.6110 O.2   188  TYR188     -0.2718
     47  CB        22.9650  -17.7380    6.0300 C.3   188  TYR188      0.0548
     48  CG        21.5490  -17.2700    5.9190 C.ar  188  TYR188     -0.0200
     49  CD1       20.4960  -17.9290    6.5740 C.ar  188  TYR188     -0.0009
     50  CD2       21.2620  -16.1530    5.1440 C.ar  188  TYR188     -0.0009
     51  CE1       19.1850  -17.4930    6.4040 C.ar  188  TYR188      0.0417
     52  CE2       19.9780  -15.7030    4.9790 C.ar  188  TYR188      0.0417
     53  CZ        18.9250  -16.3810    5.6010 C.ar  188  TYR188      0.1957
     54  OH        17.6300  -15.9310    5.3890 O.3   188  TYR188     -0.2866
     55  N         23.1540  -18.1950    2.9620 N.am  189  CYS189     -0.1970
     56  CA        22.5280  -18.0990    1.6440 C.3   189  CYS189      0.1712
     57  C         22.5810  -19.4280    0.8810 C.2   189  CYS189      0.2296
     58  O         21.5800  -19.7970    0.2470 O.2   189  CYS189     -0.2864
     59  CB        23.2190  -17.0340    0.8010 C.3   189  CYS189      0.0983
     60  SG        22.9740  -15.3200    1.4000 S.3   189  CYS189     -0.0798
     61  N         28.5010   -9.4280   15.2780 N.3   244  HIS244     -0.1241
     62  CA        27.6760   -8.4590   14.5480 C.3   244  HIS244      0.1621
     63  C         26.2990   -9.0600   14.3430 C.2   244  HIS244      0.2264
     64  O         26.1590  -10.2110   13.9420 O.2   244  HIS244     -0.2867
     65  CB        28.3230   -8.1610   13.1720 C.3   244  HIS244      0.0745
     66  CG        27.7820   -6.9260   12.5360 C.ar  244  HIS244      0.0817
     67  ND1       26.5170   -6.8800   11.9590 N.ar  244  HIS244     -0.2268
     68  CD2       28.3050   -5.6950   12.4200 C.ar  244  HIS244      0.1154
     69  CE1       26.2940   -5.6360   11.5410 C.ar  244  HIS244      0.1986
     70  NE2       27.3770   -4.9010   11.8080 N.ar  244  HIS244     -0.2212
     71  N         24.1480   -8.8050   11.9010 N.3   246  ALA246     -0.1231
     72  CA        23.8260   -9.3820   10.6180 C.3   246  ALA246      0.1694
     73  C         24.3490  -10.8120   10.5210 C.2   246  ALA246      0.2592
     74  O         23.6780  -11.6980    9.9700 O.2   246  ALA246     -0.2718
     75  CB        24.4430   -8.5570    9.5390 C.3   246  ALA246      0.0304
     76  N         25.5440  -11.0300   11.0570 N.am  247  TYR247     -0.1976
     77  CA        26.1370  -12.3730   10.9780 C.3   247  TYR247      0.1639
     78  C         25.5360  -13.2870   12.0360 C.2   247  TYR247      0.2290
     79  O         25.4320  -14.5110   11.8080 O.2   247  TYR247     -0.2864
     80  CB        27.6420  -12.2610   11.1360 C.3   247  TYR247      0.0560
     81  CG        28.2740  -11.4980    9.9780 C.ar  247  TYR247     -0.0198
     82  CD1       28.0150  -11.8840    8.6520 C.ar  247  TYR247     -0.0009
     83  CD2       29.2560  -10.5140   10.1730 C.ar  247  TYR247     -0.0009
     84  CE1       28.6760  -11.2650    7.5670 C.ar  247  TYR247      0.0417
     85  CE2       29.8930   -9.9040    9.0920 C.ar  247  TYR247      0.0417
     86  CZ        29.6180  -10.2640    7.8150 C.ar  247  TYR247      0.1957
     87  OH        30.3190   -9.6700    6.7860 O.3   247  TYR247     -0.2866
     88  N         22.5210  -14.6430   10.2500 N.3   250  CYS250     -0.1235
     89  CA        22.8750  -15.7050    9.2830 C.3   250  CYS250      0.1677
     90  C         23.2150  -17.0310    9.9750 C.2   250  CYS250      0.2270
     91  O         22.8030  -18.1050    9.5240 O.2   250  CYS250     -0.2867
     92  CB        24.1200  -15.2490    8.4850 C.3   250  CYS250      0.0956
     93  SG        23.7750  -13.9090    7.2980 S.3   250  CYS250     -0.0801
     94  N         24.0730   -2.8810   15.3280 N.3   291  GLY291     -0.1210
     95  CA        24.6420   -4.1690   14.8600 C.3   291  GLY291      0.1956
     96  C         25.7650   -4.7160   15.6850 C.2   291  GLY291      0.2611
     97  O         26.0420   -5.8920   15.6680 O.2   291  GLY291     -0.2717
     98  N         26.4540   -3.8290   16.3750 N.am  292  ARG292     -0.1979
     99  CA        27.6240   -4.2450   17.1880 C.3   292  ARG292      0.1597
    100  C         27.8760   -3.2380   18.2780 C.2   292  ARG292      0.2287
    101  O         27.3590   -2.0970   18.2590 O.2   292  ARG292     -0.2864
    102  CB        28.8890   -4.4660   16.3100 C.3   292  ARG292      0.0334
    103  CG        29.0820   -3.3820   15.2670 C.3   292  ARG292      0.0492
    104  CD        30.4450   -3.6590   14.5030 C.3   292  ARG292      0.2205
    105  NE        30.4600   -2.9090   13.2640 N.pl3 292  ARG292     -0.0865
    106  CZ        31.5880   -2.4150   12.7220 C.cat 292  ARG292      0.5346
    107  NH1       32.7980   -2.7230   13.2470 N.pl3 292  ARG292      0.1354
    108  NH2       31.4930   -1.7010   11.6170 N.pl3 292  ARG292      0.1354
    109  N         28.2800    0.8570   18.4160 N.3   295  LYS295     -0.1231
    110  CA        27.9240    1.5180   17.1600 C.3   295  LYS295      0.1693
    111  C         26.4520    1.9430   17.2090 C.2   295  LYS295      0.2591
    112  O         25.8580    1.9220   18.3120 O.2   295  LYS295     -0.2718
    113  CB        28.2830    0.6430   15.9400 C.3   295  LYS295      0.0285
    114  CG        29.8230    0.4360   15.8450 C.3   295  LYS295      0.0035
    115  CD        30.2810    0.2460   14.4440 C.3   295  LYS295      0.0206
    116  CE        30.3400    1.5880   13.7400 C.3   295  LYS295      0.1093
    117  NZ        30.4850    1.4760   12.2540 N.3   295  LYS295     -0.1314
    118  N         25.8990    2.3760   16.0950 N.am  296  LEU296     -0.1980
    119  CA        24.6200    3.1160   16.1660 C.3   296  LEU296      0.1596
    120  C         23.4580    2.2290   15.7580 C.2   296  LEU296      0.2287
    121  O         23.5800    1.2870   14.9690 O.2   296  LEU296     -0.2864
    122  CB        24.6800    4.2820   15.1760 C.3   296  LEU296      0.0297
    123  CG        25.8120    5.3010   15.4050 C.3   296  LEU296      0.0022
    124  CD1       25.7930    6.3560   14.3000 C.3   296  LEU296      0.0001
    125  CD2       25.6830    5.9480   16.7750 C.3   296  LEU296      0.0001
    126  N         20.1500    1.2190   13.5860 N.3   298  ASP298     -0.1239
    127  CA        19.8560    1.2880   12.1570 C.3   298  ASP298      0.1674
    128  C         18.6400    0.4100   11.9010 C.2   298  ASP298      0.2266
    129  O         18.5480   -0.7260   12.3930 O.2   298  ASP298     -0.2867
    130  CB        21.1320    0.7470   11.3990 C.3   298  ASP298      0.1410
    131  CG        20.9570    0.5810    9.9500 C.2   298  ASP298      0.3668
    132  OD1       19.8380    0.6050    9.3800 O.co2 298  ASP298     -0.2456
    133  OD2       21.9800    0.4370    9.2570 O.co2 298  ASP298     -0.2456
    134  N         17.7180   -1.3020    9.4730 N.3   300  CYS300     -0.1221
    135  CA        17.7620   -2.6360    8.8370 C.3   300  CYS300      0.1808
    136  C         18.0010   -3.7670    9.8640 C.2   300  CYS300      0.2601
    137  O         17.6340   -4.9270    9.6000 O.2   300  CYS300     -0.2717
    138  CB        18.7970   -2.7100    7.6710 C.3   300  CYS300      0.0970
    139  SG        20.5830   -2.5090    8.2540 S.3   300  CYS300     -0.0800
    140  N         18.5530   -3.4050   11.0190 N.am  301  TYR301     -0.1976
    141  CA        18.7320   -4.4190   12.0660 C.3   301  TYR301      0.1639
    142  C         17.3740   -4.8100   12.6710 C.2   301  TYR301      0.2290
    143  O         17.3230   -5.7530   13.4450 O.2   301  TYR301     -0.2864
    144  CB        19.7430   -3.9740   13.1580 C.3   301  TYR301      0.0560
    145  CG        21.1290   -3.7240   12.5350 C.ar  301  TYR301     -0.0198
    146  CD1       21.6660   -4.6680   11.6570 C.ar  301  TYR301     -0.0009
    147  CD2       21.7870   -2.5410   12.7650 C.ar  301  TYR301     -0.0009
    148  CE1       22.9340   -4.4360   11.0070 C.ar  301  TYR301      0.0417
    149  CE2       23.0320   -2.2820   12.1610 C.ar  301  TYR301      0.0417
    150  CZ        23.5450   -3.2310   11.2680 C.ar  301  TYR301      0.1957
    151  OH        24.7700   -3.0140   10.6730 O.3   301  TYR301     -0.2866
    152  N         17.7580   -7.9360   10.9710 N.3   304  TRP304     -0.1241
    153  CA        18.8970   -8.8550   11.2640 C.3   304  TRP304      0.1605
    154  C         18.9490   -9.1990   12.7460 C.2   304  TRP304      0.2264
    155  O         19.2160  -10.3560   13.0890 O.2   304  TRP304     -0.2867
    156  CB        20.2380   -8.2240   10.8350 C.3   304  TRP304      0.0550
    157  CG        20.2770   -7.8760    9.3560 C.ar  304  TRP304      0.0003
    158  CD1       20.3420   -6.6210    8.7990 C.ar  304  TRP304      0.0946
    159  CD2       20.1970   -8.7910    8.2670 C.ar  304  TRP304      0.0152
    160  NE1       20.3050   -6.6940    7.4280 N.ar  304  TRP304     -0.2442
    161  CE2       20.2140   -8.0150    7.0600 C.ar  304  TRP304      0.0810
    162  CE3       20.1400  -10.1740    8.1820 C.ar  304  TRP304      0.0012
    163  CZ2       20.1090   -8.6020    5.7880 C.ar  304  TRP304      0.0191
    164  CZ3       20.0300  -10.7560    6.9300 C.ar  304  TRP304      0.0001
    165  CH2       20.0450   -9.9620    5.7420 C.ar  304  TRP304      0.0015
    166  N         16.5040   -1.4680    0.3050 N.3   365  TYR365     -0.1241
    167  CA        17.0700   -2.4130    1.3070 C.3   365  TYR365      0.1605
    168  C         16.5500   -2.0310    2.6950 C.2   365  TYR365      0.2264
    169  O         16.0250   -2.9120    3.4450 O.2   365  TYR365     -0.2867
    170  CB        18.6130   -2.3660    1.2500 C.3   365  TYR365      0.0534
    171  CG        19.3330   -2.9210    2.4280 C.ar  365  TYR365     -0.0201
    172  CD1       19.6550   -4.2980    2.5100 C.ar  365  TYR365     -0.0009
    173  CD2       19.6790   -2.0910    3.4950 C.ar  365  TYR365     -0.0009
    174  CE1       20.3060   -4.8020    3.6340 C.ar  365  TYR365      0.0417
    175  CE2       20.3470   -2.5870    4.6080 C.ar  365  TYR365      0.0417
    176  CZ        20.6580   -3.9410    4.6840 C.ar  365  TYR365      0.1957
    177  OH        21.2710   -4.3960    5.8380 O.3   365  TYR365     -0.2866
@<TRIPOS>BOND
     1     1     2    1
     2     3     2    1
     3     3     4    2
     4     2     5    1
     5    20    21    1
     6     5     6    1
     7    17    18    2
     8    17    16    1
     9     7     6   ar
    10     7     9   ar
    11    22    23    2
    12    22    21    1
    13     6     8   ar
    14    15    16    1
    15    21    24    1
    16    16    19    1
    17     9    10   ar
    18     8    10   ar
    19     8    11   ar
    20    10    12   ar
    21    24    25    1
    22    11    13   ar
    23    12    14   ar
    24    25    27   ar
    25    25    26   ar
    26    13    14   ar
    27    27    29   ar
    28    58    57    2
    29   166   167    1
    30    59    60    1
    31    59    56    1
    32    41    40    1
    33    26    28   ar
    34    57    56    1
    35    29    30   ar
    36   170   167    1
    37   170   171    1
    38   167   168    1
    39    42    40    1
    40    56    55    1
    41    40    39    2
    42    28    30   ar
    43    30    31    1
    44   171   172   ar
    45   171   173   ar
    46   172   174   ar
    47   168   169    2
    48    55    45   am
    49    39    38    1
    50    35    34    2
    51    38    37    1
    52   173   175   ar
    53    34    33    1
    54    46    45    2
    55   174   176   ar
    56    36    37    1
    57    36    33    1
    58    45    44    1
    59    33    32    1
    60   175   176   ar
    61   176   177    1
    62    52    50   ar
    63    52    53   ar
    64    50    48   ar
    65    43    44    1
    66    44    47    1
    67    54    53    1
    68    53    51   ar
    69   165   163   ar
    70   165   164   ar
    71   163   161   ar
    72    48    47    1
    73    48    49   ar
    74    51    49   ar
    75    87    86    1
    76   164   162   ar
    77   161   160   ar
    78   161   159   ar
    79    93    92    1
    80   160   158   ar
    81    84    86   ar
    82    84    82   ar
    83   138   139    1
    84   138   135    1
    85    86    85   ar
    86   162   159   ar
    87   159   157   ar
    88    92    89    1
    89    82    81   ar
    90   158   157   ar
    91   135   134    1
    92   135   136    1
    93    85    83   ar
    94   133   131   ar
    95    89    90    1
    96    89    88    1
    97   157   156    1
    98   132   131   ar
    99    91    90    2
   100    75    72    1
   101   137   136    2
   102   136   140   am
   103   131   130    1
   104    74    73    2
   105    81    83   ar
   106    81    80    1
   107    73    72    1
   108    73    76   am
   109    72    71    1
   110   151   150    1
   111   156   153    1
   112   152   153    1
   113    77    76    1
   114    77    80    1
   115    77    78    1
   116   148   150   ar
   117   148   146   ar
   118   140   141    1
   119   153   154    1
   120   150   149   ar
   121   130   127    1
   122    69    70   ar
   123    69    67   ar
   124   108   106    1
   125   146   145   ar
   126    70    68   ar
   127    79    78    2
   128   128   127    1
   129   128   129    2
   130    67    66   ar
   131   141   142    1
   132   141   144    1
   133   127   126    1
   134   149   147   ar
   135   117   116    1
   136    68    66   ar
   137   145   147   ar
   138   145   144    1
   139    66    65    1
   140   142   143    2
   141   106   107    1
   142   106   105    2
   143   154   155    2
   144    65    62    1
   145   105   104    1
   146   116   115    1
   147    64    63    2
   148   124   123    1
   149    63    62    1
   150   115   114    1
   151   104   103    1
   152    62    61    1
   153    95    94    1
   154    95    96    1
   155   121   120    2
   156   122   123    1
   157   122   119    1
   158   103   102    1
   159   123   125    1
   160    97    96    2
   161    96    98   am
   162   120   119    1
   163   114   113    1
   164   113   110    1
   165   118   119    1
   166   118   111   am
   167   102    99    1
   168    98    99    1
   169   110   111    1
   170   110   109    1
   171    99   100    1
   172   111   112    2
   173   101   100    2
