@<TRIPOS>MOLECULE
tmp/4l9qA00.pdb
 220 213 0 0 0
SMALL
GASTEIGER

@<TRIPOS>ATOM
      1  N        -19.1710   -5.2580    7.2130 N.3   114  LEU114     -0.1231
      2  CA       -19.0940   -6.4980    7.9870 C.3   114  LEU114      0.1693
      3  C        -19.7310   -6.3640    9.3660 C.2   114  LEU114      0.2592
      4  O        -19.4980   -5.3910   10.0880 O.2   114  LEU114     -0.2718
      5  CB       -17.6470   -6.9740    8.1380 C.3   114  LEU114      0.0284
      6  CG       -16.8310   -7.4330    6.9240 C.3   114  LEU114      0.0019
      7  CD1      -17.6540   -8.2910    6.0020 C.3   114  LEU114      0.0001
      8  CD2      -16.2280   -6.2440    6.2060 C.3   114  LEU114      0.0001
      9  N        -20.4850   -7.3870    9.7530 N.am  115  VAL115     -0.1966
     10  CA       -21.3000   -7.3230   10.9610 C.3   115  VAL115      0.1727
     11  C        -20.5350   -7.5230   12.2690 C.2   115  VAL115      0.2616
     12  O        -20.9150   -6.9550   13.2840 O.2   115  VAL115     -0.2715
     13  CB       -22.4480   -8.3900   10.8820 C.3   115  VAL115      0.0290
     14  CG1      -21.8760   -9.8100   10.7690 C.3   115  VAL115      0.0023
     15  CG2      -23.4120   -8.2810   12.0670 C.3   115  VAL115      0.0023
     16  N        -19.4190   -8.2460   12.2060 N.am  116  ARG116     -0.1964
     17  CA       -18.6810   -8.7470   13.3800 C.3   116  ARG116      0.1714
     18  C        -19.6360   -9.3080   14.4370 C.2   116  ARG116      0.2458
     19  O        -20.2990   -8.5780   15.1570 O.2   116  ARG116     -0.2730
     20  CB       -17.6630   -7.7230   13.9530 C.3   116  ARG116      0.0347
     21  CG       -18.2140   -6.4030   14.5130 C.3   116  ARG116      0.0492
     22  CD       -17.1010   -5.3940   14.8270 C.3   116  ARG116      0.2205
     23  NE       -16.2010   -5.8180   15.9040 N.pl3 116  ARG116     -0.0865
     24  CZ       -15.3750   -5.0020   16.5680 C.cat 116  ARG116      0.5346
     25  NH1      -15.3320   -3.7040   16.2790 N.pl3 116  ARG116      0.1354
     26  NH2      -14.5940   -5.4800   17.5370 N.pl3 116  ARG116      0.1354
     27  N        -19.7040  -10.6370   14.5200 N.am  117  PRO117     -0.2727
     28  CA       -20.6470  -11.3320   15.3940 C.3   117  PRO117      0.1402
     29  C        -20.0540  -11.4360   16.7820 C.2   117  PRO117      0.2269
     30  O        -18.8880  -11.0830   16.9620 O.2   117  PRO117     -0.2865
     31  CB       -20.7560  -12.7250   14.7630 C.3   117  PRO117      0.0296
     32  CG       -19.9460  -12.6780   13.5080 C.3   117  PRO117      0.0237
     33  CD       -18.9390  -11.5890   13.7100 C.3   117  PRO117      0.0939
     34  N        -20.1100  -16.6260   19.1410 N.3   121  VAL121     -0.1231
     35  CA       -20.5670  -17.0760   17.8460 C.3   121  VAL121      0.1692
     36  C        -19.4160  -17.4510   16.9220 C.2   121  VAL121      0.2591
     37  O        -19.3500  -18.5960   16.4600 O.2   121  VAL121     -0.2718
     38  CB       -21.4490  -16.0120   17.1910 C.3   121  VAL121      0.0266
     39  CG1      -21.9050  -16.4970   15.8460 C.3   121  VAL121      0.0020
     40  CG2      -22.6550  -15.7150   18.0750 C.3   121  VAL121      0.0020
     41  N        -18.4920  -16.5080   16.7040 N.am  122  MET122     -0.1979
     42  CA       -17.3450  -16.7180   15.7960 C.3   122  MET122      0.1605
     43  C        -16.6040  -18.0080   16.1160 C.2   122  MET122      0.2287
     44  O        -16.3190  -18.8160   15.2230 O.2   122  MET122     -0.2864
     45  CB       -16.3630  -15.5330   15.8300 C.3   122  MET122      0.0413
     46  CG       -16.8500  -14.2620   15.1340 C.3   122  MET122      0.0598
     47  SD       -15.5470  -13.0110   14.8670 S.3   122  MET122     -0.1393
     48  CE       -15.6710  -11.9800   16.3350 C.3   122  MET122      0.0692
     49  N        -18.5180  -21.1420   15.0660 N.3   125  ALA125     -0.1245
     50  CA       -18.4220  -21.3150   13.6240 C.3   125  ALA125      0.1562
     51  C        -17.0390  -21.8000   13.2360 C.2   125  ALA125      0.2260
     52  O        -16.8760  -22.5250   12.2530 O.2   125  ALA125     -0.2867
     53  CB       -18.7130  -20.0010   12.9290 C.3   125  ALA125      0.0290
     54  N        -14.1530  -23.5690    6.1270 N.3   132  THR132     -0.1203
     55  CA       -15.0890  -22.5880    5.5750 C.3   132  THR132      0.1994
     56  C        -14.8500  -21.2230    6.1810 C.2   132  THR132      0.2617
     57  O        -14.7900  -20.2120    5.4770 O.2   132  THR132     -0.2717
     58  CB       -16.5310  -22.9430    5.9450 C.3   132  THR132      0.1784
     59  OG1      -16.9620  -24.0670    5.1880 O.3   132  THR132     -0.2211
     60  CG2      -17.4690  -21.7600    5.6990 C.3   132  THR132      0.0376
     61  N        -14.7190  -21.2170    7.5050 N.am  133  PHE133     -0.1975
     62  CA       -14.4930  -20.0120    8.2790 C.3   133  PHE133      0.1639
     63  C        -13.3180  -19.2170    7.7310 C.2   133  PHE133      0.2290
     64  O        -13.4060  -18.0020    7.5930 O.2   133  PHE133     -0.2864
     65  CB       -14.2210  -20.4010    9.7360 C.3   133  PHE133      0.0560
     66  CG       -14.1620  -19.2440   10.6800 C.ar  133  PHE133     -0.0200
     67  CD1      -15.3180  -18.6320   11.1200 C.ar  133  PHE133     -0.0042
     68  CD2      -12.9450  -18.7720   11.1340 C.ar  133  PHE133     -0.0042
     69  CE1      -15.2720  -17.5590   11.9910 C.ar  133  PHE133     -0.0003
     70  CE2      -12.8880  -17.7020   12.0010 C.ar  133  PHE133     -0.0003
     71  CZ       -14.0610  -17.0910   12.4240 C.ar  133  PHE133     -0.0000
     72  N        -14.0290  -17.9020    4.2420 N.3   136  LYS136     -0.1231
     73  CA       -14.9490  -16.7980    4.2960 C.3   136  LYS136      0.1693
     74  C        -14.1660  -15.5250    4.6420 C.2   136  LYS136      0.2592
     75  O        -14.4970  -14.4320    4.2070 O.2   136  LYS136     -0.2718
     76  CB       -16.1170  -17.1050    5.2260 C.3   136  LYS136      0.0285
     77  CG       -17.1490  -16.0090    5.2660 C.3   136  LYS136      0.0035
     78  CD       -18.2820  -16.0710    4.2370 C.3   136  LYS136      0.0206
     79  CE       -19.3270  -14.9820    4.5280 C.3   136  LYS136      0.1093
     80  NZ       -20.4230  -15.0010    3.5540 N.3   136  LYS136     -0.1314
     81  N        -13.0750  -15.6890    5.3620 N.am  137  TYR137     -0.1976
     82  CA       -12.1940  -14.5730    5.6440 C.3   137  TYR137      0.1639
     83  C        -11.4510  -14.1260    4.3880 C.2   137  TYR137      0.2290
     84  O        -11.5110  -12.9550    4.0260 O.2   137  TYR137     -0.2864
     85  CB       -11.1990  -14.9630    6.7400 C.3   137  TYR137      0.0560
     86  CG       -10.0730  -13.9790    6.9480 C.ar  137  TYR137     -0.0198
     87  CD1      -10.2470  -12.8790    7.7710 C.ar  137  TYR137     -0.0009
     88  CD2       -8.8290  -14.1670    6.3530 C.ar  137  TYR137     -0.0009
     89  CE1       -9.2410  -11.9790    7.9840 C.ar  137  TYR137      0.0417
     90  CE2       -7.8150  -13.2670    6.5490 C.ar  137  TYR137      0.0417
     91  CZ        -8.0290  -12.1730    7.3720 C.ar  137  TYR137      0.1957
     92  OH        -7.0370  -11.2490    7.5740 O.3   137  TYR137     -0.2866
     93  N        -13.8420  -12.3340    1.9080 N.3   140  GLU140     -0.1231
     94  CA       -14.3140  -10.9960    2.2750 C.3   140  GLU140      0.1699
     95  C        -13.3060   -9.8580    2.0600 C.2   140  GLU140      0.2592
     96  O        -13.6700   -8.7670    1.6080 O.2   140  GLU140     -0.2718
     97  CB       -14.8200  -10.9690    3.7320 C.3   140  GLU140      0.0402
     98  CG       -16.1270  -11.7060    4.0070 C.3   140  GLU140      0.1161
     99  CD       -17.2840  -11.1300    3.2350 C.2   140  GLU140      0.3649
    100  OE1      -17.0980  -10.1060    2.5490 O.co2 140  GLU140     -0.2457
    101  OE2      -18.3880  -11.7050    3.3010 O.co2 140  GLU140     -0.2457
    102  N        -12.0480  -10.1270    2.3840 N.am  141  ILE141     -0.1980
    103  CA       -10.9720   -9.1580    2.2500 C.3   141  ILE141      0.1595
    104  C        -10.5780   -8.9830    0.8020 C.2   141  ILE141      0.2287
    105  O        -10.3420   -7.8700    0.3450 O.2   141  ILE141     -0.2864
    106  CB        -9.7800   -9.5810    3.1010 C.3   141  ILE141      0.0276
    107  CG1      -10.1210   -9.3380    4.5670 C.3   141  ILE141      0.0022
    108  CG2       -8.4800   -8.8800    2.6570 C.3   141  ILE141      0.0022
    109  CD1       -9.1330   -9.8410    5.4540 C.3   141  ILE141      0.0001
    110  N        -12.9510   -6.9380   -1.0910 N.3   144  ARG144     -0.1231
    111  CA       -12.9690   -5.5680   -0.5910 C.3   144  ARG144      0.1694
    112  C        -11.6770   -4.8610   -0.9110 C.2   144  ARG144      0.2592
    113  O        -11.6480   -3.6540   -1.0520 O.2   144  ARG144     -0.2718
    114  CB       -13.1960   -5.5510    0.9040 C.3   144  ARG144      0.0321
    115  CG       -14.6250   -5.8090    1.2490 C.3   144  ARG144      0.0489
    116  CD       -14.8820   -5.6760    2.7360 C.3   144  ARG144      0.2205
    117  NE       -16.3140   -5.6050    2.9890 N.pl3 144  ARG144     -0.0865
    118  CZ       -17.0980   -6.6690    3.0210 C.cat 144  ARG144      0.5346
    119  NH1      -16.5580   -7.8720    2.8840 N.pl3 144  ARG144      0.1354
    120  NH2      -18.3960   -6.5310    3.2380 N.pl3 144  ARG144      0.1354
    121  N        -10.6210   -5.6420   -1.0780 N.am  145  HIS145     -0.1976
    122  CA        -9.3100   -5.1330   -1.3930 C.3   145  HIS145      0.1656
    123  C         -8.7970   -5.9170   -2.5900 C.2   145  HIS145      0.2291
    124  O         -8.0050   -6.8420   -2.4400 O.2   145  HIS145     -0.2864
    125  CB        -8.3910   -5.3100   -0.1880 C.3   145  HIS145      0.0771
    126  CG        -8.8830   -4.6130    1.0480 C.ar  145  HIS145      0.0820
    127  ND1       -8.4570   -3.3540    1.4140 N.ar  145  HIS145     -0.2267
    128  CD2       -9.7790   -4.9910    1.9900 C.ar  145  HIS145      0.1154
    129  CE1       -9.0630   -2.9900    2.5300 C.ar  145  HIS145      0.1986
    130  NE2       -9.8770   -3.9620    2.8950 N.ar  145  HIS145     -0.2212
    131  N         -5.0050   -6.6270   -2.7810 N.3   148  PHE148     -0.1241
    132  CA        -4.2570   -7.2260   -1.6930 C.3   148  PHE148      0.1605
    133  C         -3.2500   -8.1980   -2.3030 C.2   148  PHE148      0.2264
    134  O         -3.5790   -8.9780   -3.2020 O.2   148  PHE148     -0.2867
    135  CB        -5.1890   -7.9200   -0.7150 C.3   148  PHE148      0.0534
    136  CG        -4.6880   -7.9160    0.7080 C.ar  148  PHE148     -0.0203
    137  CD1       -3.5750   -8.6490    1.0730 C.ar  148  PHE148     -0.0042
    138  CD2       -5.3470   -7.1900    1.6740 C.ar  148  PHE148     -0.0042
    139  CE1       -3.1310   -8.6590    2.3750 C.ar  148  PHE148     -0.0003
    140  CE2       -4.9200   -7.1840    2.9590 C.ar  148  PHE148     -0.0003
    141  CZ        -3.8020   -7.9110    3.3280 C.ar  148  PHE148     -0.0000
    142  N         -1.9140  -13.5350    6.2210 N.3   156  PHE156     -0.1241
    143  CA        -2.9610  -12.9910    7.0890 C.3   156  PHE156      0.1605
    144  C         -3.9890  -14.0180    7.5330 C.2   156  PHE156      0.2264
    145  O         -4.3340  -14.0760    8.7110 O.2   156  PHE156     -0.2867
    146  CB        -3.6790  -11.8110    6.4130 C.3   156  PHE156      0.0534
    147  CG        -2.9390  -10.4990    6.5480 C.ar  156  PHE156     -0.0203
    148  CD1       -1.8680  -10.2000    5.7260 C.ar  156  PHE156     -0.0042
    149  CD2       -3.3220   -9.5700    7.4960 C.ar  156  PHE156     -0.0042
    150  CE1       -1.1940   -9.0260    5.8620 C.ar  156  PHE156     -0.0003
    151  CE2       -2.6480   -8.3850    7.6220 C.ar  156  PHE156     -0.0003
    152  CZ        -1.5810   -8.1190    6.8080 C.ar  156  PHE156     -0.0000
    153  N         -4.8340  -15.2870   11.1260 N.3   160  TYR160     -0.1241
    154  CA        -6.2410  -15.2090   11.4610 C.3   160  TYR160      0.1605
    155  C         -6.7040  -16.5170   12.0880 C.2   160  TYR160      0.2264
    156  O         -7.4020  -16.5050   13.1010 O.2   160  TYR160     -0.2867
    157  CB        -7.0460  -14.8800   10.1990 C.3   160  TYR160      0.0534
    158  CG        -8.5220  -14.6740   10.4170 C.ar  160  TYR160     -0.0201
    159  CD1       -9.0020  -13.5490   11.0790 C.ar  160  TYR160     -0.0009
    160  CD2       -9.4400  -15.6060    9.9520 C.ar  160  TYR160     -0.0009
    161  CE1      -10.3710  -13.3570   11.2580 C.ar  160  TYR160      0.0417
    162  CE2      -10.7960  -15.4270   10.1310 C.ar  160  TYR160      0.0417
    163  CZ       -11.2570  -14.3090   10.7770 C.ar  160  TYR160      0.1957
    164  OH       -12.6100  -14.1480   10.9460 O.3   160  TYR160     -0.2866
    165  N        -10.0370   -9.9390   20.3870 N.3   178  LEU178     -0.1245
    166  CA       -10.1990   -8.6310   19.7650 C.3   178  LEU178      0.1561
    167  C         -8.9420   -7.7690   19.4980 C.2   178  LEU178      0.2260
    168  O         -8.9030   -7.0350   18.5110 O.2   178  LEU178     -0.2867
    169  CB       -11.3130   -7.8340   20.4530 C.3   178  LEU178      0.0270
    170  CG       -12.7930   -8.2010   20.2130 C.3   178  LEU178      0.0019
    171  CD1      -13.0970   -9.6450   20.4960 C.3   178  LEU178      0.0001
    172  CD2      -13.7190   -7.3200   21.0520 C.3   178  LEU178      0.0001
    173  N         -7.4580   -9.2220   16.3460 N.3   181  LEU181     -0.1231
    174  CA        -8.2380   -8.8830   15.1500 C.3   181  LEU181      0.1693
    175  C         -8.0850   -7.3980   14.7860 C.2   181  LEU181      0.2592
    176  O         -8.0650   -7.0410   13.5990 O.2   181  LEU181     -0.2718
    177  CB        -9.7250   -9.2190   15.3460 C.3   181  LEU181      0.0284
    178  CG       -10.1600  -10.6890   15.4250 C.3   181  LEU181      0.0019
    179  CD1      -11.6710  -10.8300   15.4580 C.3   181  LEU181      0.0001
    180  CD2       -9.5980  -11.4750   14.2570 C.3   181  LEU181      0.0001
    181  N         -8.0230   -6.5430   15.8130 N.am  182  ASP182     -0.1974
    182  CA        -7.7590   -5.1120   15.6490 C.3   182  ASP182      0.1709
    183  C         -6.3890   -4.8830   15.0130 C.2   182  ASP182      0.2293
    184  O         -6.2540   -4.0980   14.0760 O.2   182  ASP182     -0.2864
    185  CB        -7.8770   -4.3870   16.9860 C.3   182  ASP182      0.1436
    186  CG        -9.3130   -3.9400   17.3000 C.2   182  ASP182      0.3671
    187  OD1      -10.2890   -4.4440   16.6810 O.co2 182  ASP182     -0.2456
    188  OD2       -9.4600   -3.0720   18.1920 O.co2 182  ASP182     -0.2456
    189  N         -4.7900   -7.1340   13.2560 N.3   184  LEU184     -0.1231
    190  CA        -4.9340   -7.6990   11.9220 C.3   184  LEU184      0.1693
    191  C         -5.6890   -6.7870   10.9570 C.2   184  LEU184      0.2591
    192  O         -5.2860   -6.6540    9.8070 O.2   184  LEU184     -0.2718
    193  CB        -5.5630   -9.0920   11.9870 C.3   184  LEU184      0.0284
    194  CG        -4.5800  -10.2220   12.3300 C.3   184  LEU184      0.0019
    195  CD1       -5.2530  -11.5930   12.4910 C.3   184  LEU184      0.0001
    196  CD2       -3.4630  -10.3080   11.2940 C.3   184  LEU184      0.0001
    197  N         -6.7500   -6.1320   11.4160 N.am  185  ARG185     -0.1980
    198  CA        -7.4390   -5.1920   10.5440 C.3   185  ARG185      0.1597
    199  C         -6.5200   -4.0310   10.0930 C.2   185  ARG185      0.2287
    200  O         -6.3980   -3.7750    8.8980 O.2   185  ARG185     -0.2864
    201  CB        -8.7210   -4.6730   11.1990 C.3   185  ARG185      0.0334
    202  CG        -9.4150   -3.5880   10.3890 C.3   185  ARG185      0.0492
    203  CD       -10.7250   -3.0620   11.0190 C.3   185  ARG185      0.2205
    204  NE       -11.3970   -2.0190   10.2010 N.pl3 185  ARG185     -0.0865
    205  CZ       -12.3900   -2.2060    9.3110 C.cat 185  ARG185      0.5346
    206  NH1      -12.9330   -3.4120    9.0990 N.pl3 185  ARG185      0.1354
    207  NH2      -12.8810   -1.1560    8.6500 N.pl3 185  ARG185      0.1354
    208  N         -3.6740   -5.0630    7.8130 N.3   188  GLY188     -0.1210
    209  CA        -4.2520   -5.4180    6.5260 C.3   188  GLY188      0.1956
    210  C         -4.6170   -4.2410    5.6330 C.2   188  GLY188      0.2611
    211  O         -4.3340   -4.2490    4.4280 O.2   188  GLY188     -0.2717
    212  N         -5.2700   -3.2320    6.2060 N.am  189  LYS189     -0.1979
    213  CA        -5.4750   -1.9910    5.4830 C.3   189  LYS189      0.1596
    214  C         -4.1360   -1.4190    5.0130 C.2   189  LYS189      0.2287
    215  O         -3.9960   -1.0390    3.8500 O.2   189  LYS189     -0.2864
    216  CB        -6.3320   -1.0010    6.2680 C.3   189  LYS189      0.0298
    217  CG        -7.7900   -1.4070    6.3430 C.3   189  LYS189      0.0038
    218  CD        -8.6430   -0.4010    7.0890 C.3   189  LYS189      0.0206
    219  CE        -8.1830    1.0320    6.8630 C.3   189  LYS189      0.1093
    220  NZ        -8.5820    1.9840    7.9560 N.3   189  LYS189     -0.1314
@<TRIPOS>BOND
     1   134   133    2
     2   131   132    1
     3   123   124    2
     4   123   122    1
     5   133   132    1
     6   132   135    1
     7   122   121    1
     8   122   125    1
     9   110   111    1
    10   121   112   am
    11   113   112    2
    12   112   111    1
    13   135   136    1
    14   111   114    1
    15   125   126    1
    16   105   104    2
    17   136   137   ar
    18   136   138   ar
    19   104   103    1
    20   114   115    1
    21   126   127   ar
    22   126   128   ar
    23   137   139   ar
    24   115   116    1
    25   127   129   ar
    26    96    95    2
    27   138   140   ar
    28    93    94    1
    29   128   130   ar
    30    95    94    1
    31    95   102   am
    32   103   102    1
    33   103   106    1
    34    94    97    1
    35   139   141   ar
    36   129   130   ar
    37   100    99   ar
    38   108   106    1
    39   116   117    1
    40   119   118    1
    41   140   141   ar
    42   117   118    2
    43   118   120    1
    44   106   107    1
    45    99   101   ar
    46    99    98    1
    47    80    79    1
    48    97    98    1
    49   215   214    2
    50    84    83    2
    51    75    74    2
    52    78    79    1
    53    78    77    1
    54    72    73    1
    55    73    74    1
    56    73    76    1
    57    83    82    1
    58   211   210    2
    59   107   109    1
    60    74    81   am
    61   214   213    1
    62    59    58    1
    63    76    77    1
    64    81    82    1
    65    57    56    2
    66   213   212    1
    67   213   216    1
    68    55    58    1
    69    55    54    1
    70    55    56    1
    71   210   212   am
    72   210   209    1
    73    82    85    1
    74    60    58    1
    75   148   150   ar
    76   148   147   ar
    77   150   152   ar
    78     7     6    1
    79    56    61   am
    80     8     6    1
    81   142   143    1
    82   216   217    1
    83   217   218    1
    84    88    90   ar
    85    88    86   ar
    86   146   147    1
    87   146   143    1
    88   209   208    1
    89   147   149   ar
    90    90    91   ar
    91    85    86    1
    92   152   151   ar
    93   219   218    1
    94   219   220    1
    95     6     5    1
    96    86    87   ar
    97   143   144    1
    98     1     2    1
    99    91    92    1
   100    91    89   ar
   101   149   151   ar
   102    61    62    1
   103   144   145    2
   104    64    63    2
   105    63    62    1
   106    87    89   ar
   107     2     5    1
   108     2     3    1
   109    62    65    1
   110   207   205    1
   111   200   199    2
   112   206   205    1
   113   205   204    2
   114     3     9   am
   115     3     4    2
   116    65    66    1
   117     9    10    1
   118   192   191    2
   119   160   162   ar
   120   160   158   ar
   121   199   198    1
   122   162   163   ar
   123   157   158    1
   124   157   154    1
   125   204   203    1
   126   202   203    1
   127   202   201    1
   128   158   159   ar
   129   198   201    1
   130   198   197    1
   131    66    67   ar
   132    66    68   ar
   133    14    13    1
   134   163   164    1
   135   163   161   ar
   136    13    10    1
   137    13    15    1
   138   191   197   am
   139   191   190    1
   140    10    11    1
   141   159   161   ar
   142    67    69   ar
   143   153   154    1
   144    68    70   ar
   145   196   194    1
   146   154   155    1
   147   190   193    1
   148   190   189    1
   149   193   194    1
   150    69    71   ar
   151    70    71   ar
   152   155   156    2
   153    16    11   am
   154    16    17    1
   155    52    51    2
   156    11    12    2
   157   194   195    1
   158    53    50    1
   159    51    50    1
   160    17    20    1
   161    17    18    1
   162    32    33    1
   163    32    31    1
   164   176   175    2
   165    50    49    1
   166    33    27    1
   167    20    21    1
   168   184   183    2
   169   180   178    1
   170    18    27   am
   171    18    19    2
   172    21    22    1
   173    27    28    1
   174    31    28    1
   175   175   174    1
   176   175   181   am
   177    22    23    1
   178    47    46    1
   179    47    48    1
   180   183   182    1
   181    46    45    1
   182   174   177    1
   183   174   173    1
   184    44    43    2
   185   177   178    1
   186    28    29    1
   187   178   179    1
   188   182   181    1
   189   182   185    1
   190    42    45    1
   191    42    43    1
   192    42    41    1
   193    39    38    1
   194    23    24    2
   195    25    24    1
   196    37    36    2
   197    24    26    1
   198   187   186   ar
   199    41    36   am
   200    29    30    2
   201    36    35    1
   202   185   186    1
   203    38    35    1
   204    38    40    1
   205   186   188   ar
   206    35    34    1
   207   168   167    2
   208   167   166    1
   209   166   165    1
   210   166   169    1
   211   170   169    1
   212   170   171    1
   213   170   172    1
