@<TRIPOS>MOLECULE
tmp/4l9zD00.pdb
 164 160 0 0 0
SMALL
GASTEIGER

@<TRIPOS>ATOM
      1  N          3.1430  -82.9770  -28.1100 N.3    17  LEU17      -0.1231
      2  CA         2.7300  -81.8550  -28.9510 C.3    17  LEU17       0.1693
      3  C          1.9740  -80.8000  -28.1570 C.2    17  LEU17       0.2592
      4  O          0.9280  -81.0830  -27.5710 O.2    17  LEU17      -0.2718
      5  CB         1.8660  -82.3460  -30.1170 C.3    17  LEU17       0.0284
      6  CG         1.2730  -81.2650  -31.0230 C.3    17  LEU17       0.0019
      7  CD1        2.3680  -80.4110  -31.6530 C.3    17  LEU17       0.0001
      8  CD2        0.3830  -81.8940  -32.0930 C.3    17  LEU17       0.0001
      9  N          2.5020  -79.5800  -28.1570 N.am   18  PHE18      -0.1962
     10  CA         1.9230  -78.4850  -27.3870 C.3    18  PHE18       0.1771
     11  C          1.0490  -77.5710  -28.2350 C.2    18  PHE18       0.2620
     12  O          1.2720  -77.4140  -29.4350 O.2    18  PHE18      -0.2715
     13  CB         3.0240  -77.6480  -26.7260 C.3    18  PHE18       0.0574
     14  CG         3.5730  -78.2490  -25.4630 C.ar   18  PHE18      -0.0200
     15  CD1        4.3300  -79.4080  -25.5040 C.ar   18  PHE18      -0.0042
     16  CD2        3.3420  -77.6430  -24.2350 C.ar   18  PHE18      -0.0042
     17  CE1        4.8390  -79.9610  -24.3410 C.ar   18  PHE18      -0.0003
     18  CE2        3.8510  -78.1900  -23.0700 C.ar   18  PHE18      -0.0003
     19  CZ         4.6030  -79.3490  -23.1240 C.ar   18  PHE18      -0.0000
     20  N          0.0610  -76.9610  -27.5910 N.am   19  GLY19      -0.1940
     21  CA        -0.7990  -75.9870  -28.2320 C.3    19  GLY19       0.1998
     22  C         -1.4520  -75.1070  -27.1870 C.2    19  GLY19       0.2480
     23  O         -1.9250  -75.6060  -26.1670 O.2    19  GLY19      -0.2729
     24  N         -1.4680  -73.7880  -27.4250 N.am   20  PRO20      -0.2726
     25  CA        -2.0640  -72.8460  -26.4720 C.3    20  PRO20       0.1402
     26  C         -3.5700  -73.0420  -26.3430 C.2    20  PRO20       0.2269
     27  O         -4.2540  -73.2520  -27.3440 O.2    20  PRO20      -0.2865
     28  CB        -1.7450  -71.4740  -27.0820 C.3    20  PRO20       0.0296
     29  CG        -1.4580  -71.7440  -28.5220 C.3    20  PRO20       0.0237
     30  CD        -0.8410  -73.1010  -28.5680 C.3    20  PRO20       0.0939
     31  N         -6.1670  -71.0160  -28.4780 N.3    23  ARG23      -0.1245
     32  CA        -6.3930  -71.2910  -29.8930 C.3    23  ARG23       0.1563
     33  C         -7.0730  -72.6430  -30.0670 C.2    23  ARG23       0.2260
     34  O         -6.4400  -73.6080  -30.5010 O.2    23  ARG23      -0.2867
     35  CB        -5.0740  -71.2740  -30.6690 C.3    23  ARG23       0.0307
     36  CG        -4.4080  -69.9100  -30.7450 C.3    23  ARG23       0.0489
     37  CD        -3.1230  -69.9630  -31.5680 C.3    23  ARG23       0.2205
     38  NE        -3.3630  -70.3610  -32.9540 N.pl3  23  ARG23      -0.0865
     39  CZ        -2.4020  -70.5570  -33.8530 C.cat  23  ARG23       0.5346
     40  NH1       -1.1300  -70.3970  -33.5150 N.pl3  23  ARG23       0.1354
     41  NH2       -2.7130  -70.9180  -35.0910 N.pl3  23  ARG23       0.1354
     42  N         -6.8720  -75.2990  -33.0350 N.3    26  LEU26      -0.1245
     43  CA        -5.7640  -76.2380  -33.1860 C.3    26  LEU26       0.1561
     44  C         -6.0730  -77.6130  -32.6040 C.2    26  LEU26       0.2260
     45  O         -5.4480  -78.6020  -32.9850 O.2    26  LEU26      -0.2867
     46  CB        -4.5010  -75.6890  -32.5160 C.3    26  LEU26       0.0270
     47  CG        -3.9090  -74.3820  -33.0450 C.3    26  LEU26       0.0019
     48  CD1       -2.5990  -74.0730  -32.3330 C.3    26  LEU26       0.0001
     49  CD2       -3.7020  -74.4500  -34.5470 C.3    26  LEU26       0.0001
     50  N         -6.7100  -80.6720  -34.7730 N.3    29  LYS29      -0.1231
     51  CA        -5.4880  -80.9510  -35.5160 C.3    29  LYS29       0.1693
     52  C         -4.5050  -81.7110  -34.6340 C.2    29  LYS29       0.2591
     53  O         -3.8770  -82.6740  -35.0750 O.2    29  LYS29      -0.2718
     54  CB        -4.8580  -79.6510  -36.0200 C.3    29  LYS29       0.0285
     55  CG        -5.7280  -78.8950  -37.0150 C.3    29  LYS29       0.0035
     56  CD        -5.1220  -77.5490  -37.3860 C.3    29  LYS29       0.0206
     57  CE        -5.9620  -76.8470  -38.4430 C.3    29  LYS29       0.1093
     58  NZ        -5.4470  -75.4880  -38.7610 N.3    29  LYS29      -0.1314
     59  N         -4.3870  -81.2790  -33.3810 N.am   30  MET30      -0.1979
     60  CA        -3.5190  -81.9450  -32.4130 C.3    30  MET30       0.1605
     61  C         -3.9760  -83.3780  -32.1700 C.2    30  MET30       0.2287
     62  O         -3.1600  -84.2990  -32.1260 O.2    30  MET30      -0.2864
     63  CB        -3.4970  -81.1690  -31.0940 C.3    30  MET30       0.0413
     64  CG        -2.9930  -79.7420  -31.2290 C.3    30  MET30       0.0598
     65  SD        -3.1140  -78.8030  -29.6960 S.3    30  MET30      -0.1393
     66  CE        -1.9170  -79.6610  -28.6750 C.3    30  MET30       0.0692
     67  N         -2.0150  -76.0560  -23.3310 N.3    41  ASP41      -0.1239
     68  CA        -1.2440  -75.1280  -22.5100 C.3    41  ASP41       0.1674
     69  C         -2.0590  -73.9890  -21.9140 C.2    41  ASP41       0.2266
     70  O         -2.8370  -73.3280  -22.6040 O.2    41  ASP41      -0.2867
     71  CB        -0.0550  -74.5630  -23.2970 C.3    41  ASP41       0.1410
     72  CG         0.9410  -73.8400  -22.4040 C.2    41  ASP41       0.3668
     73  OD1        1.0260  -74.1920  -21.2080 O.co2  41  ASP41      -0.2456
     74  OD2        1.6360  -72.9230  -22.8920 O.co2  41  ASP41      -0.2456
     75  N          2.8850  -70.5090  -20.6210 N.3    44  ASP44      -0.1225
     76  CA         3.6830  -69.5120  -21.3420 C.3    44  ASP44       0.1805
     77  C          3.3710  -69.2880  -22.8260 C.2    44  ASP44       0.2598
     78  O          4.0360  -68.4820  -23.4720 O.2    44  ASP44      -0.2718
     79  CB         5.1850  -69.7690  -21.1550 C.3    44  ASP44       0.1424
     80  CG         5.7190  -69.1900  -19.8560 C.2    44  ASP44       0.3668
     81  OD1        4.9470  -68.5190  -19.1380 O.co2  44  ASP44      -0.2456
     82  OD2        6.9160  -69.3870  -19.5590 O.co2  44  ASP44      -0.2456
     83  N          2.3780  -69.9820  -23.3710 N.am   45  SER45      -0.1952
     84  CA         1.9420  -69.6830  -24.7360 C.3    45  SER45       0.1924
     85  C          0.6200  -68.9230  -24.7190 C.2    45  SER45       0.2314
     86  O          0.0650  -68.5930  -25.7660 O.2    45  SER45      -0.2863
     87  CB         1.8210  -70.9540  -25.5830 C.3    45  SER45       0.2116
     88  OG         0.7710  -71.7850  -25.1240 O.3    45  SER45      -0.2180
     89  N         -0.7250  -78.3130  -19.2350 N.3    75  ARG75      -0.1245
     90  CA         0.2630  -77.5500  -18.4810 C.3    75  ARG75       0.1563
     91  C         -0.4130  -76.3910  -17.7650 C.2    75  ARG75       0.2260
     92  O         -0.9310  -75.4720  -18.4010 O.2    75  ARG75      -0.2867
     93  CB         1.3950  -77.0320  -19.3740 C.3    75  ARG75       0.0307
     94  CG         2.4290  -76.2160  -18.5970 C.3    75  ARG75       0.0489
     95  CD         3.6870  -75.9290  -19.4010 C.3    75  ARG75       0.2205
     96  NE         3.4960  -74.8730  -20.3910 N.pl3  75  ARG75      -0.0865
     97  CZ         4.4880  -74.2840  -21.0530 C.cat  75  ARG75       0.5346
     98  NH1        5.7460  -74.6420  -20.8240 N.pl3  75  ARG75       0.1354
     99  NH2        4.2250  -73.3320  -21.9380 N.pl3  75  ARG75       0.1354
    100  N         16.1340  -71.0340  -28.1760 N.3   179  ILE179     -0.1245
    101  CA        15.5100  -72.0730  -27.3660 C.3   179  ILE179      0.1561
    102  C         16.1100  -73.4330  -27.7030 C.2   179  ILE179      0.2260
    103  O         15.7490  -74.0490  -28.7060 O.2   179  ILE179     -0.2867
    104  CB        13.9810  -72.0960  -27.5710 C.3   179  ILE179      0.0252
    105  CG1       13.3930  -70.7100  -27.2880 C.3   179  ILE179      0.0019
    106  CG2       13.3320  -73.1460  -26.6840 C.3   179  ILE179      0.0019
    107  CD1       11.8920  -70.6230  -27.4770 C.3   179  ILE179      0.0001
    108  N         11.2730  -77.9780  -25.5940 N.3   222  PRO222     -0.2116
    109  CA        11.0520  -77.3120  -26.8790 C.3   222  PRO222      0.1372
    110  C         12.3480  -76.9480  -27.5960 C.2   222  PRO222      0.2244
    111  O         13.3390  -76.5840  -26.9620 O.2   222  PRO222     -0.2868
    112  CB        10.3070  -76.0380  -26.4800 C.3   222  PRO222      0.0268
    113  CG        10.8060  -75.7390  -25.1080 C.3   222  PRO222      0.0207
    114  CD        11.0020  -77.0830  -24.4540 C.3   222  PRO222      0.0892
    115  N         11.6680  -73.8590  -35.5550 N.3   226  PHE226     -0.1241
    116  CA        10.9350  -74.8540  -36.3360 C.3   226  PHE226      0.1605
    117  C         11.2590  -74.7840  -37.8300 C.2   226  PHE226      0.2264
    118  O         10.7980  -75.6140  -38.6100 O.2   226  PHE226     -0.2867
    119  CB         9.4210  -74.7730  -36.0880 C.3   226  PHE226      0.0534
    120  CG         8.8290  -73.4140  -36.3340 C.ar  226  PHE226     -0.0203
    121  CD1        8.4050  -73.0450  -37.6000 C.ar  226  PHE226     -0.0042
    122  CD2        8.6760  -72.5130  -35.2920 C.ar  226  PHE226     -0.0042
    123  CE1        7.8540  -71.7980  -37.8270 C.ar  226  PHE226     -0.0003
    124  CE2        8.1260  -71.2650  -35.5110 C.ar  226  PHE226     -0.0003
    125  CZ         7.7130  -70.9060  -36.7810 C.ar  226  PHE226     -0.0000
    126  N          9.4530  -82.4430  -26.9990 N.3   248  TRP248     -0.1241
    127  CA         8.2900  -81.6310  -27.3200 C.3   248  TRP248      0.1605
    128  C          8.2720  -81.2910  -28.8010 C.2   248  TRP248      0.2264
    129  O          9.3230  -81.1240  -29.4260 O.2   248  TRP248     -0.2867
    130  CB         8.3100  -80.3050  -26.5570 C.3   248  TRP248      0.0550
    131  CG         8.2640  -80.3860  -25.0650 C.ar  248  TRP248      0.0003
    132  CD1        8.4520  -81.4890  -24.2830 C.ar  248  TRP248      0.0946
    133  CD2        8.0120  -79.2970  -24.1720 C.ar  248  TRP248      0.0152
    134  NE1        8.3340  -81.1490  -22.9530 N.ar  248  TRP248     -0.2442
    135  CE2        8.0640  -79.8080  -22.8610 C.ar  248  TRP248      0.0810
    136  CE3        7.7390  -77.9360  -24.3560 C.ar  248  TRP248      0.0012
    137  CZ2        7.8610  -79.0060  -21.7390 C.ar  248  TRP248      0.0191
    138  CZ3        7.5430  -77.1410  -23.2450 C.ar  248  TRP248      0.0001
    139  CH2        7.6040  -77.6780  -21.9510 C.ar  248  TRP248      0.0015
    140  N          6.6060  -78.1070  -30.7600 N.3   250  ILE250     -0.1231
    141  CA         5.8860  -76.8480  -30.6360 C.3   250  ILE250      0.1692
    142  C          5.3960  -76.3790  -32.0040 C.2   250  ILE250      0.2592
    143  O          4.9430  -75.2460  -32.1640 O.2   250  ILE250     -0.2718
    144  CB         6.7450  -75.7670  -29.9560 C.3   250  ILE250      0.0266
    145  CG1        8.1310  -75.6840  -30.6040 C.3   250  ILE250      0.0019
    146  CG2        6.8840  -76.0730  -28.4730 C.3   250  ILE250      0.0020
    147  CD1        8.2350  -74.6760  -31.7350 C.3   250  ILE250      0.0001
    148  N          5.5040  -77.2730  -32.9820 N.am  251  HIS251     -0.1962
    149  CA         5.0060  -77.0460  -34.3380 C.3   251  HIS251      0.1772
    150  C          4.8040  -78.4220  -34.9670 C.2   251  HIS251      0.2462
    151  O          5.6000  -79.3260  -34.7240 O.2   251  HIS251     -0.2730
    152  CB         6.0140  -76.2320  -35.1560 C.3   251  HIS251      0.0785
    153  CG         5.4630  -75.7060  -36.4470 C.ar  251  HIS251      0.0821
    154  ND1        5.0820  -76.5300  -37.4830 N.ar  251  HIS251     -0.2267
    155  CD2        5.2310  -74.4400  -36.8670 C.ar  251  HIS251      0.1154
    156  CE1        4.6260  -75.7950  -38.4830 C.ar  251  HIS251      0.1986
    157  NE2        4.7080  -74.5250  -38.1350 N.ar  251  HIS251     -0.2212
    158  N          3.7270  -78.5960  -35.7520 N.am  252  PRO252     -0.2727
    159  CA         3.3660  -79.8940  -36.3420 C.3   252  PRO252      0.1402
    160  C          4.4820  -80.6680  -37.0670 C.2   252  PRO252      0.2269
    161  O          4.5150  -81.8910  -36.9590 O.2   252  PRO252     -0.2865
    162  CB         2.2590  -79.5210  -37.3300 C.3   252  PRO252      0.0296
    163  CG         1.6010  -78.3610  -36.7120 C.3   252  PRO252      0.0237
    164  CD         2.6530  -77.6020  -35.9330 C.3   252  PRO252      0.0939
@<TRIPOS>BOND
     1    58    57    1
     2   118   117    2
     3   156   157   ar
     4   156   154   ar
     5    57    56    1
     6   157   155   ar
     7   117   116    1
     8   123   121   ar
     9   123   125   ar
    10   121   120   ar
    11   154   153   ar
    12    56    55    1
    13   162   163    1
    14   162   159    1
    15   160   161    2
    16   160   159    1
    17    55    54    1
    18   155   153   ar
    19   125   124   ar
    20   163   164    1
    21   153   152    1
    22   159   158    1
    23   116   119    1
    24   116   115    1
    25   120   119    1
    26   120   122   ar
    27    54    51    1
    28   164   158    1
    29   158   150   am
    30    51    50    1
    31    51    52    1
    32   124   122   ar
    33   152   149    1
    34    41    39    1
    35    53    52    2
    36   150   151    2
    37   150   149    1
    38    52    59   am
    39    49    47    1
    40   149   148    1
    41    39    40    1
    42    39    38    2
    43    59    60    1
    44    43    42    1
    45    43    44    1
    46    43    46    1
    47    47    46    1
    48    47    48    1
    49    45    44    2
    50   148   142   am
    51    38    37    1
    52    60    61    1
    53    60    63    1
    54    61    62    2
    55   143   142    2
    56     8     6    1
    57   142   141    1
    58   147   145    1
    59     7     6    1
    60    37    36    1
    61    64    63    1
    62    64    65    1
    63     6     5    1
    64   140   141    1
    65    36    35    1
    66    35    32    1
    67   141   144    1
    68   145   144    1
    69    34    33    2
    70     5     2    1
    71    33    32    1
    72   144   146    1
    73    32    31    1
    74    65    66    1
    75    12    11    2
    76   129   128    2
    77     2     3    1
    78     2     1    1
    79   128   127    1
    80   103   102    2
    81    30    29    1
    82    30    24    1
    83    29    28    1
    84    11    20   am
    85    11    10    1
    86    21    20    1
    87    21    22    1
    88   100   101    1
    89     9     3   am
    90     9    10    1
    91     3     4    2
    92   102   101    1
    93   110   111    2
    94   110   109    1
    95   104   101    1
    96   104   105    1
    97   104   106    1
    98   107   105    1
    99    24    22   am
   100    24    25    1
   101    10    13    1
   102    27    26    2
   103   127   126    1
   104   127   130    1
   105    22    23    2
   106    28    25    1
   107   109   112    1
   108   109   108    1
   109    13    14    1
   110   130   131    1
   111   112   113    1
   112    25    26    1
   113    86    85    2
   114   108   114    1
   115    87    88    1
   116    87    84    1
   117    15    14   ar
   118    15    17   ar
   119    14    16   ar
   120   113   114    1
   121   131   132   ar
   122   131   133   ar
   123    84    85    1
   124    84    83    1
   125   136   133   ar
   126   136   138   ar
   127    17    19   ar
   128   132   134   ar
   129    16    18   ar
   130   133   135   ar
   131    78    77    2
   132    83    77   am
   133    67    68    1
   134    71    68    1
   135    71    72    1
   136   138   139   ar
   137    19    18   ar
   138   134   135   ar
   139    74    72   ar
   140   135   137   ar
   141    77    76    1
   142    70    69    2
   143    68    69    1
   144    72    73   ar
   145   139   137   ar
   146    99    97    1
   147    76    79    1
   148    76    75    1
   149    79    80    1
   150    97    98    1
   151    97    96    2
   152    96    95    1
   153    80    82   ar
   154    80    81   ar
   155    95    94    1
   156    93    94    1
   157    93    90    1
   158    89    90    1
   159    90    91    1
   160    92    91    2
