@<TRIPOS>MOLECULE
tmp/4la0B00.pdb
 151 146 0 0 0
SMALL
GASTEIGER

@<TRIPOS>ATOM
      1  N         -9.3860  -12.5180   41.2350 N.3   113  LEU113     -0.1231
      2  CA       -10.6140  -11.8830   40.7340 C.3   113  LEU113      0.1693
      3  C        -10.9980  -12.2620   39.2880 C.2   113  LEU113      0.2592
      4  O        -10.5780  -11.5920   38.3380 O.2   113  LEU113     -0.2718
      5  CB       -10.5000  -10.3540   40.8720 C.3   113  LEU113      0.0284
      6  CG       -11.7410   -9.5440   41.2640 C.3   113  LEU113      0.0019
      7  CD1      -12.2860   -9.9910   42.5950 C.3   113  LEU113      0.0001
      8  CD2      -11.4260   -8.0610   41.3040 C.3   113  LEU113      0.0001
      9  N        -11.8240  -13.3010   39.1190 N.am  114  VAL114     -0.1966
     10  CA       -12.2260  -13.7450   37.7700 C.3   114  VAL114      0.1727
     11  C        -13.1010  -12.7150   37.0670 C.2   114  VAL114      0.2616
     12  O        -14.1360  -12.3190   37.5930 O.2   114  VAL114     -0.2715
     13  CB       -13.0330  -15.0920   37.8110 C.3   114  VAL114      0.0290
     14  CG1      -14.0860  -15.0890   38.9280 C.3   114  VAL114      0.0023
     15  CG2      -13.7090  -15.3800   36.4540 C.3   114  VAL114      0.0023
     16  N        -12.7230  -12.3000   35.8630 N.am  115  ARG115     -0.1964
     17  CA       -13.5870  -11.3800   35.1370 C.3   115  ARG115      0.1714
     18  C        -14.4950  -12.1670   34.2120 C.2   115  ARG115      0.2458
     19  O        -14.0250  -12.8110   33.2830 O.2   115  ARG115     -0.2730
     20  CB       -12.7720  -10.3280   34.3940 C.3   115  ARG115      0.0347
     21  CG       -13.5920   -9.1580   33.8910 C.3   115  ARG115      0.0492
     22  CD       -12.9530   -8.5410   32.6610 C.3   115  ARG115      0.2205
     23  NE       -11.9010   -7.5890   33.0140 N.pl3 115  ARG115     -0.0865
     24  CZ       -11.0020   -7.1230   32.1490 C.cat 115  ARG115      0.5346
     25  NH1      -11.0370   -7.5230   30.8900 N.pl3 115  ARG115      0.1354
     26  NH2      -10.0780   -6.2460   32.5360 N.pl3 115  ARG115      0.1354
     27  N        -15.8090  -12.1090   34.4660 N.am  116  PRO116     -0.2727
     28  CA       -16.8230  -12.8260   33.6780 C.3   116  PRO116      0.1402
     29  C        -16.9800  -12.2780   32.2560 C.2   116  PRO116      0.2269
     30  O        -16.3880  -11.2600   31.8960 O.2   116  PRO116     -0.2865
     31  CB       -18.1310  -12.5710   34.4580 C.3   116  PRO116      0.0296
     32  CG       -17.7120  -11.9830   35.7710 C.3   116  PRO116      0.0237
     33  CD       -16.4180  -11.2890   35.5270 C.3   116  PRO116      0.0939
     34  N        -22.2410  -11.2940   30.5980 N.3   120  VAL120     -0.1231
     35  CA       -22.7970  -11.4200   31.9460 C.3   120  VAL120      0.1692
     36  C        -22.5870  -10.1610   32.7880 C.2   120  VAL120      0.2591
     37  O        -23.5160   -9.6860   33.4450 O.2   120  VAL120     -0.2718
     38  CB       -22.1480  -12.5820   32.7150 C.3   120  VAL120      0.0266
     39  CG1      -22.7590  -12.6850   34.0950 C.3   120  VAL120      0.0020
     40  CG2      -22.3020  -13.8910   31.9370 C.3   120  VAL120      0.0020
     41  N        -21.3760   -9.6080   32.7180 N.am  121  MET121     -0.1979
     42  CA       -21.0390   -8.3740   33.4090 C.3   121  MET121      0.1605
     43  C        -22.0330   -7.3060   33.0850 C.2   121  MET121      0.2287
     44  O        -22.5000   -6.6090   33.9880 O.2   121  MET121     -0.2864
     45  CB       -19.6680   -7.8770   32.9830 C.3   121  MET121      0.0413
     46  CG       -18.5370   -8.6590   33.5620 C.3   121  MET121      0.0598
     47  SD       -17.0060   -7.9100   33.0160 S.3   121  MET121     -0.1393
     48  CE       -16.7210   -6.8780   34.4080 C.3   121  MET121      0.0692
     49  N        -25.6760   -8.0100   34.7290 N.3   124  ALA124     -0.1245
     50  CA       -25.7060   -7.7640   36.1700 C.3   124  ALA124      0.1562
     51  C        -25.6940   -6.2680   36.4180 C.2   124  ALA124      0.2260
     52  O        -26.2410   -5.7860   37.3990 O.2   124  ALA124     -0.2867
     53  CB       -24.5250   -8.4390   36.8540 C.3   124  ALA124      0.0290
     54  N        -26.0990   -2.6760   43.2470 N.3   131  THR131     -0.1203
     55  CA       -25.4220   -3.8190   43.8580 C.3   131  THR131      0.1994
     56  C        -24.1350   -4.1660   43.1190 C.2   131  THR131      0.2617
     57  O        -23.1360   -4.5540   43.7290 O.2   131  THR131     -0.2717
     58  CB       -26.3590   -5.0370   43.9650 C.3   131  THR131      0.1784
     59  OG1      -27.4480   -4.7020   44.8290 O.3   131  THR131     -0.2211
     60  CG2      -25.6340   -6.2510   44.5330 C.3   131  THR131      0.0376
     61  N        -24.1720   -4.0090   41.8000 N.am  132  PHE132     -0.1975
     62  CA       -23.0050   -4.2000   40.9540 C.3   132  PHE132      0.1639
     63  C        -21.8590   -3.2920   41.4050 C.2   132  PHE132      0.2290
     64  O        -20.7380   -3.7390   41.5770 O.2   132  PHE132     -0.2864
     65  CB       -23.3830   -3.8870   39.5040 C.3   132  PHE132      0.0560
     66  CG       -22.3140   -4.2200   38.5130 C.ar  132  PHE132     -0.0200
     67  CD1      -22.2710   -5.4700   37.9080 C.ar  132  PHE132     -0.0042
     68  CD2      -21.3530   -3.2840   38.1760 C.ar  132  PHE132     -0.0042
     69  CE1      -21.2840   -5.7830   36.9890 C.ar  132  PHE132     -0.0003
     70  CE2      -20.3680   -3.5930   37.2630 C.ar  132  PHE132     -0.0003
     71  CZ       -20.3340   -4.8450   36.6680 C.ar  132  PHE132     -0.0000
     72  N        -20.6030   -4.0180   44.8710 N.3   135  LYS135     -0.1231
     73  CA       -19.7450   -5.2120   44.8300 C.3   135  LYS135      0.1693
     74  C        -18.3340   -4.8190   44.3970 C.2   135  LYS135      0.2592
     75  O        -17.3370   -5.4070   44.8360 O.2   135  LYS135     -0.2718
     76  CB       -20.3010   -6.2600   43.8490 C.3   135  LYS135      0.0285
     77  CG       -21.4010   -7.1890   44.4050 C.3   135  LYS135      0.0035
     78  CD       -20.8430   -8.5570   44.8250 C.3   135  LYS135      0.0206
     79  CE       -21.9530   -9.5060   45.3050 C.3   135  LYS135      0.1093
     80  NZ       -23.0920   -9.6340   44.3310 N.3   135  LYS135     -0.1314
     81  N        -18.2670   -3.8310   43.5070 N.am  136  TYR136     -0.1976
     82  CA       -17.0030   -3.2920   43.0450 C.3   136  TYR136      0.1639
     83  C        -16.2280   -2.5990   44.1950 C.2   136  TYR136      0.2290
     84  O        -15.0450   -2.8550   44.4090 O.2   136  TYR136     -0.2864
     85  CB       -17.2500   -2.3290   41.8800 C.3   136  TYR136      0.0560
     86  CG       -16.0280   -1.5140   41.5710 C.ar  136  TYR136     -0.0198
     87  CD1      -15.0480   -2.0090   40.7250 C.ar  136  TYR136     -0.0009
     88  CD2      -15.8190   -0.2660   42.1720 C.ar  136  TYR136     -0.0009
     89  CE1      -13.9120   -1.2850   40.4690 C.ar  136  TYR136      0.0417
     90  CE2      -14.6780    0.4700   41.9150 C.ar  136  TYR136      0.0417
     91  CZ       -13.7340   -0.0430   41.0630 C.ar  136  TYR136      0.1957
     92  OH       -12.6060    0.6830   40.8050 O.3   136  TYR136     -0.2866
     93  N        -15.0880   -5.3840   46.6270 N.3   139  GLU139     -0.1231
     94  CA       -14.0070   -6.2460   46.1520 C.3   139  GLU139      0.1699
     95  C        -12.6780   -5.5270   46.0890 C.2   139  GLU139      0.2592
     96  O        -11.6360   -6.1380   46.3210 O.2   139  GLU139     -0.2718
     97  CB       -14.3010   -6.8600   44.7690 C.3   139  GLU139      0.0402
     98  CG       -15.4110   -7.9000   44.7250 C.3   139  GLU139      0.1161
     99  CD       -15.1330   -9.1140   45.5950 C.2   139  GLU139      0.3649
    100  OE1      -14.0050   -9.2400   46.1200 O.co2 139  GLU139     -0.2457
    101  OE2      -16.0570   -9.9410   45.7840 O.co2 139  GLU139     -0.2457
    102  N        -12.7090   -4.2460   45.7290 N.am  140  ILE140     -0.1980
    103  CA       -11.4880   -3.4450   45.6320 C.3   140  ILE140      0.1595
    104  C        -10.9290   -3.0330   46.9970 C.2   140  ILE140      0.2287
    105  O         -9.7100   -3.0800   47.2150 O.2   140  ILE140     -0.2864
    106  CB       -11.7050   -2.1830   44.7720 C.3   140  ILE140      0.0276
    107  CG1      -11.8020   -2.5600   43.2910 C.3   140  ILE140      0.0022
    108  CG2      -10.5320   -1.2190   44.9350 C.3   140  ILE140      0.0022
    109  CD1      -10.6390   -3.4280   42.8060 C.3   140  ILE140      0.0001
    110  N        -16.4170    3.4330   36.6050 N.3   159  TYR159     -0.1241
    111  CA       -16.8090    2.0720   36.2580 C.3   159  TYR159      0.1605
    112  C        -18.2620    2.0600   35.8230 C.2   159  TYR159      0.2264
    113  O        -18.6200    1.4230   34.8350 O.2   159  TYR159     -0.2867
    114  CB       -16.6460    1.1180   37.4450 C.3   159  TYR159      0.0534
    115  CG       -15.3610    0.3450   37.4010 C.ar  159  TYR159     -0.0201
    116  CD1      -14.1820    0.8810   37.9370 C.ar  159  TYR159     -0.0009
    117  CD2      -15.3090   -0.9140   36.8190 C.ar  159  TYR159     -0.0009
    118  CE1      -12.9770    0.1800   37.8860 C.ar  159  TYR159      0.0417
    119  CE2      -14.1180   -1.6290   36.7710 C.ar  159  TYR159      0.0417
    120  CZ       -12.9550   -1.0800   37.3050 C.ar  159  TYR159      0.1957
    121  OH       -11.7730   -1.7950   37.2470 O.3   159  TYR159     -0.2866
    122  N        -19.5450    1.0870   31.9900 N.3   163  PHE163     -0.1241
    123  CA       -20.5590    0.0820   31.7690 C.3   163  PHE163      0.1605
    124  C        -21.7950    0.6930   31.1400 C.2   163  PHE163      0.2264
    125  O        -22.4520    0.0770   30.3050 O.2   163  PHE163     -0.2867
    126  CB       -20.9120   -0.5990   33.0880 C.3   163  PHE163      0.0534
    127  CG       -20.0090   -1.7540   33.4290 C.ar  163  PHE163     -0.0203
    128  CD1      -20.2690   -3.0220   32.9280 C.ar  163  PHE163     -0.0042
    129  CD2      -18.8890   -1.5700   34.2470 C.ar  163  PHE163     -0.0042
    130  CE1      -19.4360   -4.0980   33.2290 C.ar  163  PHE163     -0.0003
    131  CE2      -18.0490   -2.6320   34.5560 C.ar  163  PHE163     -0.0003
    132  CZ       -18.3210   -3.9030   34.0470 C.ar  163  PHE163     -0.0000
    133  N        -11.7720   -1.0360   31.1910 N.3   180  LEU180     -0.1245
    134  CA       -11.5130   -1.7840   32.4080 C.3   180  LEU180      0.1561
    135  C        -10.0180   -2.0110   32.6480 C.2   180  LEU180      0.2260
    136  O         -9.5370   -1.8270   33.7690 O.2   180  LEU180     -0.2867
    137  CB       -12.2560   -3.1080   32.3870 C.3   180  LEU180      0.0270
    138  CG       -13.7800   -3.0200   32.3050 C.3   180  LEU180      0.0019
    139  CD1      -14.4310   -4.3830   32.5850 C.3   180  LEU180      0.0001
    140  CD2      -14.3190   -1.9510   33.2150 C.3   180  LEU180      0.0001
    141  N         -8.1980   -0.6500   35.9230 N.3   184  ARG184     -0.1245
    142  CA        -7.4710   -1.5910   36.7640 C.3   184  ARG184      0.1563
    143  C         -6.0640   -1.0570   36.9500 C.2   184  ARG184      0.2260
    144  O         -5.5240   -1.1190   38.0580 O.2   184  ARG184     -0.2867
    145  CB        -7.4080   -2.9900   36.1560 C.3   184  ARG184      0.0307
    146  CG        -6.9060   -4.0500   37.1260 C.3   184  ARG184      0.0489
    147  CD        -6.4490   -5.3410   36.4380 C.3   184  ARG184      0.2205
    148  NE        -5.9690   -6.3270   37.4170 N.pl3 184  ARG184     -0.0865
    149  CZ        -4.6940   -6.6540   37.6270 C.cat 184  ARG184      0.5346
    150  NH1       -3.7200   -6.0960   36.9110 N.pl3 184  ARG184      0.1354
    151  NH2       -4.3980   -7.5590   38.5540 N.pl3 184  ARG184      0.1354
@<TRIPOS>BOND
     1   125   124    2
     2    34    35    1
     3    25    24    1
     4   124   123    1
     5   133   134    1
     6   123   122    1
     7   123   126    1
     8    30    29    2
     9    40    38    1
    10    35    38    1
    11    35    36    1
    12    24    26    1
    13    24    23    2
    14    29    28    1
    15   138   137    1
    16   138   139    1
    17   138   140    1
    18   137   134    1
    19   134   135    1
    20   135   136    2
    21    22    23    1
    22    22    21    1
    23    38    39    1
    24    41    36   am
    25    41    42    1
    26    36    37    2
    27   128   130   ar
    28   128   127   ar
    29    45    42    1
    30    45    46    1
    31    47    46    1
    32    47    48    1
    33    43    42    1
    34    43    44    2
    35   126   127    1
    36   130   132   ar
    37    19    18    2
    38   127   129   ar
    39    28    31    1
    40    28    27    1
    41    21    20    1
    42   132   131   ar
    43    18    27   am
    44    18    17    1
    45   129   131   ar
    46    20    17    1
    47    31    32    1
    48    27    33    1
    49    49    50    1
    50   113   112    2
    51    17    16    1
    52    33    32    1
    53   112   111    1
    54    16    11   am
    55   141   142    1
    56   145   142    1
    57   145   146    1
    58    50    51    1
    59    50    53    1
    60   111   110    1
    61   111   114    1
    62    51    52    2
    63   147   146    1
    64   147   148    1
    65    15    13    1
    66    71    69   ar
    67    71    70   ar
    68   142   143    1
    69   119   117   ar
    70   119   120   ar
    71   117   115   ar
    72   150   149    1
    73   143   144    2
    74    69    67   ar
    75    11    12    2
    76    11    10    1
    77   121   120    1
    78    70    68   ar
    79   120   118   ar
    80   115   114    1
    81   115   116   ar
    82   148   149    2
    83   149   151    1
    84    10    13    1
    85    10     9    1
    86    13    14    1
    87   118   116   ar
    88    67    66   ar
    89    68    66   ar
    90     4     3    2
    91    66    65    1
    92     9     3   am
    93     3     2    1
    94    65    62    1
    95    89    87   ar
    96    89    91   ar
    97    87    86   ar
    98     2     5    1
    99     2     1    1
   100    92    91    1
   101     5     6    1
   102    62    63    1
   103    62    61    1
   104    91    90   ar
   105     6     8    1
   106     6     7    1
   107    63    64    2
   108    86    85    1
   109    86    88   ar
   110    61    56   am
   111    85    82    1
   112    90    88   ar
   113   109   107    1
   114    82    81    1
   115    82    83    1
   116    56    57    2
   117    56    55    1
   118    54    55    1
   119   107   106    1
   120    81    74   am
   121    76    77    1
   122    76    73    1
   123    55    58    1
   124    58    60    1
   125    58    59    1
   126    83    84    2
   127    80    79    1
   128    74    73    1
   129    74    75    2
   130    77    78    1
   131    98    97    1
   132    98    99    1
   133    97    94    1
   134   106   108    1
   135   106   103    1
   136    78    79    1
   137    73    72    1
   138    99   101   ar
   139    99   100   ar
   140   103   102    1
   141   103   104    1
   142   102    95   am
   143    95    94    1
   144    95    96    2
   145    94    93    1
   146   104   105    2
