@<TRIPOS>MOLECULE
tmp/4la6A00.pdb
 196 186 0 0 0
SMALL
GASTEIGER

@<TRIPOS>ATOM
      1  N        -18.5520   43.1980    8.3160 N.3    49  PHE49      -0.1241
      2  CA       -18.7480   41.8160    7.8720 C.3    49  PHE49       0.1605
      3  C        -17.7810   40.8390    8.5710 C.2    49  PHE49       0.2264
      4  O        -18.0400   39.6350    8.6320 O.2    49  PHE49      -0.2867
      5  CB       -18.6120   41.7190    6.3420 C.3    49  PHE49       0.0534
      6  CG       -19.3550   40.5550    5.7340 C.ar   49  PHE49      -0.0203
      7  CD1      -20.7250   40.6390    5.4870 C.ar   49  PHE49      -0.0042
      8  CD2      -18.6860   39.3780    5.4040 C.ar   49  PHE49      -0.0042
      9  CE1      -21.4220   39.5630    4.9270 C.ar   49  PHE49      -0.0003
     10  CE2      -19.3750   38.2940    4.8390 C.ar   49  PHE49      -0.0003
     11  CZ       -20.7490   38.3900    4.6030 C.ar   49  PHE49      -0.0000
     12  N        -16.2190   35.2390   -1.3680 N.3    75  MET75      -0.1245
     13  CA       -17.2400   35.5570   -0.3670 C.3    75  MET75       0.1570
     14  C        -17.6340   37.0320   -0.4900 C.2    75  MET75       0.2261
     15  O        -18.8250   37.3890   -0.5750 O.2    75  MET75      -0.2867
     16  CB       -16.7120   35.2160    1.0400 C.3    75  MET75       0.0387
     17  CG       -17.5310   35.7310    2.2400 C.3    75  MET75       0.0595
     18  SD       -19.1400   34.9360    2.4080 S.3    75  MET75      -0.1393
     19  CE       -18.7300   33.2250    2.8260 C.3    75  MET75       0.0692
     20  N        -19.5000   37.6110   -3.7130 N.3    78  GLU78      -0.1231
     21  CA       -20.8460   37.0540   -3.6090 C.3    78  GLU78       0.1699
     22  C        -21.7550   38.0440   -2.8750 C.2    78  GLU78       0.2592
     23  O        -22.8550   38.3520   -3.3490 O.2    78  GLU78      -0.2718
     24  CB       -20.8160   35.6590   -2.9520 C.3    78  GLU78       0.0402
     25  CG       -20.2410   34.5300   -3.8770 C.3    78  GLU78       0.1161
     26  CD       -19.4350   33.4510   -3.1240 C.2    78  GLU78       0.3649
     27  OE1      -19.3700   33.4910   -1.8710 O.co2  78  GLU78      -0.2457
     28  OE2      -18.8620   32.5530   -3.7850 O.co2  78  GLU78      -0.2457
     29  N        -21.2760   38.5750   -1.7480 N.am   79  ASN79      -0.1974
     30  CA       -22.0080   39.5970   -0.9980 C.3    79  ASN79       0.1688
     31  C        -22.2780   40.8410   -1.8090 C.2    79  ASN79       0.2292
     32  O        -23.3800   41.3870   -1.7700 O.2    79  ASN79      -0.2864
     33  CB       -21.2550   40.0390    0.2540 C.3    79  ASN79       0.1181
     34  CG       -21.0600   38.9280    1.2420 C.2    79  ASN79       0.2629
     35  OD1      -21.8950   38.0310    1.3690 O.2    79  ASN79      -0.2716
     36  ND2      -19.9430   38.9790    1.9600 N.am   79  ASN79      -0.0877
     37  N        -25.1400   40.2900   -4.2300 N.3    82  ASP82      -0.1239
     38  CA       -26.4250   40.1220   -3.5630 C.3    82  ASP82       0.1674
     39  C        -26.8790   41.4450   -2.9750 C.2    82  ASP82       0.2266
     40  O        -28.0670   41.7700   -2.9840 O.2    82  ASP82      -0.2867
     41  CB       -26.3390   39.0540   -2.4680 C.3    82  ASP82       0.1410
     42  CG       -27.7160   38.6260   -1.9590 C.2    82  ASP82       0.3668
     43  OD1      -28.6420   38.4620   -2.7950 O.co2  82  ASP82      -0.2456
     44  OD2      -27.8690   38.4480   -0.7290 O.co2  82  ASP82      -0.2456
     45  N        -26.7440   29.2010   -7.3020 N.3   159  LEU159     -0.1245
     46  CA       -26.9870   30.3760   -6.4650 C.3   159  LEU159      0.1561
     47  C        -27.8280   31.4400   -7.1930 C.2   159  LEU159      0.2260
     48  O        -28.7890   31.9960   -6.6370 O.2   159  LEU159     -0.2867
     49  CB       -25.6500   30.9880   -6.0300 C.3   159  LEU159      0.0270
     50  CG       -25.7290   32.3000   -5.2560 C.3   159  LEU159      0.0019
     51  CD1      -26.3690   32.0710   -3.8960 C.3   159  LEU159      0.0001
     52  CD2      -24.3140   32.9030   -5.1230 C.3   159  LEU159      0.0001
     53  N        -31.4390   33.1510   -6.3810 N.3   163  TYR163     -0.1241
     54  CA       -31.7410   34.5920   -6.3680 C.3   163  TYR163      0.1605
     55  C        -32.9800   34.9200   -7.2000 C.2   163  TYR163      0.2264
     56  O        -33.8220   35.7160   -6.7900 O.2   163  TYR163     -0.2867
     57  CB       -30.5710   35.4160   -6.9250 C.3   163  TYR163      0.0534
     58  CG       -29.3310   35.4600   -6.0610 C.ar  163  TYR163     -0.0201
     59  CD1      -29.3590   35.0250   -4.7420 C.ar  163  TYR163     -0.0009
     60  CD2      -28.1320   35.9460   -6.5690 C.ar  163  TYR163     -0.0009
     61  CE1      -28.2170   35.0680   -3.9450 C.ar  163  TYR163      0.0417
     62  CE2      -26.9870   35.9990   -5.7810 C.ar  163  TYR163      0.0417
     63  CZ       -27.0380   35.5590   -4.4690 C.ar  163  TYR163      0.1957
     64  OH       -25.9100   35.6090   -3.6790 O.3   163  TYR163     -0.2866
     65  N        -36.3400   33.8240   -5.7040 N.3   166  GLU166     -0.1245
     66  CA       -36.6590   34.7650   -4.6250 C.3   166  GLU166      0.1567
     67  C        -37.1500   36.1000   -5.1880 C.2   166  GLU166      0.2260
     68  O        -38.1420   36.6600   -4.7130 O.2   166  GLU166     -0.2867
     69  CB       -35.4330   34.9800   -3.7340 C.3   166  GLU166      0.0388
     70  CG       -35.5980   36.0410   -2.6490 C.3   166  GLU166      0.1160
     71  CD       -34.2740   36.3550   -1.9750 C.2   166  GLU166      0.3649
     72  OE1      -33.3520   36.8390   -2.6610 O.co2 166  GLU166     -0.2457
     73  OE2      -34.1420   36.1060   -0.7680 O.co2 166  GLU166     -0.2457
     74  N        -34.3570   28.0520   -1.0900 N.3   185  ARG185     -0.1245
     75  CA       -33.2460   28.2640   -0.1540 C.3   185  ARG185      0.1563
     76  C        -32.1920   27.1490   -0.2370 C.2   185  ARG185      0.2260
     77  O        -31.1410   27.2190    0.4130 O.2   185  ARG185     -0.2867
     78  CB       -33.7880   28.4030    1.2740 C.3   185  ARG185      0.0307
     79  CG       -32.8730   29.1480    2.2440 C.3   185  ARG185      0.0489
     80  CD       -32.6300   30.5950    1.8120 C.3   185  ARG185      0.2205
     81  NE       -32.0630   31.4010    2.9010 N.pl3 185  ARG185     -0.0865
     82  CZ       -31.0460   32.2600    2.7740 C.cat 185  ARG185      0.5346
     83  NH1      -30.6100   32.9380    3.8320 N.pl3 185  ARG185      0.1354
     84  NH2      -30.4540   32.4470    1.6000 N.pl3 185  ARG185      0.1354
     85  N        -30.4450   29.2880   -3.3560 N.3   188  ASN188     -0.1225
     86  CA       -30.0590   30.5810   -2.7980 C.3   188  ASN188      0.1785
     87  C        -29.4430   30.2770   -1.4370 C.2   188  ASN188      0.2597
     88  O        -30.1110   30.3540   -0.4120 O.2   188  ASN188     -0.2718
     89  CB       -31.3080   31.4580   -2.6680 C.3   188  ASN188      0.1169
     90  CG       -31.0230   32.8030   -2.0270 C.2   188  ASN188      0.2627
     91  OD1      -29.8970   33.1050   -1.6460 O.2   188  ASN188     -0.2716
     92  ND2      -32.0560   33.6180   -1.9020 N.am  188  ASN188     -0.0877
     93  N        -28.1550   29.9330   -1.4440 N.am  189  ASN189     -0.1960
     94  CA       -27.6050   29.0470   -0.4250 C.3   189  ASN189      0.1819
     95  C        -26.0890   29.2580   -0.3020 C.2   189  ASN189      0.2621
     96  O        -25.4310   29.6810   -1.2570 O.2   189  ASN189     -0.2715
     97  CB       -27.9400   27.5990   -0.8490 C.3   189  ASN189      0.1195
     98  CG       -27.7130   26.5700    0.2470 C.2   189  ASN189      0.2630
     99  OD1      -28.6600   26.0690    0.8570 O.2   189  ASN189     -0.2716
    100  ND2      -26.4610   26.1940    0.4490 N.am  189  ASN189     -0.0877
    101  N        -25.5350   28.9940    0.8750 N.am  190  PHE190     -0.1974
    102  CA       -24.0850   29.1490    1.0740 C.3   190  PHE190      0.1639
    103  C        -23.2530   28.1390    0.2750 C.2   190  PHE190      0.2290
    104  O        -22.0400   28.2850    0.1780 O.2   190  PHE190     -0.2864
    105  CB       -23.7300   29.0340    2.5580 C.3   190  PHE190      0.0560
    106  CG       -24.1030   30.2440    3.3600 C.ar  190  PHE190     -0.0200
    107  CD1      -23.4700   31.4550    3.1340 C.ar  190  PHE190     -0.0042
    108  CD2      -25.0990   30.1730    4.3420 C.ar  190  PHE190     -0.0042
    109  CE1      -23.8150   32.6020    3.8770 C.ar  190  PHE190     -0.0003
    110  CE2      -25.4470   31.3010    5.0800 C.ar  190  PHE190     -0.0003
    111  CZ       -24.8020   32.5160    4.8570 C.ar  190  PHE190     -0.0000
    112  N        -21.8480   27.3890   -2.4950 N.3   192  PRO192     -0.2102
    113  CA       -20.5820   27.6260   -3.2120 C.3   192  PRO192      0.1504
    114  C        -19.4080   27.8530   -2.2580 C.2   192  PRO192      0.2576
    115  O        -18.2670   27.8360   -2.6970 O.2   192  PRO192     -0.2718
    116  CB       -20.8490   28.9170   -3.9980 C.3   192  PRO192      0.0282
    117  CG       -22.3660   28.9960   -4.1080 C.3   192  PRO192      0.0208
    118  CD       -22.8920   28.3660   -2.8530 C.3   192  PRO192      0.0893
    119  N        -19.6760   28.0650   -0.9740 N.am  193  CYS193     -0.1971
    120  CA       -18.5890   28.3580   -0.0400 C.3   193  CYS193      0.1712
    121  C        -17.9700   27.1070    0.5770 C.2   193  CYS193      0.2296
    122  O        -16.7570   26.9090    0.4790 O.2   193  CYS193     -0.2864
    123  CB       -19.0330   29.3620    1.0270 C.3   193  CYS193      0.0983
    124  SG       -19.6660   30.9050    0.2920 S.3   193  CYS193     -0.0798
    125  N        -27.4580   27.2400    5.7160 N.3   227  THR227     -0.1218
    126  CA       -28.1810   28.3890    5.1700 C.3   227  THR227      0.1862
    127  C        -29.3930   28.7420    6.0540 C.2   227  THR227      0.2287
    128  O        -29.6720   29.9130    6.2950 O.2   227  THR227     -0.2866
    129  CB       -28.5800   28.1560    3.6870 C.3   227  THR227      0.1770
    130  OG1      -27.3980   27.8800    2.9150 O.3   227  THR227     -0.2211
    131  CG2      -29.2690   29.3750    3.1260 C.3   227  THR227      0.0375
    132  N        -28.5740   31.0680    8.7850 N.3   230  ASN230     -0.1240
    133  CA       -28.6990   32.4770    8.4820 C.3   230  ASN230      0.1653
    134  C        -30.1300   32.9740    8.6630 C.2   230  ASN230      0.2266
    135  O        -30.3590   34.0550    9.2420 O.2   230  ASN230     -0.2867
    136  CB       -28.2120   32.7830    7.0730 C.3   230  ASN230      0.1155
    137  CG       -28.4750   34.2090    6.6900 C.2   230  ASN230      0.2627
    138  OD1      -29.5430   34.5210    6.1920 O.2   230  ASN230     -0.2716
    139  ND2      -27.5220   35.0960    6.9560 N.am  230  ASN230     -0.0877
    140  N        -30.6560   36.0350   11.1650 N.3   234  SER234     -0.1217
    141  CA       -30.9620   37.2980   10.5040 C.3   234  SER234      0.1889
    142  C        -32.4630   37.5970   10.5020 C.2   234  SER234      0.2288
    143  O        -32.9020   38.5710    9.9030 O.2   234  SER234     -0.2866
    144  CB       -30.4270   37.3020    9.0710 C.3   234  SER234      0.2089
    145  OG       -31.0480   36.2600    8.3350 O.3   234  SER234     -0.2183
    146  N        -33.3300   41.1720   11.7750 N.3   237  LYS237     -0.1231
    147  CA       -32.8850   42.1260   10.7680 C.3   237  LYS237      0.1693
    148  C        -33.8920   42.2030    9.6200 C.2   237  LYS237      0.2591
    149  O        -34.2260   43.2820    9.1360 O.2   237  LYS237     -0.2718
    150  CB       -31.5070   41.7210   10.2180 C.3   237  LYS237      0.0285
    151  CG       -31.1660   42.3840    8.8950 C.3   237  LYS237      0.0035
    152  CD       -29.8840   41.8480    8.2650 C.3   237  LYS237      0.0206
    153  CE       -29.6790   42.4970    6.9000 C.3   237  LYS237      0.1093
    154  NZ       -28.3910   42.1430    6.2470 N.3   237  LYS237     -0.1314
    155  N        -34.3820   41.0510    9.1830 N.am  238  GLU238     -0.1979
    156  CA       -35.1760   41.0290    7.9650 C.3   238  GLU238      0.1602
    157  C        -36.5840   41.5920    8.1440 C.2   238  GLU238      0.2287
    158  O        -37.1980   42.0460    7.1760 O.2   238  GLU238     -0.2864
    159  CB       -35.1440   39.6390    7.3170 C.3   238  GLU238      0.0415
    160  CG       -33.8600   39.4710    6.5090 C.3   238  GLU238      0.1163
    161  CD       -33.4160   38.0430    6.3290 C.2   238  GLU238      0.3649
    162  OE1      -34.2050   37.1070    6.5890 O.co2 238  GLU238     -0.2457
    163  OE2      -32.2510   37.8640    5.9140 O.co2 238  GLU238     -0.2457
    164  N        -39.7260   40.3810    3.5280 N.3   245  HIS245     -0.1241
    165  CA       -38.6050   39.5100    3.1900 C.3   245  HIS245      0.1621
    166  C        -38.7990   38.0830    3.7130 C.2   245  HIS245      0.2264
    167  O        -38.9890   37.8720    4.9120 O.2   245  HIS245     -0.2867
    168  CB       -37.2990   40.0890    3.7260 C.3   245  HIS245      0.0745
    169  CG       -36.0850   39.3830    3.2180 C.ar  245  HIS245      0.0817
    170  ND1      -35.4230   39.7760    2.0750 N.ar  245  HIS245     -0.2268
    171  CD2      -35.4260   38.2940    3.6800 C.ar  245  HIS245      0.1154
    172  CE1      -34.3930   38.9740    1.8670 C.ar  245  HIS245      0.1986
    173  NE2      -34.3730   38.0660    2.8270 N.ar  245  HIS245     -0.2212
    174  N        -24.2320   42.7110   12.5060 N.3   318  ARG318     -0.1231
    175  CA       -25.2500   42.3900   11.5050 C.3   318  ARG318      0.1694
    176  C        -26.5280   41.8240   12.1320 C.2   318  ARG318      0.2592
    177  O        -27.6310   42.1800   11.7170 O.2   318  ARG318     -0.2718
    178  CB       -24.7000   41.4040   10.4550 C.3   318  ARG318      0.0321
    179  CG       -23.5140   41.9190    9.6410 C.3   318  ARG318      0.0489
    180  CD       -23.0560   40.9130    8.5780 C.3   318  ARG318      0.2205
    181  NE       -24.1330   40.5250    7.6590 N.pl3 318  ARG318     -0.0865
    182  CZ       -24.3780   41.1100    6.4870 C.cat 318  ARG318      0.5346
    183  NH1      -23.6280   42.1220    6.0690 N.pl3 318  ARG318      0.1354
    184  NH2      -25.3770   40.6820    5.7260 N.pl3 318  ARG318      0.1354
    185  N        -26.3820   40.9460   13.1270 N.am  319  TYR319     -0.1976
    186  CA       -27.5150   40.1540   13.6250 C.3   319  TYR319      0.1639
    187  C        -27.8190   40.3230   15.1170 C.2   319  TYR319      0.2290
    188  O        -26.9590   40.7200   15.9090 O.2   319  TYR319     -0.2864
    189  CB       -27.3190   38.6530   13.3090 C.3   319  TYR319      0.0560
    190  CG       -26.8160   38.3820   11.8980 C.ar  319  TYR319     -0.0198
    191  CD1      -27.5630   38.7570   10.7830 C.ar  319  TYR319     -0.0009
    192  CD2      -25.5930   37.7550   11.6830 C.ar  319  TYR319     -0.0009
    193  CE1      -27.1000   38.5160    9.4830 C.ar  319  TYR319      0.0417
    194  CE2      -25.1150   37.5240   10.3900 C.ar  319  TYR319      0.0417
    195  CZ       -25.8760   37.9060    9.2940 C.ar  319  TYR319      0.1957
    196  OH       -25.4030   37.6770    8.0090 O.3   319  TYR319     -0.2866
@<TRIPOS>BOND
     1    45    46    1
     2    55    56    2
     3    55    54    1
     4    47    48    2
     5    47    46    1
     6    57    54    1
     7    57    58    1
     8    60    58   ar
     9    60    62   ar
    10    46    49    1
    11    53    54    1
    12    58    59   ar
    13    49    50    1
    14    62    63   ar
    15    65    66    1
    16    50    52    1
    17    50    51    1
    18    67    68    2
    19    67    66    1
    20    59    61   ar
    21    66    69    1
    22    63    61   ar
    23    63    64    1
    24    37    38    1
    25   117   116    1
    26   117   118    1
    27   116   113    1
    28    25    26    1
    29    25    24    1
    30    28    26   ar
    31    69    70    1
    32    20    21    1
    33    21    24    1
    34    21    22    1
    35    38    39    1
    36    38    41    1
    37    85    86    1
    38    23    22    2
    39   113   112    1
    40   113   114    1
    41    26    27   ar
    42    40    39    2
    43    22    29   am
    44   118   112    1
    45    86    89    1
    46    86    87    1
    47    43    42   ar
    48   115   114    2
    49    89    90    1
    50    72    71   ar
    51    70    71    1
    52    41    42    1
    53   114   119   am
    54    90    92   am
    55    90    91    2
    56    71    73   ar
    57    42    44   ar
    58    31    32    2
    59    31    30    1
    60    29    30    1
    61    93    87   am
    62    93    94    1
    63    87    88    2
    64    12    13    1
    65    96    95    2
    66    74    75    1
    67    30    33    1
    68   119   120    1
    69    97    94    1
    70    97    98    1
    71    15    14    2
    72    14    13    1
    73    94    95    1
    74    13    16    1
    75    95   101   am
    76    76    75    1
    77    76    77    2
    78    75    78    1
    79   120   121    1
    80   120   123    1
    81   104   103    2
    82    98   100   am
    83    98    99    2
    84    33    34    1
    85   103   102    1
    86   124   123    1
    87   122   121    2
    88   101   102    1
    89    16    17    1
    90   102   105    1
    91    34    35    2
    92    34    36   am
    93    78    79    1
    94    84    82    1
    95    80    79    1
    96    80    81    1
    97   172   170   ar
    98   172   173   ar
    99   170   169   ar
   100    17    18    1
   101    18    19    1
   102   105   106    1
   103    82    81    2
   104    82    83    1
   105   173   171   ar
   106   130   129    1
   107   131   129    1
   108   107   106   ar
   109   107   109   ar
   110   165   164    1
   111   165   166    1
   112   165   168    1
   113   169   171   ar
   114   169   168    1
   115   106   108   ar
   116   129   126    1
   117   166   167    2
   118   109   111   ar
   119   108   110   ar
   120    11    10   ar
   121    11     9   ar
   122    10     8   ar
   123   111   110   ar
   124     9     7   ar
   125   126   125    1
   126   126   127    1
   127     8     6   ar
   128     7     6   ar
   129   184   182    1
   130     6     5    1
   131   163   161   ar
   132   127   128    2
   133   183   182    1
   134   138   137    2
   135   154   153    1
   136   161   160    1
   137   161   162   ar
   138     5     2    1
   139   182   181    2
   140   160   159    1
   141   137   139   am
   142   137   136    1
   143   153   152    1
   144   136   133    1
   145   158   157    2
   146   159   156    1
   147   181   180    1
   148     2     1    1
   149     2     3    1
   150   156   157    1
   151   156   155    1
   152   196   195    1
   153   152   151    1
   154   145   144    1
   155   133   134    1
   156   133   132    1
   157     3     4    2
   158   180   179    1
   159   134   135    2
   160   151   150    1
   161   144   141    1
   162   149   148    2
   163   155   148   am
   164   195   193   ar
   165   195   194   ar
   166   193   191   ar
   167   148   147    1
   168   179   178    1
   169   143   142    2
   170   150   147    1
   171   194   192   ar
   172   178   175    1
   173   142   141    1
   174   141   140    1
   175   147   146    1
   176   191   190   ar
   177   175   176    1
   178   175   174    1
   179   192   190   ar
   180   177   176    2
   181   190   189    1
   182   176   185   am
   183   185   186    1
   184   189   186    1
   185   186   187    1
   186   187   188    2
