@<TRIPOS>MOLECULE
tmp/4lacA00.pdb
 108 106 0 0 0
SMALL
GASTEIGER

@<TRIPOS>ATOM
      1  N        -15.4970   -5.2880   33.0900 N.3   128  ARG128     -0.1245
      2  CA       -16.1380   -6.2380   32.1860 C.3   128  ARG128      0.1563
      3  C        -15.1680   -6.8370   31.1690 C.2   128  ARG128      0.2260
      4  O        -15.4810   -7.8540   30.5320 O.2   128  ARG128     -0.2867
      5  CB       -17.3340   -5.5920   31.4710 C.3   128  ARG128      0.0307
      6  CG       -18.4530   -5.1200   32.3970 C.3   128  ARG128      0.0489
      7  CD       -19.6420   -4.5500   31.6270 C.3   128  ARG128      0.2205
      8  NE       -19.2500   -3.6150   30.5640 N.pl3 128  ARG128     -0.0865
      9  CZ       -19.3960   -2.2900   30.6010 C.cat 128  ARG128      0.5346
     10  NH1      -19.9420   -1.6950   31.6540 N.pl3 128  ARG128      0.1354
     11  NH2      -18.9990   -1.5570   29.5650 N.pl3 128  ARG128      0.1354
     12  N        -14.2200   -5.1480   28.3640 N.3   130  ASP130     -0.1239
     13  CA       -15.1370   -4.8050   27.2850 C.3   130  ASP130      0.1674
     14  C        -14.5070   -3.8070   26.3660 C.2   130  ASP130      0.2266
     15  O        -13.5680   -3.1260   26.7460 O.2   130  ASP130     -0.2867
     16  CB       -16.3440   -4.0800   27.8710 C.3   130  ASP130      0.1410
     17  CG       -17.5380   -4.9680   28.0230 C.2   130  ASP130      0.3668
     18  OD1      -17.4000   -6.1990   27.8550 O.co2 130  ASP130     -0.2456
     19  OD2      -18.6240   -4.4230   28.3140 O.co2 130  ASP130     -0.2456
     20  N        -16.5340   -1.2210   23.2420 N.3   132  GLY132     -0.1210
     21  CA       -17.6580   -0.9460   22.3710 C.3   132  GLY132      0.1956
     22  C        -17.5040    0.3930   21.6950 C.2   132  GLY132      0.2613
     23  O        -16.5250    1.1110   21.9370 O.2   132  GLY132     -0.2717
     24  N        -18.4860    0.7250   20.8570 N.am  133  THR133     -0.1938
     25  CA       -18.5200    1.9910   20.1250 C.3   133  THR133      0.2028
     26  C        -18.5770    3.2040   21.0560 C.2   133  THR133      0.2643
     27  O        -18.1800    4.3020   20.6730 O.2   133  THR133     -0.2714
     28  CB       -19.7060    2.0440   19.1430 C.3   133  THR133      0.1808
     29  OG1      -20.9320    1.8350   19.8520 O.3   133  THR133     -0.2208
     30  CG2      -19.5690    0.9830   18.0640 C.3   133  THR133      0.0379
     31  N        -19.0710    2.9970   22.2750 N.am  134  GLY134     -0.1939
     32  CA       -19.0610    4.0280   23.3170 C.3   134  GLY134      0.2014
     33  C        -17.6590    4.4620   23.7340 C.2   134  GLY134      0.2638
     34  O        -17.4190    5.6480   23.9950 O.2   134  GLY134     -0.2714
     35  N        -16.7300    3.5070   23.7980 N.am  135  HIS135     -0.1973
     36  CA       -15.3290    3.8210   24.0840 C.3   135  HIS135      0.1656
     37  C        -14.7040    4.5480   22.9240 C.2   135  HIS135      0.2291
     38  O        -14.0050    5.5520   23.1080 O.2   135  HIS135     -0.2864
     39  CB       -14.5530    2.5600   24.4410 C.3   135  HIS135      0.0771
     40  CG       -15.0950    1.8440   25.6550 C.ar  135  HIS135      0.0820
     41  ND1      -15.9030    0.7730   25.5630 N.ar  135  HIS135     -0.2267
     42  CD2      -14.9400    2.1020   27.0120 C.ar  135  HIS135      0.1154
     43  CE1      -16.2360    0.3560   26.7960 C.ar  135  HIS135      0.1986
     44  NE2      -15.6450    1.1690   27.6820 N.ar  135  HIS135     -0.2212
     45  N        -14.1180   -8.8160   24.9600 N.3   182  GLU182     -0.1231
     46  CA       -15.4120   -9.0720   24.3410 C.3   182  GLU182      0.1684
     47  C        -16.1220   -7.7750   23.9170 C.2   182  GLU182      0.2434
     48  O        -15.7940   -6.6880   24.4090 O.2   182  GLU182     -0.2733
     49  CB       -16.2930   -9.9000   25.2750 C.3   182  GLU182      0.0402
     50  CG       -16.9220   -9.1030   26.3950 C.3   182  GLU182      0.1161
     51  CD       -17.6320   -9.9790   27.3950 C.2   182  GLU182      0.3649
     52  OE1      -18.7970   -9.6780   27.7030 O.co2 182  GLU182     -0.2457
     53  OE2      -17.0260  -10.9620   27.8750 O.co2 182  GLU182     -0.2457
     54  N        -17.0990   -7.8920   23.0010 N.am  183  PRO183     -0.2718
     55  CA       -17.8100   -6.7190   22.4960 C.3   183  PRO183      0.1535
     56  C        -18.8200   -6.1460   23.4830 C.2   183  PRO183      0.2598
     57  O        -19.7550   -6.8420   23.8890 O.2   183  PRO183     -0.2715
     58  CB       -18.5300   -7.2480   21.2440 C.3   183  PRO183      0.0310
     59  CG       -17.9040   -8.5690   20.9420 C.3   183  PRO183      0.0237
     60  CD       -17.4870   -9.1120   22.2720 C.3   183  PRO183      0.0939
     61  N        -18.6290   -4.8830   23.8560 N.am  184  ALA184     -0.1964
     62  CA       -19.6070   -4.1720   24.6660 C.3   184  ALA184      0.1728
     63  C        -20.7480   -3.6690   23.7840 C.2   184  ALA184      0.2617
     64  O        -20.5580   -2.7760   22.9620 O.2   184  ALA184     -0.2715
     65  CB       -18.9520   -3.0170   25.4060 C.3   184  ALA184      0.0334
     66  N        -21.9230   -4.2680   23.9460 N.am  185  GLY185     -0.1940
     67  CA       -23.1360   -3.7920   23.2950 C.3   185  GLY185      0.2014
     68  C        -23.1960   -4.0340   21.8010 C.2   185  GLY185      0.2639
     69  O        -23.7280   -3.2070   21.0530 O.2   185  GLY185     -0.2714
     70  N        -22.6500   -5.1650   21.3610 N.am  186  SER186     -0.1949
     71  CA       -22.7650   -5.5710   19.9650 C.3   186  SER186      0.1924
     72  C        -24.2130   -5.8650   19.6230 C.2   186  SER186      0.2314
     73  O        -24.9300   -6.5080   20.3900 O.2   186  SER186     -0.2863
     74  CB       -21.9220   -6.8060   19.6840 C.3   186  SER186      0.2116
     75  OG       -22.4500   -7.5300   18.5880 O.3   186  SER186     -0.2180
     76  N        -28.3180    2.5560   26.4100 N.3   284  PRO284     -0.2102
     77  CA       -27.2570    1.7660   27.0490 C.3   284  PRO284      0.1504
     78  C        -25.8350    2.1780   26.6430 C.2   284  PRO284      0.2575
     79  O        -24.8660    1.7750   27.2930 O.2   284  PRO284     -0.2718
     80  CB       -27.5700    0.3330   26.5950 C.3   284  PRO284      0.0282
     81  CG       -29.0320    0.3440   26.3160 C.3   284  PRO284      0.0208
     82  CD       -29.2680    1.6840   25.6900 C.3   284  PRO284      0.0893
     83  N        -25.7240    2.9800   25.5860 N.am  285  VAL285     -0.1980
     84  CA       -24.4450    3.5580   25.1770 C.3   285  VAL285      0.1595
     85  C        -24.2580    4.9310   25.8150 C.2   285  VAL285      0.2287
     86  O        -23.2280    5.1950   26.4360 O.2   285  VAL285     -0.2864
     87  CB       -24.3320    3.7070   23.6440 C.3   285  VAL285      0.0276
     88  CG1      -22.9260    4.1350   23.2540 C.3   285  VAL285      0.0022
     89  CG2      -24.7050    2.4100   22.9410 C.3   285  VAL285      0.0022
     90  N        -25.7420    6.3870   28.3720 N.3   287  GLN287     -0.1231
     91  CA       -25.7440    6.4410   29.8350 C.3   287  GLN287      0.1698
     92  C        -24.3350    6.6190   30.4110 C.2   287  GLN287      0.2592
     93  O        -24.1840    7.0880   31.5380 O.2   287  GLN287     -0.2718
     94  CB       -26.4170    5.2000   30.4330 C.3   287  GLN287      0.0381
     95  CG       -25.7000    3.8910   30.1420 C.3   287  GLN287      0.0905
     96  CD       -26.3020    2.7040   30.8690 C.2   287  GLN287      0.2608
     97  OE1      -27.0530    2.8560   31.8330 O.2   287  GLN287     -0.2717
     98  NE2      -25.9650    1.5050   30.4090 N.am  287  GLN287     -0.0878
     99  N        -23.3210    6.2590   29.6210 N.am  288  HIS288     -0.1976
    100  CA       -21.9200    6.2720   30.0600 C.3   288  HIS288      0.1656
    101  C        -21.1350    7.4570   29.5770 C.2   288  HIS288      0.2291
    102  O        -19.9300    7.5570   29.8310 O.2   288  HIS288     -0.2864
    103  CB       -21.2120    4.9900   29.6380 C.3   288  HIS288      0.0771
    104  CG       -21.8140    3.7370   30.2280 C.ar  288  HIS288      0.0820
    105  ND1      -21.9030    3.5320   31.5590 N.ar  288  HIS288     -0.2267
    106  CD2      -22.3510    2.6020   29.6150 C.ar  288  HIS288      0.1154
    107  CE1      -22.4750    2.3350   31.7840 C.ar  288  HIS288      0.1986
    108  NE2      -22.7460    1.7670   30.5920 N.ar  288  HIS288     -0.2212
@<TRIPOS>BOND
     1    30    28    1
     2    75    74    1
     3    28    29    1
     4    28    25    1
     5    72    71    1
     6    72    73    2
     7    74    71    1
     8    71    70    1
     9    25    24    1
    10    25    26    1
    11    27    26    2
    12    24    22   am
    13    59    58    1
    14    59    60    1
    15    69    68    2
    16    26    31   am
    17    58    55    1
    18    70    68   am
    19    22    23    2
    20    22    21    1
    21    68    67    1
    22    60    54    1
    23    31    32    1
    24    21    20    1
    25    55    54    1
    26    55    56    1
    27    37    38    2
    28    37    36    1
    29    89    87    1
    30    64    63    2
    31    54    47   am
    32    88    87    1
    33    67    66    1
    34    32    33    1
    35    56    61   am
    36    56    57    2
    37    87    84    1
    38    33    35   am
    39    33    34    2
    40    63    66   am
    41    63    62    1
    42    35    36    1
    43    61    62    1
    44    47    46    1
    45    47    48    2
    46    36    39    1
    47    46    45    1
    48    46    49    1
    49    39    40    1
    50    62    65    1
    51    84    83    1
    52    84    85    1
    53    49    50    1
    54    41    40   ar
    55    41    43   ar
    56    83    78   am
    57    40    42   ar
    58    82    81    1
    59    82    76    1
    60    85    86    2
    61    81    80    1
    62    14    15    2
    63    14    13    1
    64    50    51    1
    65    76    77    1
    66    80    77    1
    67    78    77    1
    68    78    79    2
    69    43    44   ar
    70    42    44   ar
    71    13    16    1
    72    13    12    1
    73    51    52   ar
    74    51    53   ar
    75    18    17   ar
    76    16    17    1
    77    17    19   ar
    78    90    91    1
    79    11     9    1
    80   101   102    2
    81   101   100    1
    82   106   104   ar
    83   106   108   ar
    84    99   100    1
    85    99    92   am
    86   103   100    1
    87   103   104    1
    88    91    92    1
    89    91    94    1
    90    95    94    1
    91    95    96    1
    92   104   105   ar
    93    98    96   am
    94    92    93    2
    95     4     3    2
    96     8     9    2
    97     8     7    1
    98   108   107   ar
    99     9    10    1
   100    96    97    2
   101     3     2    1
   102     5     2    1
   103     5     6    1
   104   105   107   ar
   105     7     6    1
   106     2     1    1
