@<TRIPOS>MOLECULE
tmp/4lacC02.pdb
 115 117 0 0 0
SMALL
GASTEIGER

@<TRIPOS>ATOM
      1  N        -30.7800  -15.7710   19.9340 N.3    57  GLY57      -0.1210
      2  CA       -31.2580  -15.9190   18.5590 C.3    57  GLY57       0.1956
      3  C        -30.5060  -16.8850   17.6670 C.2    57  GLY57       0.2612
      4  O        -30.6990  -16.8830   16.4590 O.2    57  GLY57      -0.2717
      5  N        -29.6570  -17.7190   18.2560 N.am   58  GLN58      -0.1965
      6  CA       -28.8570  -18.6710   17.4880 C.3    58  GLN58       0.1733
      7  C        -29.5780  -20.0150   17.3350 C.2    58  GLN58       0.2616
      8  O        -29.1720  -21.0210   17.9220 O.2    58  GLN58      -0.2715
      9  CB       -27.4750  -18.8450   18.1300 C.3    58  GLN58       0.0408
     10  CG       -26.6220  -17.5850   18.0730 C.3    58  GLN58       0.0908
     11  CD       -25.2960  -17.6990   18.8070 C.2    58  GLN58       0.2608
     12  OE1      -24.7730  -16.6990   19.3050 O.2    58  GLN58      -0.2717
     13  NE2      -24.7400  -18.9030   18.8700 N.am   58  GLN58      -0.0878
     14  N        -30.6320  -20.0230   16.5210 N.am   59  PHE59      -0.1960
     15  CA       -31.5410  -21.1630   16.4240 C.3    59  PHE59       0.1771
     16  C        -30.8760  -22.4970   16.1210 C.2    59  PHE59       0.2620
     17  O        -31.2350  -23.5090   16.7140 O.2    59  PHE59      -0.2715
     18  CB       -32.6320  -20.9070   15.3850 C.3    59  PHE59       0.0574
     19  CG       -33.6530  -22.0160   15.2890 C.ar   59  PHE59      -0.0200
     20  CD1      -34.7770  -22.0190   16.1100 C.ar   59  PHE59      -0.0042
     21  CD2      -33.4880  -23.0590   14.3810 C.ar   59  PHE59      -0.0042
     22  CE1      -35.7130  -23.0350   16.0260 C.ar   59  PHE59      -0.0003
     23  CE2      -34.4210  -24.0770   14.2960 C.ar   59  PHE59      -0.0003
     24  CZ       -35.5340  -24.0630   15.1180 C.ar   59  PHE59      -0.0000
     25  N        -29.9410  -22.5070   15.1760 N.am   60  HIS60      -0.1959
     26  CA       -29.2810  -23.7500   14.7810 C.3    60  HIS60       0.1787
     27  C        -28.4180  -24.2800   15.8820 C.2    60  HIS60       0.2620
     28  O        -28.2250  -25.4950   16.0000 O.2    60  HIS60      -0.2715
     29  CB       -28.4900  -23.5700   13.4940 C.3    60  HIS60       0.0785
     30  CG       -29.3520  -23.2480   12.2970 C.ar   60  HIS60       0.0821
     31  ND1      -29.2620  -22.0800   11.6340 N.ar   60  HIS60      -0.2267
     32  CD2      -30.3560  -23.9870   11.6620 C.ar   60  HIS60       0.1154
     33  CE1      -30.1530  -22.0720   10.6180 C.ar   60  HIS60       0.1986
     34  NE2      -30.8220  -23.2380   10.6390 N.ar   60  HIS60      -0.2212
     35  N        -27.9080  -23.3790   16.7160 N.am   61  ASP61      -0.1971
     36  CA       -27.1810  -23.7840   17.9160 C.3    61  ASP61       0.1709
     37  C        -28.1180  -24.3250   19.0030 C.2    61  ASP61       0.2293
     38  O        -27.7180  -25.1640   19.8010 O.2    61  ASP61      -0.2864
     39  CB       -26.3210  -22.6340   18.4350 C.3    61  ASP61       0.1436
     40  CG       -25.2820  -22.1810   17.4220 C.2    61  ASP61       0.3671
     41  OD1      -25.0940  -22.8630   16.3930 O.co2  61  ASP61      -0.2456
     42  OD2      -24.6450  -21.1370   17.6530 O.co2  61  ASP61      -0.2456
     43  N        -28.8780  -12.5360   17.1260 N.3    87  GLY87      -0.1210
     44  CA       -28.8090  -13.5930   16.1200 C.3    87  GLY87       0.1956
     45  C        -29.7810  -13.3730   14.9780 C.2    87  GLY87       0.2612
     46  O        -30.6100  -12.4570   15.0340 O.2    87  GLY87      -0.2717
     47  N        -29.6770  -14.2120   13.9430 N.am   88  TYR88      -0.1962
     48  CA       -30.5660  -14.1350   12.7730 C.3    88  TYR88       0.1771
     49  C        -31.9690  -14.6360   13.0910 C.2    88  TYR88       0.2619
     50  O        -32.9260  -14.3120   12.3830 O.2    88  TYR88      -0.2715
     51  CB       -30.0430  -14.9910   11.6140 C.3    88  TYR88       0.0574
     52  CG       -28.9080  -14.4210   10.7970 C.ar   88  TYR88      -0.0198
     53  CD1      -29.1220  -13.3730    9.8960 C.ar   88  TYR88      -0.0009
     54  CD2      -27.6200  -14.9620   10.8910 C.ar   88  TYR88      -0.0009
     55  CE1      -28.0780  -12.8630    9.1310 C.ar   88  TYR88       0.0417
     56  CE2      -26.5720  -14.4630   10.1290 C.ar   88  TYR88       0.0417
     57  CZ       -26.8050  -13.4110    9.2520 C.ar   88  TYR88       0.1957
     58  OH       -25.7600  -12.9180    8.5040 O.3    88  TYR88      -0.2866
     59  N        -32.0870  -15.4360   14.1430 N.am   89  TYR89      -0.1974
     60  CA       -33.2890  -16.2230   14.3460 C.3    89  TYR89       0.1639
     61  C        -33.9420  -16.0810   15.7170 C.2    89  TYR89       0.2290
     62  O        -34.3980  -17.0750   16.2820 O.2    89  TYR89      -0.2864
     63  CB       -32.9780  -17.6960   14.0810 C.3    89  TYR89       0.0560
     64  CG       -32.4050  -17.9720   12.7120 C.ar   89  TYR89      -0.0198
     65  CD1      -33.2050  -17.8720   11.5700 C.ar   89  TYR89      -0.0009
     66  CD2      -31.0630  -18.3300   12.5540 C.ar   89  TYR89      -0.0009
     67  CE1      -32.6870  -18.1240   10.3110 C.ar   89  TYR89       0.0417
     68  CE2      -30.5360  -18.5820   11.2990 C.ar   89  TYR89       0.0417
     69  CZ       -31.3570  -18.4750   10.1830 C.ar   89  TYR89       0.1957
     70  OH       -30.8580  -18.7230    8.9310 O.3    89  TYR89      -0.2866
     71  N        -22.7190  -20.7090   21.4740 N.3   260  PRO260     -0.2102
     72  CA       -21.3380  -21.0140   21.1070 C.3   260  PRO260      0.1504
     73  C        -20.8120  -20.0410   20.0550 C.2   260  PRO260      0.2575
     74  O        -21.5990  -19.5030   19.2640 O.2   260  PRO260     -0.2718
     75  CB       -21.4260  -22.4320   20.5390 C.3   260  PRO260      0.0282
     76  CG       -22.8220  -22.5580   20.0480 C.3   260  PRO260      0.0208
     77  CD       -23.6680  -21.7040   20.9470 C.3   260  PRO260      0.0893
     78  N        -19.4960  -19.8180   20.0690 N.am  261  ASN261     -0.1975
     79  CA       -18.8240  -18.9000   19.1480 C.3   261  ASN261      0.1688
     80  C        -19.5620  -17.5770   18.9720 C.2   261  ASN261      0.2292
     81  O        -19.7720  -17.1090   17.8520 O.2   261  ASN261     -0.2864
     82  CB       -18.5720  -19.5640   17.7950 C.3   261  ASN261      0.1181
     83  CG       -17.6640  -18.7450   16.9070 C.2   261  ASN261      0.2629
     84  OD1      -16.8120  -17.9960   17.3860 O.2   261  ASN261     -0.2716
     85  ND2      -17.8500  -18.8740   15.6050 N.am  261  ASN261     -0.0877
     86  N        -21.0740  -14.0400   18.4860 N.3   263  CYS263     -0.1221
     87  CA       -20.8050  -12.9850   17.4940 C.3   263  CYS263      0.1808
     88  C        -19.9070  -13.4490   16.3640 C.2   263  CYS263      0.2601
     89  O        -19.2050  -12.6310   15.7690 O.2   263  CYS263     -0.2717
     90  CB       -20.1750  -11.7490   18.1430 C.3   263  CYS263      0.0970
     91  SG       -21.1880  -10.9270   19.3820 S.3   263  CYS263     -0.0800
     92  N        -19.9310  -14.7540   16.0830 N.am  264  TYR264     -0.1976
     93  CA       -19.0540  -15.3920   15.0910 C.3   264  TYR264      0.1639
     94  C        -17.5880  -15.0640   15.3490 C.2   264  TYR264      0.2290
     95  O        -16.7450  -15.2040   14.4620 O.2   264  TYR264     -0.2864
     96  CB       -19.4330  -14.9830   13.6600 C.3   264  TYR264      0.0560
     97  CG       -20.8550  -15.3050   13.2620 C.ar  264  TYR264     -0.0198
     98  CD1      -21.8850  -14.3950   13.5020 C.ar  264  TYR264     -0.0009
     99  CD2      -21.1690  -16.5090   12.6250 C.ar  264  TYR264     -0.0009
    100  CE1      -23.1880  -14.6780   13.1350 C.ar  264  TYR264      0.0417
    101  CE2      -22.4720  -16.8010   12.2540 C.ar  264  TYR264      0.0417
    102  CZ       -23.4790  -15.8790   12.5150 C.ar  264  TYR264      0.1957
    103  OH       -24.7810  -16.1490   12.1600 O.3   264  TYR264     -0.2866
    104  N        -20.5540  -25.0210   17.9250 N.3   288  PRO288     -0.2102
    105  CA       -21.7100  -24.7420   17.0560 C.3   288  PRO288      0.1504
    106  C        -22.0220  -25.8060   15.9990 C.2   288  PRO288      0.2575
    107  O        -21.2510  -26.7470   15.8030 O.2   288  PRO288     -0.2718
    108  CB       -21.3200  -23.4260   16.3720 C.3   288  PRO288      0.0282
    109  CG       -19.8340  -23.4070   16.4120 C.3   288  PRO288      0.0208
    110  CD       -19.4850  -24.0230   17.7310 C.3   288  PRO288      0.0893
    111  N        -23.1620  -25.6340   15.3300 N.am  289  ALA289     -0.1980
    112  CA       -23.5590  -26.4770   14.1980 C.3   289  ALA289      0.1597
    113  C        -22.6580  -26.2280   12.9750 C.2   289  ALA289      0.2287
    114  O        -22.3550  -25.0760   12.6550 O.2   289  ALA289     -0.2864
    115  CB       -25.0210  -26.2260   13.8520 C.3   289  ALA289      0.0319
@<TRIPOS>BOND
     1    58    57    1
     2    70    69    1
     3    55    57   ar
     4    55    53   ar
     5    57    56   ar
     6    53    52   ar
     7    56    54   ar
     8    69    67   ar
     9    69    68   ar
    10    67    65   ar
    11    33    34   ar
    12    33    31   ar
    13    34    32   ar
    14    52    54   ar
    15    52    51    1
    16    68    66   ar
    17    65    64   ar
    18    51    48    1
    19    31    30   ar
    20    32    30   ar
    21   103   102    1
    22   101   102   ar
    23   101    99   ar
    24    30    29    1
    25    50    49    2
    26   102   100   ar
    27    66    64   ar
    28    99    97   ar
    29   114   113    2
    30    64    63    1
    31    48    49    1
    32    48    47    1
    33   113   112    1
    34    49    59   am
    35   100    98   ar
    36    97    98   ar
    37    97    96    1
    38    29    26    1
    39    96    93    1
    40   115   112    1
    41    47    45   am
    42    63    60    1
    43    59    60    1
    44   112   111    1
    45    23    21   ar
    46    23    24   ar
    47    60    61    1
    48    21    19   ar
    49    95    94    2
    50    26    25    1
    51    26    27    1
    52    45    46    2
    53    45    44    1
    54    93    94    1
    55    93    92    1
    56    24    22   ar
    57    25    16   am
    58    19    18    1
    59    19    20   ar
    60   111   106   am
    61    18    15    1
    62    85    83   am
    63    61    62    2
    64    89    88    2
    65   107   106    2
    66    27    28    2
    67    27    35   am
    68   106   105    1
    69    22    20   ar
    70    92    88   am
    71    44    43    1
    72    16    15    1
    73    16    17    2
    74    88    87    1
    75   108   109    1
    76   108   105    1
    77    41    40   ar
    78   109   110    1
    79    15    14    1
    80     4     3    2
    81    14     7   am
    82    35    36    1
    83    83    84    2
    84    83    82    1
    85   105   104    1
    86     7     6    1
    87     7     8    2
    88    40    42   ar
    89    40    39    1
    90     6     9    1
    91     6     5    1
    92    87    90    1
    93    87    86    1
    94     3     5   am
    95     3     2    1
    96   110   104    1
    97    82    79    1
    98    81    80    2
    99    36    39    1
   100    36    37    1
   101    10     9    1
   102    10    11    1
   103    90    91    1
   104     2     1    1
   105    11    13   am
   106    11    12    2
   107    80    79    1
   108    37    38    2
   109    79    78    1
   110    74    73    2
   111    76    75    1
   112    76    77    1
   113    73    78   am
   114    73    72    1
   115    75    72    1
   116    77    71    1
   117    72    71    1
