@<TRIPOS>MOLECULE
tmp/4lacC01.pdb
 157 154 0 0 0
SMALL
GASTEIGER

@<TRIPOS>ATOM
      1  N        -27.8360  -18.4020   27.8450 N.3    54  ASP54      -0.1239
      2  CA       -28.1450  -17.4940   26.7250 C.3    54  ASP54       0.1674
      3  C        -28.1750  -18.1620   25.3580 C.2    54  ASP54       0.2266
      4  O        -27.2780  -18.9210   25.0120 O.2    54  ASP54      -0.2867
      5  CB       -27.1500  -16.3280   26.6790 C.3    54  ASP54       0.1410
      6  CG       -27.2170  -15.4430   27.9120 C.2    54  ASP54       0.3668
      7  OD1      -27.5810  -15.9460   28.9990 O.co2  54  ASP54      -0.2456
      8  OD2      -26.8940  -14.2390   27.7910 O.co2  54  ASP54      -0.2456
      9  N        -29.5810  -16.0240   22.5590 N.3    56  HIS56      -0.1241
     10  CA       -29.4520  -14.8200   21.7210 C.3    56  HIS56       0.1621
     11  C        -29.7240  -15.0210   20.2500 C.2    56  HIS56       0.2264
     12  O        -28.9800  -14.5170   19.4050 O.2    56  HIS56      -0.2867
     13  CB       -28.0810  -14.1680   21.9130 C.3    56  HIS56       0.0745
     14  CG       -27.9560  -13.3710   23.1850 C.ar   56  HIS56       0.0817
     15  ND1      -28.8480  -12.4260   23.5370 N.ar   56  HIS56      -0.2268
     16  CD2      -26.9890  -13.3950   24.1910 C.ar   56  HIS56       0.1154
     17  CE1      -28.4830  -11.8810   24.7090 C.ar   56  HIS56       0.1986
     18  NE2      -27.3430  -12.4740   25.1100 N.ar   56  HIS56      -0.2212
     19  N        -32.7120  -14.5220   27.9700 N.3    82  ASP82      -0.1239
     20  CA       -31.9320  -14.0040   26.8400 C.3    82  ASP82       0.1674
     21  C        -32.0580  -14.9200   25.6220 C.2    82  ASP82       0.2266
     22  O        -31.0670  -15.4540   25.1260 O.2    82  ASP82      -0.2867
     23  CB       -30.4640  -13.7410   27.2220 C.3    82  ASP82       0.1410
     24  CG       -30.2550  -12.3890   27.9110 C.2    82  ASP82       0.3668
     25  OD1      -31.2390  -11.7370   28.3320 O.co2  82  ASP82      -0.2456
     26  OD2      -29.0810  -11.9780   28.0420 O.co2  82  ASP82      -0.2456
     27  N        -29.6710  -10.0980   18.6090 N.3    86  ARG86      -0.1245
     28  CA       -28.3120  -10.3690   18.1090 C.3    86  ARG86       0.1563
     29  C        -28.1670  -11.4200   17.0100 C.2    86  ARG86       0.2260
     30  O        -27.4020  -11.2140   16.0700 O.2    86  ARG86      -0.2867
     31  CB       -27.3270  -10.6340   19.2490 C.3    86  ARG86       0.0307
     32  CG       -27.1620   -9.4500   20.1770 C.3    86  ARG86       0.0489
     33  CD       -25.9080   -9.5800   21.0110 C.3    86  ARG86       0.2205
     34  NE       -25.7380   -8.4220   21.8830 N.pl3  86  ARG86      -0.0865
     35  CZ       -26.0170   -8.4090   23.1830 C.cat  86  ARG86       0.5346
     36  NH1      -26.4810   -9.4990   23.7850 N.pl3  86  ARG86       0.1354
     37  NH2      -25.8260   -7.2970   23.8850 N.pl3  86  ARG86       0.1354
     38  N        -32.9250  -10.1790   30.8530 N.3   114  ASN114     -0.1225
     39  CA       -32.9950   -8.7300   30.6360 C.3   114  ASN114      0.1785
     40  C        -33.3120   -8.3490   29.1840 C.2   114  ASN114      0.2597
     41  O        -33.9030   -7.3040   28.9210 O.2   114  ASN114     -0.2718
     42  CB       -31.7370   -8.0170   31.1510 C.3   114  ASN114      0.1169
     43  CG       -30.4690   -8.4750   30.4580 C.2   114  ASN114      0.2627
     44  OD1      -30.1410   -9.6620   30.4420 O.2   114  ASN114     -0.2716
     45  ND2      -29.7340   -7.5250   29.8990 N.am  114  ASN114     -0.0877
     46  N        -32.9440   -9.2190   28.2500 N.am  115  HIS115     -0.1975
     47  CA       -33.2670   -9.0030   26.8470 C.3   115  HIS115      0.1656
     48  C        -34.7180   -9.1940   26.5240 C.2   115  HIS115      0.2291
     49  O        -35.1760   -8.7750   25.4640 O.2   115  HIS115     -0.2864
     50  CB       -32.3880   -9.8600   25.9590 C.3   115  HIS115      0.0771
     51  CG       -31.0430   -9.2520   25.6950 C.ar  115  HIS115      0.0820
     52  ND1      -30.7870   -8.5180   24.6010 N.ar  115  HIS115     -0.2267
     53  CD2      -29.8730   -9.2640   26.4400 C.ar  115  HIS115      0.1154
     54  CE1      -29.5140   -8.0880   24.6350 C.ar  115  HIS115      0.1986
     55  NE2      -28.9550   -8.5450   25.7590 N.ar  115  HIS115     -0.2212
     56  N        -34.9380   -3.1250   25.6380 N.3   120  ILE120     -0.1245
     57  CA       -33.7330   -3.7450   25.0860 C.3   120  ILE120      0.1561
     58  C        -33.9260   -4.3980   23.7100 C.2   120  ILE120      0.2260
     59  O        -33.0150   -4.3700   22.8800 O.2   120  ILE120     -0.2867
     60  CB       -33.0410   -4.6790   26.1100 C.3   120  ILE120      0.0252
     61  CG1      -31.9130   -3.9390   26.8390 C.3   120  ILE120      0.0019
     62  CG2      -32.4060   -5.8720   25.4280 C.3   120  ILE120      0.0019
     63  CD1      -32.3470   -2.7930   27.7300 C.3   120  ILE120      0.0001
     64  N        -31.1770   -4.1410   20.4130 N.3   124  TYR124     -0.1241
     65  CA       -30.2790   -5.2020   19.9470 C.3   124  TYR124      0.1605
     66  C        -30.8360   -6.1820   18.9000 C.2   124  TYR124      0.2264
     67  O        -30.2980   -7.2770   18.7350 O.2   124  TYR124     -0.2867
     68  CB       -29.6980   -5.9800   21.1400 C.3   124  TYR124      0.0534
     69  CG       -28.8480   -5.1660   22.0920 C.ar  124  TYR124     -0.0201
     70  CD1      -27.6210   -4.6410   21.6900 C.ar  124  TYR124     -0.0009
     71  CD2      -29.2610   -4.9450   23.4110 C.ar  124  TYR124     -0.0009
     72  CE1      -26.8390   -3.8990   22.5650 C.ar  124  TYR124      0.0417
     73  CE2      -28.4830   -4.2110   24.2950 C.ar  124  TYR124      0.0417
     74  CZ       -27.2750   -3.6880   23.8660 C.ar  124  TYR124      0.1957
     75  OH       -26.5010   -2.9530   24.7350 O.3   124  TYR124     -0.2866
     76  N        -30.2760   -8.4440   36.0990 N.3   197  TRP197     -0.1241
     77  CA       -29.1370   -7.6280   35.6450 C.3   197  TRP197      0.1605
     78  C        -27.8220   -7.8520   36.3490 C.2   197  TRP197      0.2264
     79  O        -26.7650   -7.6520   35.7440 O.2   197  TRP197     -0.2867
     80  CB       -29.4930   -6.1500   35.6930 C.3   197  TRP197      0.0550
     81  CG       -30.2490   -5.6720   34.4790 C.ar  197  TRP197      0.0003
     82  CD1      -31.6300   -5.5910   34.3110 C.ar  197  TRP197      0.0946
     83  CD2      -29.6800   -5.1810   33.2150 C.ar  197  TRP197      0.0152
     84  NE1      -31.9420   -5.0980   33.0700 N.ar  197  TRP197     -0.2442
     85  CE2      -30.8200   -4.8310   32.3630 C.ar  197  TRP197      0.0810
     86  CE3      -28.3870   -5.0070   32.7210 C.ar  197  TRP197      0.0012
     87  CZ2      -30.6500   -4.3330   31.0780 C.ar  197  TRP197      0.0191
     88  CZ3      -28.2290   -4.5020   31.4260 C.ar  197  TRP197      0.0001
     89  CH2      -29.3340   -4.1730   30.6270 C.ar  197  TRP197      0.0015
     90  N        -21.1690   -1.8650   36.7920 N.3   210  PRO210     -0.2102
     91  CA       -20.6350   -1.1510   35.6370 C.3   210  PRO210      0.1504
     92  C        -21.6150   -1.1560   34.4660 C.2   210  PRO210      0.2575
     93  O        -21.5330   -0.2860   33.6020 O.2   210  PRO210     -0.2718
     94  CB       -19.3900   -1.9640   35.2700 C.3   210  PRO210      0.0282
     95  CG       -19.6330   -3.3270   35.8330 C.3   210  PRO210      0.0208
     96  CD       -20.3530   -3.0510   37.1190 C.3   210  PRO210      0.0893
     97  N        -22.5310   -2.1260   34.4400 N.am  211  ARG211     -0.1980
     98  CA       -23.5600   -2.2070   33.3940 C.3   211  ARG211      0.1597
     99  C        -24.5000   -1.0050   33.4050 C.2   211  ARG211      0.2287
    100  O        -25.1610   -0.7220   32.3990 O.2   211  ARG211     -0.2864
    101  CB       -24.4030   -3.4700   33.5450 C.3   211  ARG211      0.0334
    102  CG       -23.7120   -4.7740   33.2050 C.3   211  ARG211      0.0492
    103  CD       -24.7550   -5.8700   33.1160 C.3   211  ARG211      0.2205
    104  NE       -24.1810   -7.2010   33.2710 N.pl3 211  ARG211     -0.0865
    105  CZ       -24.0340   -8.0880   32.2900 C.cat 211  ARG211      0.5346
    106  NH1      -24.4230   -7.8060   31.0500 N.pl3 211  ARG211      0.1354
    107  NH2      -23.5040   -9.2750   32.5560 N.pl3 211  ARG211      0.1354
    108  N        -26.3500  -14.6820   31.8850 N.3   238  HIS238     -0.1226
    109  CA       -26.0930  -13.2350   31.7880 C.3   238  HIS238      0.1752
    110  C        -24.6860  -12.8160   31.4060 C.2   238  HIS238      0.2596
    111  O        -24.4330  -11.6210   31.2050 O.2   238  HIS238     -0.2718
    112  CB       -26.5370  -12.5540   33.0890 C.3   238  HIS238      0.0759
    113  CG       -26.7450  -11.0560   32.9770 C.ar  238  HIS238      0.0818
    114  ND1      -27.4030  -10.4810   31.9490 N.ar  238  HIS238     -0.2268
    115  CD2      -26.3830  -10.0250   33.8370 C.ar  238  HIS238      0.1154
    116  CE1      -27.4400   -9.1520   32.1330 C.ar  238  HIS238      0.1986
    117  NE2      -26.8200   -8.8750   33.2910 N.ar  238  HIS238     -0.2212
    118  N        -23.7600  -13.7690   31.2860 N.am  239  GLN239     -0.1965
    119  CA       -22.3670  -13.4560   30.9160 C.3   239  GLN239      0.1733
    120  C        -21.7040  -14.4840   30.0000 C.2   239  GLN239      0.2616
    121  O        -21.8900  -15.6890   30.1670 O.2   239  GLN239     -0.2715
    122  CB       -21.5030  -13.2810   32.1640 C.3   239  GLN239      0.0408
    123  CG       -21.4960  -11.8720   32.7290 C.3   239  GLN239      0.0908
    124  CD       -20.7340  -11.7660   34.0350 C.2   239  GLN239      0.2608
    125  OE1      -20.7820  -12.6620   34.8740 O.2   239  GLN239     -0.2717
    126  NE2      -20.0270  -10.6620   34.2120 N.am  239  GLN239     -0.0878
    127  N        -20.9110  -13.9940   29.0510 N.am  240  LEU240     -0.1977
    128  CA       -20.1390  -14.8400   28.1420 C.3   240  LEU240      0.1596
    129  C        -19.1190  -15.6700   28.9000 C.2   240  LEU240      0.2287
    130  O        -18.4090  -15.1540   29.7640 O.2   240  LEU240     -0.2864
    131  CB       -19.4280  -13.9810   27.0890 C.3   240  LEU240      0.0297
    132  CG       -18.5210  -14.6180   26.0300 C.3   240  LEU240      0.0022
    133  CD1      -19.2760  -15.5640   25.1100 C.3   240  LEU240      0.0001
    134  CD2      -17.8570  -13.5230   25.2150 C.3   240  LEU240      0.0001
    135  N        -23.5550  -20.4060   29.8050 N.3   257  PHE257     -0.1241
    136  CA       -23.7680  -19.6610   28.5650 C.3   257  PHE257      0.1605
    137  C        -23.9550  -20.6570   27.4200 C.2   257  PHE257      0.2264
    138  O        -23.1450  -21.5770   27.2500 O.2   257  PHE257     -0.2867
    139  CB       -22.5680  -18.7490   28.3080 C.3   257  PHE257      0.0534
    140  CG       -22.8170  -17.6840   27.2840 C.ar  257  PHE257     -0.0203
    141  CD1      -23.4800  -16.5090   27.6280 C.ar  257  PHE257     -0.0042
    142  CD2      -22.3770  -17.8440   25.9740 C.ar  257  PHE257     -0.0042
    143  CE1      -23.7110  -15.5250   26.6860 C.ar  257  PHE257     -0.0003
    144  CE2      -22.6050  -16.8590   25.0300 C.ar  257  PHE257     -0.0003
    145  CZ       -23.2760  -15.7010   25.3860 C.ar  257  PHE257     -0.0000
    146  N        -19.9500  -16.9930   20.1040 N.3   262  TYR262     -0.1241
    147  CA       -20.6420  -15.7140   20.1810 C.3   262  TYR262      0.1605
    148  C        -20.1310  -14.6770   19.1840 C.2   262  TYR262      0.2264
    149  O        -18.9210  -14.4730   19.0510 O.2   262  TYR262     -0.2867
    150  CB       -20.4900  -15.1780   21.5960 C.3   262  TYR262      0.0534
    151  CG       -21.4660  -14.1020   21.9950 C.ar  262  TYR262     -0.0201
    152  CD1      -22.8470  -14.3180   21.9290 C.ar  262  TYR262     -0.0009
    153  CD2      -21.0080  -12.8720   22.4780 C.ar  262  TYR262     -0.0009
    154  CE1      -23.7420  -13.3300   22.3110 C.ar  262  TYR262      0.0417
    155  CE2      -21.8940  -11.8780   22.8640 C.ar  262  TYR262      0.0417
    156  CZ       -23.2560  -12.1150   22.7810 C.ar  262  TYR262      0.1957
    157  OH       -24.1310  -11.1340   23.1670 O.3   262  TYR262     -0.2866
@<TRIPOS>BOND
     1    30    29    2
     2    29    28    1
     3    28    27    1
     4    28    31    1
     5    67    66    2
     6    66    65    1
     7   149   148    2
     8   148   147    1
     9    31    32    1
    10    12    11    2
    11    65    64    1
    12    65    68    1
    13   146   147    1
    14    32    33    1
    15   147   150    1
    16    11    10    1
    17    33    34    1
    18    68    69    1
    19   150   151    1
    20    70    69   ar
    21    70    72   ar
    22    10    13    1
    23    10     9    1
    24    34    35    2
    25    13    14    1
    26   152   151   ar
    27   152   154   ar
    28   151   153   ar
    29    69    71   ar
    30   154   156   ar
    31   153   155   ar
    32    72    74   ar
    33   156   155   ar
    34   156   157    1
    35    59    58    2
    36    35    36    1
    37    35    37    1
    38    14    15   ar
    39    14    16   ar
    40    71    73   ar
    41    15    17   ar
    42    58    57    1
    43    74    73   ar
    44    74    75    1
    45    16    18   ar
    46    52    54   ar
    47    52    51   ar
    48    54    55   ar
    49    17    18   ar
    50     4     3    2
    51   144   145   ar
    52   144   142   ar
    53    57    56    1
    54    57    60    1
    55   133   132    1
    56    22    21    2
    57   134   132    1
    58     3     2    1
    59   145   143   ar
    60    62    60    1
    61    49    48    2
    62    21    20    1
    63    51    50    1
    64    51    53   ar
    65    55    53   ar
    66    50    47    1
    67   142   140   ar
    68   132   131    1
    69    60    61    1
    70    48    47    1
    71     5     2    1
    72     5     6    1
    73   143   141   ar
    74     2     1    1
    75    61    63    1
    76    20    23    1
    77    20    19    1
    78    47    46    1
    79   131   128    1
    80    23    24    1
    81   138   137    2
    82   140   141   ar
    83   140   139    1
    84   137   136    1
    85     8     6   ar
    86    24    26   ar
    87    24    25   ar
    88     6     7   ar
    89   128   129    1
    90   128   127    1
    91    46    40   am
    92   139   136    1
    93   136   135    1
    94   129   130    2
    95    41    40    2
    96   127   120   am
    97    40    39    1
    98    45    43   am
    99   120   121    2
   100   120   119    1
   101    44    43    2
   102    43    42    1
   103    89    87   ar
   104    89    88   ar
   105    39    38    1
   106    39    42    1
   107   119   118    1
   108   119   122    1
   109   106   105    1
   110    87    85   ar
   111   111   110    2
   112   118   110   am
   113   110   109    1
   114    88    86   ar
   115   109   108    1
   116   109   112    1
   117   114   116   ar
   118   114   113   ar
   119   116   117   ar
   120   122   123    1
   121   105   107    1
   122   105   104    2
   123    85    84   ar
   124    85    83   ar
   125   100    99    2
   126    86    83   ar
   127   123   124    1
   128   113   112    1
   129   113   115   ar
   130    84    82   ar
   131   103   102    1
   132   103   104    1
   133   102   101    1
   134    83    81   ar
   135   117   115   ar
   136    98    99    1
   137    98   101    1
   138    98    97    1
   139    93    92    2
   140   124   126   am
   141   124   125    2
   142    82    81   ar
   143    97    92   am
   144    92    91    1
   145    81    80    1
   146    94    91    1
   147    94    95    1
   148    91    90    1
   149    77    80    1
   150    77    76    1
   151    77    78    1
   152    79    78    2
   153    95    96    1
   154    90    96    1
