@<TRIPOS>MOLECULE
tmp/4laeA01.pdb
 165 157 0 0 0
SMALL
GASTEIGER

@<TRIPOS>ATOM
      1  N         -2.5620   25.1910    0.5970 N.3     5  LEU5       -0.1231
      2  CA        -3.7380   25.4620   -0.2200 C.3     5  LEU5        0.1693
      3  C         -3.2710   25.4480   -1.6640 C.2     5  LEU5        0.2592
      4  O         -2.3180   26.1380   -2.0000 O.2     5  LEU5       -0.2718
      5  CB        -4.3160   26.8510    0.0890 C.3     5  LEU5        0.0284
      6  CG        -5.4050   27.0220    1.1360 C.3     5  LEU5        0.0019
      7  CD1       -5.5890   28.5070    1.4450 C.3     5  LEU5        0.0001
      8  CD2       -6.7080   26.4100    0.6100 C.3     5  LEU5        0.0001
      9  N         -3.9240   24.6590   -2.5110 N.am    6  VAL6       -0.1966
     10  CA        -3.5630   24.6360   -3.9380 C.3     6  VAL6        0.1727
     11  C         -4.7440   24.2080   -4.8080 C.2     6  VAL6        0.2616
     12  O         -5.5930   23.4250   -4.3720 O.2     6  VAL6       -0.2715
     13  CB        -2.3230   23.7150   -4.2070 C.3     6  VAL6        0.0290
     14  CG1       -2.6410   22.2560   -3.8780 C.3     6  VAL6        0.0023
     15  CG2       -1.8210   23.8280   -5.6660 C.3     6  VAL6        0.0023
     16  N         -4.7830   24.7430   -6.0320 N.am    7  ALA7       -0.1977
     17  CA        -5.6220   24.2180   -7.1020 C.3     7  ALA7        0.1597
     18  C         -4.6930   23.6460   -8.1580 C.2     7  ALA7        0.2287
     19  O         -3.8120   24.3550   -8.6440 O.2     7  ALA7       -0.2864
     20  CB        -6.4870   25.3100   -7.7070 C.3     7  ALA7        0.0319
     21  N         -0.3630   24.0910  -12.0830 N.3    14  ILE14      -0.1245
     22  CA        -0.8990   25.1290  -11.2000 C.3    14  ILE14       0.1561
     23  C         -0.8950   26.5390  -11.7960 C.2    14  ILE14       0.2260
     24  O         -1.6340   27.4010  -11.3380 O.2    14  ILE14      -0.2867
     25  CB        -0.1850   25.1730   -9.8120 C.3    14  ILE14       0.0252
     26  CG1        1.3170   25.4770   -9.9760 C.3    14  ILE14       0.0019
     27  CG2       -0.4400   23.8740   -9.0290 C.3    14  ILE14       0.0019
     28  CD1        2.0210   25.7680   -8.6290 C.3    14  ILE14       0.0001
     29  N          2.5010   33.2400  -14.9360 N.3    18  ASN18      -0.1225
     30  CA         2.2920   33.9330  -13.6670 C.3    18  ASN18       0.1785
     31  C          0.8270   34.2130  -13.3130 C.2    18  ASN18       0.2597
     32  O          0.5260   35.0760  -12.4830 O.2    18  ASN18      -0.2718
     33  CB         3.1680   35.1860  -13.5820 C.3    18  ASN18       0.1169
     34  CG         4.6170   34.8460  -13.3230 C.2    18  ASN18       0.2627
     35  OD1        4.9190   33.9270  -12.5530 O.2    18  ASN18      -0.2716
     36  ND2        5.5210   35.5730  -13.9630 N.am   18  ASN18      -0.0877
     37  N         -0.0740   33.4490  -13.9250 N.am   19  GLN19      -0.1965
     38  CA        -1.4960   33.5120  -13.5770 C.3    19  GLN19       0.1733
     39  C         -2.0730   32.1010  -13.4870 C.2    19  GLN19       0.2616
     40  O         -1.4120   31.1250  -13.8430 O.2    19  GLN19      -0.2715
     41  CB        -2.2750   34.3610  -14.5980 C.3    19  GLN19       0.0408
     42  CG        -1.8750   35.8600  -14.6410 C.3    19  GLN19       0.0908
     43  CD        -2.0990   36.5930  -13.3180 C.2    19  GLN19       0.2608
     44  OE1       -2.9700   36.2280  -12.5280 O.2    19  GLN19      -0.2717
     45  NE2       -1.3090   37.6390  -13.0760 N.am   19  GLN19      -0.0878
     46  N         -3.3020   31.9980  -12.9870 N.am   20  LEU20      -0.1977
     47  CA        -4.0330   30.7280  -13.0410 C.3    20  LEU20       0.1596
     48  C         -4.4010   30.3950  -14.4870 C.2    20  LEU20       0.2287
     49  O         -4.7630   31.2900  -15.2630 O.2    20  LEU20      -0.2864
     50  CB        -5.2970   30.7920  -12.1800 C.3    20  LEU20       0.0297
     51  CG        -5.1090   31.0190  -10.6770 C.3    20  LEU20       0.0022
     52  CD1       -6.4590   31.3220  -10.0170 C.3    20  LEU20       0.0001
     53  CD2       -4.4460   29.8200  -10.0420 C.3    20  LEU20       0.0001
     54  N        -13.3940   28.4010   -6.8090 N.3    27  ASP27      -0.1225
     55  CA       -12.1180   28.0870   -6.1480 C.3    27  ASP27       0.1805
     56  C        -11.6320   29.2750   -5.3240 C.2    27  ASP27       0.2597
     57  O        -11.1750   29.1090   -4.1910 O.2    27  ASP27      -0.2718
     58  CB       -11.0250   27.6460   -7.1300 C.3    27  ASP27       0.1424
     59  CG        -9.6630   27.5200   -6.4530 C.2    27  ASP27       0.3668
     60  OD1       -9.4420   26.5440   -5.7080 O.co2  27  ASP27      -0.2456
     61  OD2       -8.8240   28.4270   -6.6310 O.co2  27  ASP27      -0.2456
     62  N        -11.7410   30.4730   -5.8960 N.am   28  LEU28      -0.1979
     63  CA       -11.3650   31.6910   -5.1910 C.3    28  LEU28       0.1596
     64  C        -12.2210   31.8520   -3.9380 C.2    28  LEU28       0.2287
     65  O        -11.7100   32.2030   -2.8750 O.2    28  LEU28      -0.2864
     66  CB       -11.5080   32.9160   -6.1000 C.3    28  LEU28       0.0297
     67  CG       -10.8610   32.8490   -7.4890 C.3    28  LEU28       0.0022
     68  CD1      -10.9230   34.2140   -8.1750 C.3    28  LEU28       0.0001
     69  CD2       -9.4200   32.3400   -7.4310 C.3    28  LEU28       0.0001
     70  N        -13.6660   29.3980   -2.2760 N.3    30  HIS30      -0.1226
     71  CA       -13.1830   28.3190   -1.4080 C.3    30  HIS30       0.1752
     72  C        -11.9660   28.7720   -0.6000 C.2    30  HIS30       0.2596
     73  O        -11.9240   28.6220    0.6240 O.2    30  HIS30      -0.2718
     74  CB       -12.8590   27.1020   -2.2830 C.3    30  HIS30       0.0759
     75  CG       -12.2990   25.9250   -1.5430 C.ar   30  HIS30       0.0818
     76  ND1      -13.0440   25.1760   -0.6580 N.ar   30  HIS30      -0.2268
     77  CD2      -11.0830   25.3300   -1.6080 C.ar   30  HIS30       0.1154
     78  CE1      -12.3040   24.1870   -0.1880 C.ar   30  HIS30       0.1986
     79  NE2      -11.1120   24.2560   -0.7500 N.ar   30  HIS30      -0.2212
     80  N        -10.9940   29.3470   -1.3050 N.am   31  VAL31      -0.1966
     81  CA        -9.7610   29.8680   -0.7200 C.3    31  VAL31       0.1727
     82  C        -10.0320   30.9970    0.2730 C.2    31  VAL31       0.2616
     83  O         -9.4330   31.0460    1.3530 O.2    31  VAL31      -0.2715
     84  CB        -8.8020   30.3500   -1.8510 C.3    31  VAL31       0.0290
     85  CG1       -7.8420   31.4410   -1.3650 C.3    31  VAL31       0.0023
     86  CG2       -8.0560   29.1850   -2.4040 C.3    31  VAL31       0.0023
     87  N        -10.9340   31.8980   -0.1050 N.am   32  LYS32      -0.1977
     88  CA       -11.3120   33.0170    0.7500 C.3    32  LYS32       0.1596
     89  C        -11.9350   32.4890    2.0420 C.2    32  LYS32       0.2287
     90  O        -11.5620   32.9140    3.1380 O.2    32  LYS32      -0.2864
     91  CB       -12.2730   33.9490    0.0050 C.3    32  LYS32       0.0298
     92  CG       -12.4280   35.3270    0.6310 C.3    32  LYS32       0.0038
     93  CD       -13.6430   36.0440    0.0580 C.3    32  LYS32       0.0206
     94  CE       -13.7950   37.4360    0.6470 C.3    32  LYS32       0.1093
     95  NZ       -15.1710   37.9740    0.4370 N.3    32  LYS32      -0.1314
     96  N          3.9690   34.9160   -6.8350 N.3    46  THR46      -0.1218
     97  CA         2.5470   34.7930   -6.5210 C.3    46  THR46       0.1862
     98  C          1.9980   36.1230   -6.0090 C.2    46  THR46       0.2287
     99  O          0.9340   36.5750   -6.4440 O.2    46  THR46      -0.2866
    100  CB         2.2770   33.6460   -5.5170 C.3    46  THR46       0.1770
    101  OG1        2.6320   32.3940   -6.1240 O.3    46  THR46      -0.2211
    102  CG2        0.7940   33.5960   -5.1030 C.3    46  THR46       0.0375
    103  N          1.6080   38.5690   -8.8220 N.3    49  SER49      -0.1202
    104  CA         0.4910   38.1080   -9.6580 C.3    49  SER49       0.2020
    105  C         -0.8530   38.6130   -9.1390 C.2    49  SER49       0.2618
    106  O         -1.6930   39.0760   -9.9160 O.2    49  SER49      -0.2717
    107  CB         0.4560   36.5780   -9.7340 C.3    49  SER49       0.2103
    108  OG         1.6670   36.0610  -10.2570 O.3    49  SER49      -0.2182
    109  N         -1.0460   38.5110   -7.8250 N.am   50  ILE50      -0.1979
    110  CA        -2.2730   38.9680   -7.1730 C.3    50  ILE50       0.1595
    111  C         -2.2850   40.5000   -7.1340 C.2    50  ILE50       0.2287
    112  O         -3.3360   41.1240   -7.3090 O.2    50  ILE50      -0.2864
    113  CB        -2.4230   38.3750   -5.7440 C.3    50  ILE50       0.0276
    114  CG1       -2.4080   36.8430   -5.7870 C.3    50  ILE50       0.0022
    115  CG2       -3.7140   38.8610   -5.0880 C.3    50  ILE50       0.0022
    116  CD1       -2.1690   36.1870   -4.4380 C.3    50  ILE50       0.0001
    117  N         -4.4310   40.1750    0.1580 N.3    54  LEU54      -0.1245
    118  CA        -5.8370   39.8130    0.2890 C.3    54  LEU54       0.1561
    119  C         -6.3620   40.3090    1.6390 C.2    54  LEU54       0.2260
    120  O         -5.7310   40.0710    2.6740 O.2    54  LEU54      -0.2867
    121  CB        -6.0370   38.3010    0.1410 C.3    54  LEU54       0.0270
    122  CG        -5.6560   37.6310   -1.1900 C.3    54  LEU54       0.0019
    123  CD1       -6.0700   36.1790   -1.1540 C.3    54  LEU54       0.0001
    124  CD2       -6.2870   38.3280   -2.3930 C.3    54  LEU54       0.0001
    125  N          0.5110   29.2570    0.3250 N.3    92  PHE92      -0.1241
    126  CA        -0.4000   29.7970   -0.6860 C.3    92  PHE92       0.1605
    127  C          0.1470   29.6990   -2.1160 C.2    92  PHE92       0.2264
    128  O         -0.5610   30.0090   -3.0860 O.2    92  PHE92      -0.2867
    129  CB        -0.6790   31.2650   -0.3460 C.3    92  PHE92       0.0534
    130  CG        -1.9920   31.7930   -0.8660 C.ar   92  PHE92      -0.0203
    131  CD1       -3.1820   31.1030   -0.6380 C.ar   92  PHE92      -0.0042
    132  CD2       -2.0430   33.0190   -1.5320 C.ar   92  PHE92      -0.0042
    133  CE1       -4.3990   31.6140   -1.0800 C.ar   92  PHE92      -0.0003
    134  CE2       -3.2560   33.5420   -1.9780 C.ar   92  PHE92      -0.0003
    135  CZ        -4.4400   32.8330   -1.7470 C.ar   92  PHE92      -0.0000
    136  N          5.5250   25.4760   -2.7820 N.3    98  PHE98      -0.1241
    137  CA         4.9330   24.1420   -2.6450 C.3    98  PHE98       0.1605
    138  C          6.0100   23.0570   -2.6040 C.2    98  PHE98       0.2264
    139  O          5.9310   22.1260   -1.7990 O.2    98  PHE98      -0.2867
    140  CB         3.9430   23.8510   -3.7730 C.3    98  PHE98       0.0534
    141  CG         2.6880   24.7000   -3.7400 C.ar   98  PHE98      -0.0203
    142  CD1        2.1560   25.1920   -4.9310 C.ar   98  PHE98      -0.0042
    143  CD2        2.0160   24.9730   -2.5360 C.ar   98  PHE98      -0.0042
    144  CE1        0.9920   25.9670   -4.9430 C.ar   98  PHE98      -0.0003
    145  CE2        0.8460   25.7500   -2.5350 C.ar   98  PHE98      -0.0003
    146  CZ         0.3290   26.2390   -3.7380 C.ar   98  PHE98      -0.0000
    147  N         -5.2780   21.3440    1.4790 N.3   109  TYR109     -0.1241
    148  CA        -6.6020   21.5940    0.9320 C.3   109  TYR109      0.1605
    149  C         -6.3930   21.7980   -0.5520 C.2   109  TYR109      0.2264
    150  O         -5.8760   22.8310   -0.9740 O.2   109  TYR109     -0.2867
    151  CB        -7.2260   22.8460    1.5500 C.3   109  TYR109      0.0534
    152  CG        -7.5590   22.7000    3.0140 C.ar  109  TYR109     -0.0201
    153  CD1       -6.6130   22.9940    4.0000 C.ar  109  TYR109     -0.0009
    154  CD2       -8.8240   22.2680    3.4200 C.ar  109  TYR109     -0.0009
    155  CE1       -6.9210   22.8520    5.3550 C.ar  109  TYR109      0.0417
    156  CE2       -9.1410   22.1320    4.7740 C.ar  109  TYR109      0.0417
    157  CZ        -8.1890   22.4250    5.7330 C.ar  109  TYR109      0.1957
    158  OH        -8.5120   22.2850    7.0690 O.3   109  TYR109     -0.2866
    159  N         -7.8750   21.8290   -4.4940 N.3   111  THR111     -0.1218
    160  CA        -8.9340   21.8450   -5.4820 C.3   111  THR111      0.1862
    161  C         -8.3830   21.1400   -6.7230 C.2   111  THR111      0.2287
    162  O         -7.4720   21.6470   -7.4000 O.2   111  THR111     -0.2866
    163  CB        -9.3680   23.2870   -5.8480 C.3   111  THR111      0.1770
    164  OG1       -9.8040   23.9820   -4.6670 O.3   111  THR111     -0.2211
    165  CG2      -10.5050   23.2540   -6.8700 C.3   111  THR111      0.0375
@<TRIPOS>BOND
     1    49    48    2
     2    29    30    1
     3    42    41    1
     4    42    43    1
     5    41    38    1
     6    48    47    1
     7    36    34   am
     8    37    38    1
     9    37    31   am
    10    40    39    2
    11    30    33    1
    12    30    31    1
    13    33    34    1
    14    38    39    1
    15    39    46   am
    16    34    35    2
    17    43    45   am
    18    43    44    2
    19    31    32    2
    20    47    46    1
    21    47    50    1
    22    50    51    1
    23    21    22    1
    24    23    24    2
    25    23    22    1
    26    22    25    1
    27    51    53    1
    28    51    52    1
    29   108   107    1
    30    26    25    1
    31    26    28    1
    32   106   105    2
    33    25    27    1
    34   107   104    1
    35   104   105    1
    36   104   103    1
    37   105   109   am
    38    19    18    2
    39    68    67    1
    40    18    17    1
    41   109   110    1
    42    20    17    1
    43    67    69    1
    44    67    66    1
    45   162   161    2
    46   112   111    2
    47   110   111    1
    48   110   113    1
    49    58    59    1
    50    58    55    1
    51    17    16    1
    52   165   163    1
    53    96    97    1
    54    54    55    1
    55   161   160    1
    56    61    59   ar
    57    97    98    1
    58    97   100    1
    59    59    60   ar
    60    99    98    2
    61    55    56    1
    62   101   100    1
    63    66    63    1
    64    16    11   am
    65    62    56   am
    66    62    63    1
    67   163   160    1
    68   163   164    1
    69   114   113    1
    70   114   116    1
    71   113   115    1
    72    15    13    1
    73   100   102    1
    74   160   159    1
    75    56    57    2
    76    63    64    1
    77   144   142   ar
    78   144   146   ar
    79   142   141   ar
    80    11    12    2
    81    11    10    1
    82    13    10    1
    83    13    14    1
    84    10     9    1
    85    64    65    2
    86   140   141    1
    87   140   137    1
    88   141   143   ar
    89   146   145   ar
    90   128   127    2
    91   136   137    1
    92   137   138    1
    93   138   139    2
    94   143   145   ar
    95     9     3   am
    96    86    84    1
    97   124   122    1
    98    74    75    1
    99    74    71    1
   100    70    71    1
   101   127   126    1
   102     4     3    2
   103   134   135   ar
   104   134   132   ar
   105    84    85    1
   106    84    81    1
   107   135   133   ar
   108     3     2    1
   109    77    75   ar
   110    77    79   ar
   111    75    76   ar
   112   132   130   ar
   113    71    72    1
   114    80    81    1
   115    80    72   am
   116   122   123    1
   117   122   121    1
   118   133   131   ar
   119   150   149    2
   120   130   131   ar
   121   130   129    1
   122    79    78   ar
   123    81    82    1
   124   126   129    1
   125   126   125    1
   126    76    78   ar
   127    72    73    2
   128   149   148    1
   129     2     5    1
   130     2     1    1
   131    87    82   am
   132    87    88    1
   133    91    92    1
   134    91    88    1
   135    93    92    1
   136    93    94    1
   137     5     6    1
   138   121   118    1
   139   117   118    1
   140    82    83    2
   141   118   119    1
   142    95    94    1
   143     8     6    1
   144    88    89    1
   145   148   147    1
   146   148   151    1
   147     6     7    1
   148   151   152    1
   149   119   120    2
   150    89    90    2
   151   152   154   ar
   152   152   153   ar
   153   154   156   ar
   154   153   155   ar
   155   156   157   ar
   156   155   157   ar
   157   157   158    1
