@<TRIPOS>MOLECULE
tmp/4lafA00.pdb
 123 121 0 0 0
SMALL
GASTEIGER

@<TRIPOS>ATOM
      1  N        -38.5350   15.7510   23.6250 N.3    11  SER11      -0.1202
      2  CA       -39.5700   14.7350   23.4180 C.3    11  SER11       0.2020
      3  C        -38.9310   13.3580   23.5100 C.2    11  SER11       0.2619
      4  O        -37.8410   13.1620   22.9870 O.2    11  SER11      -0.2717
      5  CB       -40.2000   14.9010   22.0380 C.3    11  SER11       0.2103
      6  OG       -41.2920   14.0040   21.8580 O.3    11  SER11      -0.2182
      7  N        -39.6020   12.4120   24.1660 N.am   12  SER12      -0.1937
      8  CA       -39.1010   11.0350   24.2410 C.3    12  SER12       0.2055
      9  C        -39.7880   10.1560   23.2020 C.2    12  SER12       0.2643
     10  O        -39.1480    9.3470   22.5240 O.2    12  SER12      -0.2714
     11  CB       -39.3670   10.4290   25.6240 C.3    12  SER12       0.2130
     12  OG       -38.4310   10.8620   26.6000 O.3    12  SER12      -0.2179
     13  N        -41.1030   10.3100   23.1040 N.am   13  TYR13      -0.1959
     14  CA       -41.9250    9.4150   22.2940 C.3    13  TYR13       0.1771
     15  C        -42.6700   10.1320   21.1730 C.2    13  TYR13       0.2620
     16  O        -43.4910    9.5290   20.4770 O.2    13  TYR13      -0.2715
     17  CB       -42.9010    8.6490   23.1910 C.3    13  TYR13       0.0574
     18  CG       -42.2160    7.6730   24.1140 C.ar   13  TYR13      -0.0198
     19  CD1      -41.7440    6.4600   23.6380 C.ar   13  TYR13      -0.0009
     20  CD2      -42.0420    7.9640   25.4690 C.ar   13  TYR13      -0.0009
     21  CE1      -41.1070    5.5570   24.4740 C.ar   13  TYR13       0.0417
     22  CE2      -41.4060    7.0670   26.3140 C.ar   13  TYR13       0.0417
     23  CZ       -40.9470    5.8630   25.8100 C.ar   13  TYR13       0.1957
     24  OH       -40.3160    4.9520   26.6290 O.3    13  TYR13      -0.2866
     25  N        -42.3970   11.4210   21.0030 N.am   14  GLY14      -0.1940
     26  CA       -42.9020   12.1400   19.8510 C.3    14  GLY14       0.2014
     27  C        -44.1260   13.0250   20.0510 C.2    14  GLY14       0.2639
     28  O        -44.4670   13.7930   19.1640 O.2    14  GLY14      -0.2714
     29  N        -44.8000   12.9190   21.1920 N.am   15  HIS15      -0.1959
     30  CA       -45.9930   13.7210   21.4090 C.3    15  HIS15       0.1787
     31  C        -45.6830   15.2160   21.3740 C.2    15  HIS15       0.2620
     32  O        -46.3650   15.9810   20.6800 O.2    15  HIS15      -0.2715
     33  CB       -46.6690   13.3480   22.7340 C.3    15  HIS15       0.0785
     34  CG       -47.0730   11.9090   22.8230 C.ar   15  HIS15       0.0821
     35  ND1      -46.2020   10.9130   23.2110 N.ar   15  HIS15      -0.2267
     36  CD2      -48.2590   11.2980   22.5840 C.ar   15  HIS15       0.1154
     37  CE1      -46.8300    9.7500   23.2000 C.ar   15  HIS15       0.1986
     38  NE2      -48.0790    9.9560   22.8250 N.ar   15  HIS15      -0.2212
     39  N        -44.6670   15.6310   22.1330 N.am   16  ILE16      -0.1977
     40  CA       -44.2630   17.0390   22.1380 C.3    16  ILE16       0.1596
     41  C        -43.7590   17.4940   20.7650 C.2    16  ILE16       0.2287
     42  O        -44.0230   18.6260   20.3450 O.2    16  ILE16      -0.2864
     43  CB       -43.2180   17.3460   23.2340 C.3    16  ILE16       0.0276
     44  CG1      -43.8780   17.2760   24.6160 C.3    16  ILE16       0.0022
     45  CG2      -42.5860   18.7300   23.0280 C.3    16  ILE16       0.0022
     46  CD1      -45.0130   18.2700   24.8110 C.3    16  ILE16       0.0001
     47  N        -42.5500   17.3000   27.9410 N.3    83  PRO83      -0.2102
     48  CA       -43.4810   16.3690   28.5810 C.3    83  PRO83       0.1504
     49  C        -43.3930   16.6030   30.0780 C.2    83  PRO83       0.2576
     50  O        -42.3440   17.0580   30.5470 O.2    83  PRO83      -0.2718
     51  CB       -42.9050   15.0000   28.2160 C.3    83  PRO83       0.0282
     52  CG       -41.4160   15.2470   28.0460 C.3    83  PRO83       0.0208
     53  CD       -41.3190   16.6340   27.4660 C.3    83  PRO83       0.0893
     54  N        -44.4570   16.3180   30.8200 N.am   84  THR84      -0.1939
     55  CA       -44.3750   16.4940   32.2680 C.3    84  THR84       0.2028
     56  C        -43.5530   15.3760   32.8910 C.2    84  THR84       0.2642
     57  O        -43.5270   14.2460   32.3860 O.2    84  THR84      -0.2714
     58  CB       -45.7640   16.5440   32.9550 C.3    84  THR84       0.1808
     59  OG1      -45.6020   16.9590   34.3260 O.3    84  THR84      -0.2208
     60  CG2      -46.4370   15.1790   32.9240 C.3    84  THR84       0.0379
     61  N        -42.8630   15.6950   33.9800 N.am   85  ARG85      -0.1963
     62  CA       -42.3270   14.6610   34.8450 C.3    85  ARG85       0.1729
     63  C        -42.8440   14.9800   36.2400 C.2    85  ARG85       0.2616
     64  O        -42.3060   15.8420   36.9210 O.2    85  ARG85      -0.2715
     65  CB       -40.7910   14.6470   34.8190 C.3    85  ARG85       0.0348
     66  CG       -40.1880   14.3360   33.4420 C.3    85  ARG85       0.0492
     67  CD       -40.3440   12.8540   33.0800 C.3    85  ARG85       0.2205
     68  NE       -39.7220   12.5200   31.7900 N.pl3  85  ARG85      -0.0865
     69  CZ       -40.3780   12.4220   30.6370 C.cat  85  ARG85       0.5346
     70  NH1      -41.6830   12.6590   30.5870 N.pl3  85  ARG85       0.1354
     71  NH2      -39.7250   12.1030   29.5220 N.pl3  85  ARG85       0.1354
     72  N        -43.9270   14.3220   36.6370 N.am   86  PHE86      -0.1974
     73  CA       -44.5370   14.5770   37.9380 C.3    86  PHE86       0.1639
     74  C        -44.8450   16.0580   38.1730 C.2    86  PHE86       0.2290
     75  O        -44.6400   16.5680   39.2690 O.2    86  PHE86      -0.2864
     76  CB       -43.6440   14.0360   39.0560 C.3    86  PHE86       0.0560
     77  CG       -43.2740   12.5790   38.8880 C.ar   86  PHE86      -0.0200
     78  CD1      -44.2580   11.6030   38.8090 C.ar   86  PHE86      -0.0042
     79  CD2      -41.9520   12.1900   38.8200 C.ar   86  PHE86      -0.0042
     80  CE1      -43.9250   10.2680   38.6650 C.ar   86  PHE86      -0.0003
     81  CE2      -41.6110   10.8530   38.6770 C.ar   86  PHE86      -0.0003
     82  CZ       -42.6000    9.8910   38.5980 C.ar   86  PHE86      -0.0000
     83  N        -47.2270   17.8380   27.6960 N.3   119  SER119     -0.1202
     84  CA       -47.9490   16.5970   27.4570 C.3   119  SER119      0.2020
     85  C        -47.9260   15.7620   28.7310 C.2   119  SER119      0.2619
     86  O        -46.9310   15.7430   29.4410 O.2   119  SER119     -0.2717
     87  CB       -47.3340   15.8270   26.2820 C.3   119  SER119      0.2103
     88  OG       -45.9840   15.4800   26.5280 O.3   119  SER119     -0.2182
     89  N        -49.0370   15.0940   29.0360 N.am  120  THR120     -0.1938
     90  CA       -49.1080   14.2890   30.2610 C.3   120  THR120      0.2028
     91  C        -49.8070   12.9570   30.0060 C.2   120  THR120      0.2642
     92  O        -50.4810   12.7890   28.9890 O.2   120  THR120     -0.2714
     93  CB       -49.8920   14.9930   31.3780 C.3   120  THR120      0.1808
     94  OG1      -51.2790   15.0460   31.0130 O.3   120  THR120     -0.2208
     95  CG2      -49.3770   16.4100   31.6000 C.3   120  THR120      0.0379
     96  N        -49.6450   12.0230   30.9370 N.am  121  ALA121     -0.1963
     97  CA       -50.2640   10.7010   30.8060 C.3   121  ALA121      0.1728
     98  C        -51.7310   10.7420   31.2090 C.2   121  ALA121      0.2616
     99  O        -52.5600   10.0220   30.6430 O.2   121  ALA121     -0.2715
    100  CB       -49.5250    9.6710   31.6530 C.3   121  ALA121      0.0334
    101  N        -52.0470   11.5770   32.1940 N.am  122  SER122     -0.1950
    102  CA       -53.3860   11.5830   32.7820 C.3   122  SER122      0.1924
    103  C        -54.0650   12.9520   32.6780 C.2   122  SER122      0.2314
    104  O        -53.4060   13.9740   32.4860 O.2   122  SER122     -0.2863
    105  CB       -53.3300   11.1150   34.2400 C.3   122  SER122      0.2116
    106  OG       -52.5850   12.0200   35.0460 O.3   122  SER122     -0.2180
    107  N        -52.8600   15.2340   35.7610 N.3   125  GLY125     -0.1225
    108  CA       -51.5470   14.9700   36.3120 C.3   125  GLY125      0.1811
    109  C        -50.5300   15.9350   35.7330 C.2   125  GLY125      0.2280
    110  O        -49.6520   15.5400   34.9680 O.2   125  GLY125     -0.2866
    111  N        -51.1260   11.9210   26.4440 N.3   173  ALA173     -0.1231
    112  CA       -50.4710   10.7740   25.8210 C.3   173  ALA173      0.1694
    113  C        -51.0920    9.4540   26.2480 C.2   173  ALA173      0.2592
    114  O        -50.7950    8.4140   25.6630 O.2   173  ALA173     -0.2718
    115  CB       -48.9780   10.7660   26.1540 C.3   173  ALA173      0.0304
    116  N        -51.9220    9.4880   27.2850 N.am  174  GLY174     -0.1957
    117  CA       -52.4500    8.2640   27.8620 C.3   174  GLY174      0.1869
    118  C        -51.4500    7.5900   28.7880 C.2   174  GLY174      0.2309
    119  O        -50.2590    7.8940   28.7740 O.2   174  GLY174     -0.2863
    120  N        -48.6850    6.1080   26.7510 N.3   177  GLY177     -0.1225
    121  CA       -48.1640    6.8940   25.6460 C.3   177  GLY177      0.1811
    122  C        -48.8240    6.5760   24.3160 C.2   177  GLY177      0.2280
    123  O        -48.4190    7.0990   23.2730 O.2   177  GLY177     -0.2866
@<TRIPOS>BOND
     1    28    27    2
     2    26    27    1
     3    26    25    1
     4    27    29   am
     5    42    41    2
     6    16    15    2
     7    32    31    2
     8    41    40    1
     9    25    15   am
    10    15    14    1
    11    29    30    1
    12    31    30    1
    13    31    39   am
    14    30    33    1
    15     6     5    1
    16     5     2    1
    17    39    40    1
    18    40    43    1
    19    14    13    1
    20    14    17    1
    21    10     9    2
    22    36    34   ar
    23    36    38   ar
    24    33    34    1
    25    34    35   ar
    26    38    37   ar
    27     4     3    2
    28    45    43    1
    29    13     9   am
    30    17    18    1
    31    37    35   ar
    32     9     8    1
    33    43    44    1
    34   123   122    2
    35     2     3    1
    36     2     1    1
    37     3     7   am
    38    19    18   ar
    39    19    21   ar
    40    18    20   ar
    41     7     8    1
    42     8    11    1
    43   122   121    1
    44    21    23   ar
    45    44    46    1
    46    20    22   ar
    47    11    12    1
    48   121   120    1
    49   114   113    2
    50    23    22   ar
    51    23    24    1
    52   112   115    1
    53   112   113    1
    54   112   111    1
    55   113   116   am
    56    87    88    1
    57    87    84    1
    58   116   117    1
    59    84    83    1
    60    84    85    1
    61    53    47    1
    62    53    52    1
    63   117   118    1
    64    47    48    1
    65    52    51    1
    66    51    48    1
    67    48    49    1
    68    85    89   am
    69    85    86    2
    70   119   118    2
    71    92    91    2
    72    89    90    1
    73    71    69    1
    74    91    90    1
    75    91    96   am
    76    49    50    2
    77    49    54   am
    78    90    93    1
    79    70    69    1
    80    69    68    2
    81    99    98    2
    82    97    96    1
    83    97    98    1
    84    97   100    1
    85    54    55    1
    86    94    93    1
    87    98   101   am
    88    93    95    1
    89    68    67    1
    90   101   102    1
    91    55    56    1
    92    55    58    1
    93    57    56    2
    94   104   103    2
    95   103   102    1
    96   102   105    1
    97    56    61   am
    98    60    58    1
    99    58    59    1
   100    67    66    1
   101    66    65    1
   102    61    62    1
   103   105   106    1
   104    65    62    1
   105    62    63    1
   106   110   109    2
   107   109   108    1
   108   107   108    1
   109    63    72   am
   110    63    64    2
   111    72    73    1
   112    73    74    1
   113    73    76    1
   114    74    75    2
   115    82    80   ar
   116    82    81   ar
   117    80    78   ar
   118    81    79   ar
   119    78    77   ar
   120    79    77   ar
   121    77    76    1
