@<TRIPOS>MOLECULE
tmp/4lahA00.pdb
 185 175 0 0 0
SMALL
GASTEIGER

@<TRIPOS>ATOM
      1  N         -2.5560   25.1140    0.5770 N.3     5  LEU5       -0.1231
      2  CA        -3.7370   25.4360   -0.2090 C.3     5  LEU5        0.1693
      3  C         -3.2740   25.4040   -1.6560 C.2     5  LEU5        0.2592
      4  O         -2.2710   26.0360   -1.9840 O.2     5  LEU5       -0.2718
      5  CB        -4.2060   26.8500    0.1300 C.3     5  LEU5        0.0284
      6  CG        -5.6880   27.1710    0.3390 C.3     5  LEU5        0.0019
      7  CD1       -6.3980   26.0830    1.1220 C.3     5  LEU5        0.0001
      8  CD2       -5.8420   28.5190    1.0520 C.3     5  LEU5        0.0001
      9  N         -3.9670   24.6560   -2.5140 N.am    6  VAL6       -0.1966
     10  CA        -3.5670   24.5790   -3.9320 C.3     6  VAL6        0.1727
     11  C         -4.7180   24.1770   -4.8650 C.2     6  VAL6        0.2616
     12  O         -5.5680   23.3590   -4.5070 O.2     6  VAL6       -0.2715
     13  CB        -2.3050   23.6580   -4.1500 C.3     6  VAL6        0.0290
     14  CG1       -2.6150   22.1850   -3.8460 C.3     6  VAL6        0.0023
     15  CG2       -1.7450   23.8210   -5.5590 C.3     6  VAL6        0.0023
     16  N         -4.7450   24.7830   -6.0460 N.am    7  ALA7       -0.1977
     17  CA        -5.5930   24.3210   -7.1370 C.3     7  ALA7        0.1597
     18  C         -4.6870   23.7410   -8.2190 C.2     7  ALA7        0.2287
     19  O         -3.8150   24.4300   -8.7520 O.2     7  ALA7       -0.2864
     20  CB        -6.4410   25.4690   -7.6930 C.3     7  ALA7        0.0319
     21  N         -0.4010   24.0820  -12.1090 N.3    14  ILE14      -0.1245
     22  CA        -0.9230   25.0880  -11.1830 C.3    14  ILE14       0.1561
     23  C         -0.9490   26.4940  -11.7860 C.2    14  ILE14       0.2260
     24  O         -1.6740   27.3700  -11.3090 O.2    14  ILE14      -0.2867
     25  CB        -0.1660   25.0970   -9.8280 C.3    14  ILE14       0.0252
     26  CG1        1.3260   25.4380  -10.0120 C.3    14  ILE14       0.0019
     27  CG2       -0.3980   23.7720   -9.0790 C.3    14  ILE14       0.0019
     28  CD1        2.0380   25.8190   -8.6950 C.3    14  ILE14       0.0001
     29  N          2.4930   33.1570  -14.9660 N.3    18  ASN18      -0.1225
     30  CA         2.2690   33.8410  -13.6870 C.3    18  ASN18       0.1785
     31  C          0.8050   34.1280  -13.3600 C.2    18  ASN18       0.2597
     32  O          0.5030   34.9970  -12.5440 O.2    18  ASN18      -0.2718
     33  CB         3.1320   35.1070  -13.6050 C.3    18  ASN18       0.1169
     34  CG         4.6000   34.7870  -13.4050 C.2    18  ASN18       0.2627
     35  OD1        4.9500   33.9150  -12.6060 O.2    18  ASN18      -0.2716
     36  ND2        5.4640   35.4910  -14.1180 N.am   18  ASN18      -0.0877
     37  N         -0.0970   33.3820  -13.9920 N.am   19  GLN19      -0.1965
     38  CA        -1.5200   33.4290  -13.6480 C.3    19  GLN19       0.1733
     39  C         -2.1100   32.0190  -13.5640 C.2    19  GLN19       0.2616
     40  O         -1.4620   31.0430  -13.9690 O.2    19  GLN19      -0.2715
     41  CB        -2.3110   34.3010  -14.6390 C.3    19  GLN19       0.0408
     42  CG        -1.9710   35.8170  -14.6160 C.3    19  GLN19       0.0908
     43  CD        -2.2040   36.5040  -13.2530 C.2    19  GLN19       0.2608
     44  OE1       -3.0100   36.0550  -12.4270 O.2    19  GLN19      -0.2717
     45  NE2       -1.4930   37.6030  -13.0250 N.am   19  GLN19      -0.0878
     46  N         -3.3210   31.9160  -13.0150 N.am   20  LEU20      -0.1977
     47  CA        -4.0780   30.6590  -13.0370 C.3    20  LEU20       0.1596
     48  C         -4.5230   30.3680  -14.4760 C.2    20  LEU20       0.2287
     49  O         -4.9610   31.2860  -15.1730 O.2    20  LEU20      -0.2864
     50  CB        -5.2900   30.7430  -12.0950 C.3    20  LEU20       0.0297
     51  CG        -5.0180   30.9870  -10.5990 C.3    20  LEU20       0.0022
     52  CD1       -6.3080   31.3030   -9.8360 C.3    20  LEU20       0.0001
     53  CD2       -4.3170   29.7960   -9.9640 C.3    20  LEU20       0.0001
     54  N        -13.3540   28.3680   -6.6670 N.3    27  ASP27      -0.1225
     55  CA       -12.0660   28.0890   -6.0350 C.3    27  ASP27       0.1805
     56  C        -11.5950   29.2580   -5.1740 C.2    27  ASP27       0.2597
     57  O        -11.0770   29.0620   -4.0720 O.2    27  ASP27      -0.2718
     58  CB       -10.9740   27.7560   -7.0480 C.3    27  ASP27       0.1424
     59  CG        -9.6170   27.6180   -6.3840 C.2    27  ASP27       0.3668
     60  OD1       -9.4100   26.6260   -5.6490 O.co2  27  ASP27      -0.2456
     61  OD2       -8.7760   28.5220   -6.5510 O.co2  27  ASP27      -0.2456
     62  N        -11.7630   30.4670   -5.6960 N.am   28  LEU28      -0.1979
     63  CA       -11.3790   31.6740   -4.9690 C.3    28  LEU28       0.1596
     64  C        -12.2330   31.8800   -3.7130 C.2    28  LEU28       0.2287
     65  O        -11.7150   32.3030   -2.6830 O.2    28  LEU28      -0.2864
     66  CB       -11.4170   32.9060   -5.8860 C.3    28  LEU28       0.0297
     67  CG       -10.4980   32.9750   -7.1260 C.3    28  LEU28       0.0022
     68  CD1       -9.1050   32.4250   -6.8900 C.3    28  LEU28       0.0001
     69  CD2      -11.1000   32.2700   -8.3270 C.3    28  LEU28       0.0001
     70  N        -13.6310   29.3670   -2.0580 N.3    30  HIS30      -0.1226
     71  CA       -13.1510   28.2570   -1.2280 C.3    30  HIS30       0.1752
     72  C        -11.9280   28.7020   -0.4220 C.2    30  HIS30       0.2596
     73  O        -11.8820   28.5380    0.7980 O.2    30  HIS30      -0.2718
     74  CB       -12.8330   27.0620   -2.1420 C.3    30  HIS30       0.0759
     75  CG       -12.2390   25.8720   -1.4490 C.ar   30  HIS30       0.0818
     76  ND1      -12.9590   25.0690   -0.5900 N.ar   30  HIS30      -0.2268
     77  CD2      -11.0120   25.3060   -1.5510 C.ar   30  HIS30       0.1154
     78  CE1      -12.1900   24.0840   -0.1610 C.ar   30  HIS30       0.1986
     79  NE2      -11.0050   24.2020   -0.7310 N.ar   30  HIS30      -0.2212
     80  N        -10.9600   29.2840   -1.1270 N.am   31  VAL31      -0.1966
     81  CA        -9.7240   29.8130   -0.5510 C.3    31  VAL31       0.1727
     82  C         -9.9970   30.9300    0.4620 C.2    31  VAL31       0.2616
     83  O         -9.3950   30.9620    1.5420 O.2    31  VAL31      -0.2715
     84  CB        -8.7650   30.2900   -1.6920 C.3    31  VAL31       0.0290
     85  CG1       -7.7610   31.3270   -1.2110 C.3    31  VAL31       0.0023
     86  CG2       -8.0610   29.1030   -2.2970 C.3    31  VAL31       0.0023
     87  N        -10.9190   31.8270    0.1050 N.am   32  LYS32      -0.1977
     88  CA       -11.3150   32.9460    0.9500 C.3    32  LYS32       0.1596
     89  C        -11.8950   32.4360    2.2650 C.2    32  LYS32       0.2287
     90  O        -11.4900   32.8830    3.3370 O.2    32  LYS32      -0.2864
     91  CB       -12.3440   33.8130    0.2230 C.3    32  LYS32       0.0298
     92  CG       -12.2240   35.3020    0.5040 C.3    32  LYS32       0.0038
     93  CD       -13.4830   36.0420    0.0530 C.3    32  LYS32       0.0206
     94  CE       -13.3950   37.5380    0.3570 C.3    32  LYS32       0.1093
     95  NZ       -14.7500   38.1740    0.1960 N.3    32  LYS32      -0.1314
     96  N          4.0230   34.8430   -6.8180 N.3    46  THR46      -0.1218
     97  CA         2.6040   34.7090   -6.4950 C.3    46  THR46       0.1862
     98  C          2.0020   36.0250   -5.9830 C.2    46  THR46       0.2287
     99  O          0.9230   36.4180   -6.4220 O.2    46  THR46      -0.2866
    100  CB         2.3490   33.5590   -5.4900 C.3    46  THR46       0.1770
    101  OG1        2.7440   32.3150   -6.0820 O.3    46  THR46      -0.2211
    102  CG2        0.8730   33.4900   -5.1080 C.3    46  THR46       0.0375
    103  N          1.6090   38.4580   -8.7950 N.3    49  SER49      -0.1202
    104  CA         0.4980   37.9560   -9.6130 C.3    49  SER49       0.2020
    105  C         -0.8530   38.4390   -9.0920 C.2    49  SER49       0.2618
    106  O         -1.6780   38.9440   -9.8590 O.2    49  SER49      -0.2717
    107  CB         0.4990   36.4270   -9.6390 C.3    49  SER49       0.2103
    108  OG         1.6790   35.9270  -10.2320 O.3    49  SER49      -0.2182
    109  N         -1.0710   38.2630   -7.7910 N.am   50  ILE50      -0.1979
    110  CA        -2.2800   38.7470   -7.1150 C.3    50  ILE50       0.1595
    111  C         -2.2870   40.2810   -7.0820 C.2    50  ILE50       0.2287
    112  O         -3.3350   40.9010   -7.2620 O.2    50  ILE50      -0.2864
    113  CB        -2.4240   38.1250   -5.6980 C.3    50  ILE50       0.0276
    114  CG1       -2.3700   36.5960   -5.7910 C.3    50  ILE50       0.0022
    115  CG2       -3.7400   38.5400   -5.0360 C.3    50  ILE50       0.0022
    116  CD1       -2.0590   35.8930   -4.4840 C.3    50  ILE50       0.0001
    117  N         -1.8740   42.5680   -4.7670 N.3    52  LYS52      -0.1245
    118  CA        -2.1490   43.2170   -3.4760 C.3    52  LYS52       0.1561
    119  C         -2.3970   42.1530   -2.4010 C.2    52  LYS52       0.2260
    120  O         -2.7540   41.0220   -2.7350 O.2    52  LYS52      -0.2867
    121  CB        -3.3430   44.1900   -3.5840 C.3    52  LYS52       0.0271
    122  CG        -4.5810   43.6350   -4.3030 C.3    52  LYS52       0.0035
    123  CD        -5.5820   43.0240   -3.3330 C.3    52  LYS52       0.0206
    124  CE        -6.2340   41.7730   -3.9140 C.3    52  LYS52       0.1093
    125  NZ        -7.2660   41.2260   -2.9840 N.3    52  LYS52      -0.1314
    126  N         -4.3690   39.9950    0.3480 N.3    54  LEU54      -0.1245
    127  CA        -5.7730   39.6400    0.5200 C.3    54  LEU54       0.1561
    128  C         -6.2820   40.1560    1.8770 C.2    54  LEU54       0.2260
    129  O         -5.6330   39.9520    2.9050 O.2    54  LEU54      -0.2867
    130  CB        -5.9900   38.1290    0.3670 C.3    54  LEU54       0.0270
    131  CG        -5.6150   37.4460   -0.9610 C.3    54  LEU54       0.0019
    132  CD1       -5.9860   35.9860   -0.9010 C.3    54  LEU54       0.0001
    133  CD2       -6.2790   38.0980   -2.1700 C.3    54  LEU54       0.0001
    134  N         -6.9050   38.7860    6.5420 N.3    57  ARG57      -0.1245
    135  CA        -5.9760   37.7120    6.8850 C.3    57  ARG57       0.1563
    136  C         -4.5640   38.2820    6.8510 C.2    57  ARG57       0.2260
    137  O         -4.3200   39.3130    6.2160 O.2    57  ARG57      -0.2867
    138  CB        -6.1110   36.5320    5.9120 C.3    57  ARG57       0.0307
    139  CG        -5.8150   36.8720    4.4570 C.3    57  ARG57       0.0489
    140  CD        -6.7410   36.1400    3.5080 C.3    57  ARG57       0.2205
    141  NE        -8.1500   36.3540    3.8350 N.pl3  57  ARG57      -0.0865
    142  CZ        -9.1640   36.0970    3.0140 C.cat  57  ARG57       0.5346
    143  NH1       -8.9410   35.6260    1.7910 N.pl3  57  ARG57       0.1354
    144  NH2      -10.4060   36.3250    3.4130 N.pl3  57  ARG57       0.1354
    145  N          0.5210   29.1870    0.3090 N.3    92  PHE92      -0.1241
    146  CA        -0.3980   29.7470   -0.6740 C.3    92  PHE92       0.1605
    147  C          0.1740   29.6680   -2.0970 C.2    92  PHE92       0.2264
    148  O         -0.4950   30.0300   -3.0640 O.2    92  PHE92      -0.2867
    149  CB        -0.6800   31.2020   -0.2870 C.3    92  PHE92       0.0534
    150  CG        -1.9720   31.7650   -0.8230 C.ar   92  PHE92      -0.0203
    151  CD1       -3.1870   31.1260   -0.5920 C.ar   92  PHE92      -0.0042
    152  CD2       -1.9760   32.9800   -1.5090 C.ar   92  PHE92      -0.0042
    153  CE1       -4.3850   31.6740   -1.0550 C.ar   92  PHE92      -0.0003
    154  CE2       -3.1710   33.5360   -1.9780 C.ar   92  PHE92      -0.0003
    155  CZ        -4.3830   32.8770   -1.7440 C.ar   92  PHE92      -0.0000
    156  N          5.5400   25.3130   -2.8070 N.3    98  PHE98      -0.1241
    157  CA         4.9270   23.9920   -2.6930 C.3    98  PHE98       0.1605
    158  C          5.9970   22.8970   -2.6340 C.2    98  PHE98       0.2264
    159  O          5.9170   21.9800   -1.8100 O.2    98  PHE98      -0.2867
    160  CB         3.9550   23.7360   -3.8530 C.3    98  PHE98       0.0534
    161  CG         2.7120   24.6090   -3.8340 C.ar   98  PHE98      -0.0203
    162  CD1        2.1890   25.1110   -5.0300 C.ar   98  PHE98      -0.0042
    163  CD2        2.0640   24.9230   -2.6330 C.ar   98  PHE98      -0.0042
    164  CE1        1.0450   25.9080   -5.0350 C.ar   98  PHE98      -0.0003
    165  CE2        0.9140   25.7180   -2.6230 C.ar   98  PHE98      -0.0003
    166  CZ         0.3970   26.2070   -3.8240 C.ar   98  PHE98      -0.0000
    167  N         -5.2960   21.2870    1.4640 N.3   109  TYR109     -0.1241
    168  CA        -6.6030   21.5530    0.8810 C.3   109  TYR109      0.1605
    169  C         -6.4170   21.7590   -0.6150 C.2   109  TYR109      0.2264
    170  O         -5.9120   22.7940   -1.0680 O.2   109  TYR109     -0.2867
    171  CB        -7.2500   22.7850    1.5140 C.3   109  TYR109      0.0534
    172  CG        -7.5570   22.6440    2.9870 C.ar  109  TYR109     -0.0201
    173  CD1       -6.5900   22.9420    3.9510 C.ar  109  TYR109     -0.0009
    174  CD2       -8.8160   22.2190    3.4200 C.ar  109  TYR109     -0.0009
    175  CE1       -6.8650   22.8120    5.3020 C.ar  109  TYR109      0.0417
    176  CE2       -9.1010   22.0850    4.7740 C.ar  109  TYR109      0.0417
    177  CZ        -8.1240   22.3900    5.7060 C.ar  109  TYR109      0.1957
    178  OH        -8.3910   22.2690    7.0400 O.3   109  TYR109     -0.2866
    179  N         -7.9190   21.8560   -4.4940 N.3   111  THR111     -0.1218
    180  CA        -8.9590   21.8890   -5.5020 C.3   111  THR111      0.1862
    181  C         -8.4010   21.1900   -6.7410 C.2   111  THR111      0.2287
    182  O         -7.5100   21.7190   -7.4220 O.2   111  THR111     -0.2866
    183  CB        -9.3780   23.3340   -5.8600 C.3   111  THR111      0.1770
    184  OG1       -9.8000   24.0310   -4.6800 O.3   111  THR111     -0.2211
    185  CG2      -10.5170   23.3290   -6.8770 C.3   111  THR111      0.0375
@<TRIPOS>BOND
     1    49    48    2
     2    29    30    1
     3    41    42    1
     4    41    38    1
     5    42    43    1
     6    48    47    1
     7    36    34   am
     8    37    38    1
     9    37    31   am
    10    40    39    2
    11    30    33    1
    12    30    31    1
    13    38    39    1
    14    33    34    1
    15    39    46   am
    16    34    35    2
    17    31    32    2
    18    43    45   am
    19    43    44    2
    20    47    46    1
    21    47    50    1
    22    21    22    1
    23    50    51    1
    24    23    24    2
    25    23    22    1
    26    22    25    1
    27    51    53    1
    28    51    52    1
    29   108   107    1
    30    26    25    1
    31    26    28    1
    32   106   105    2
    33    25    27    1
    34   107   104    1
    35   104   105    1
    36   104   103    1
    37   105   109   am
    38    19    18    2
    39    69    67    1
    40    18    17    1
    41   109   110    1
    42    20    17    1
    43   182   181    2
    44   112   111    2
    45    17    16    1
    46    67    68    1
    47    67    66    1
    48   110   111    1
    49   110   113    1
    50    58    59    1
    51    58    55    1
    52   185   183    1
    53    96    97    1
    54   181   180    1
    55    54    55    1
    56    61    59   ar
    57    97    98    1
    58    97   100    1
    59    99    98    2
    60    59    60   ar
    61   101   100    1
    62    16    11   am
    63    55    56    1
    64    66    63    1
    65   183   180    1
    66   183   184    1
    67   114   113    1
    68   114   116    1
    69   113   115    1
    70    62    56   am
    71    62    63    1
    72    15    13    1
    73   180   179    1
    74   100   102    1
    75    56    57    2
    76   164   162   ar
    77   164   166   ar
    78   162   161   ar
    79    63    64    1
    80    11    12    2
    81    11    10    1
    82   117   118    1
    83   122   121    1
    84   122   123    1
    85    13    10    1
    86    13    14    1
    87    10     9    1
    88   124   123    1
    89   124   125    1
    90   160   161    1
    91   160   157    1
    92   161   163   ar
    93   166   165   ar
    94    64    65    2
    95   121   118    1
    96   118   119    1
    97   148   147    2
    98   156   157    1
    99   120   119    2
   100   157   158    1
   101   158   159    2
   102   163   165   ar
   103     9     3   am
   104    86    84    1
   105   133   131    1
   106    74    75    1
   107    74    71    1
   108   147   146    1
   109    70    71    1
   110     4     3    2
   111   154   155   ar
   112   154   152   ar
   113   155   153   ar
   114    84    85    1
   115    84    81    1
   116     3     2    1
   117    77    75   ar
   118    77    79   ar
   119   152   150   ar
   120    75    76   ar
   121    71    72    1
   122    80    81    1
   123    80    72   am
   124   170   169    2
   125   153   151   ar
   126   131   132    1
   127   131   130    1
   128   150   151   ar
   129   150   149    1
   130    79    78   ar
   131   146   149    1
   132   146   145    1
   133   169   168    1
   134    76    78   ar
   135    81    82    1
   136    72    73    2
   137     2     5    1
   138     2     1    1
   139    93    94    1
   140    93    92    1
   141    87    82   am
   142    87    88    1
   143     5     6    1
   144    95    94    1
   145    91    92    1
   146    91    88    1
   147     6     8    1
   148     6     7    1
   149   126   127    1
   150   130   127    1
   151    82    83    2
   152   127   128    1
   153   168   167    1
   154   168   171    1
   155    88    89    1
   156   171   172    1
   157   143   142    1
   158   128   129    2
   159    89    90    2
   160   172   174   ar
   161   172   173   ar
   162   142   144    1
   163   142   141    2
   164   174   176   ar
   165   140   141    1
   166   140   139    1
   167   173   175   ar
   168   139   138    1
   169   176   177   ar
   170   175   177   ar
   171   177   178    1
   172   138   135    1
   173   137   136    2
   174   134   135    1
   175   136   135    1
