@<TRIPOS>MOLECULE
tmp/4lalC02.pdb
 98 94 0 0 0
SMALL
GASTEIGER

@<TRIPOS>ATOM
      1  N          3.6110   -0.7530   38.3680 N.3   229  TYR229     -0.1227
      2  CA         2.4590    0.1180   38.5770 C.3   229  TYR229      0.1736
      3  C          2.5710    0.8960   39.8860 C.2   229  TYR229      0.2595
      4  O          2.4170    2.1200   39.8980 O.2   229  TYR229     -0.2718
      5  CB         1.1520   -0.6770   38.5550 C.3   229  TYR229      0.0548
      6  CG        -0.0490    0.1960   38.8180 C.ar  229  TYR229     -0.0200
      7  CD1       -0.5760    1.0030   37.8140 C.ar  229  TYR229     -0.0009
      8  CD2       -0.6340    0.2470   40.0780 C.ar  229  TYR229     -0.0009
      9  CE1       -1.6650    1.8230   38.0540 C.ar  229  TYR229      0.0417
     10  CE2       -1.7220    1.0640   40.3280 C.ar  229  TYR229      0.0417
     11  CZ        -2.2330    1.8470   39.3150 C.ar  229  TYR229      0.1957
     12  OH        -3.3120    2.6550   39.5680 O.3   229  TYR229     -0.2866
     13  N          2.8390    0.1860   40.9810 N.am  230  MET230     -0.1965
     14  CA         2.9800    0.8220   42.2950 C.3   230  MET230      0.1736
     15  C          4.1010    1.8650   42.3180 C.2   230  MET230      0.2616
     16  O          4.0000    2.8670   43.0270 O.2   230  MET230     -0.2715
     17  CB         3.2240   -0.2230   43.3930 C.3   230  MET230      0.0427
     18  CG         2.0550   -1.1650   43.6580 C.3   230  MET230      0.0599
     19  SD         0.5010   -0.3350   44.0420 S.3   230  MET230     -0.1393
     20  CE         0.7830    0.1800   45.7340 C.3   230  MET230      0.0692
     21  N          5.1550    1.6330   41.5370 N.am  231  ALA231     -0.1963
     22  CA         6.2800    2.5700   41.4500 C.3   231  ALA231      0.1728
     23  C          5.9990    3.7820   40.5540 C.2   231  ALA231      0.2616
     24  O          6.7850    4.7290   40.5360 O.2   231  ALA231     -0.2715
     25  CB         7.5290    1.8460   40.9720 C.3   231  ALA231      0.0334
     26  N          4.8950    3.7480   39.8090 N.am  232  GLY232     -0.1955
     27  CA         4.4820    4.8770   38.9750 C.3   232  GLY232      0.1869
     28  C          5.1610    4.9290   37.6160 C.2   232  GLY232      0.2309
     29  O          5.2040    5.9810   36.9810 O.2   232  GLY232     -0.2863
     30  N          2.9150    6.0900   34.6100 N.3   235  ASP235     -0.1239
     31  CA         2.7050    7.5400   34.5640 C.3   235  ASP235      0.1674
     32  C          3.9640    8.2460   34.0880 C.2   235  ASP235      0.2266
     33  O          3.9360    8.9840   33.1050 O.2   235  ASP235     -0.2867
     34  CB         2.3140    8.0840   35.9400 C.3   235  ASP235      0.1410
     35  CG         0.8840    7.7580   36.3160 C.2   235  ASP235      0.3668
     36  OD1        0.1760    7.1080   35.5180 O.co2 235  ASP235     -0.2456
     37  OD2        0.4650    8.1630   37.4160 O.co2 235  ASP235     -0.2456
     38  N         -5.3450   -0.9980   47.2460 N.3   262  ILE262     -0.1245
     39  CA        -4.7160    0.3220   47.1760 C.3   262  ILE262      0.1561
     40  C         -5.5600    1.3640   47.9070 C.2   262  ILE262      0.2260
     41  O         -5.0650    2.0430   48.8070 O.2   262  ILE262     -0.2867
     42  CB        -4.4780    0.7650   45.7160 C.3   262  ILE262      0.0252
     43  CG1       -3.3360   -0.0510   45.1040 C.3   262  ILE262      0.0019
     44  CG2       -4.1380    2.2520   45.6390 C.3   262  ILE262      0.0019
     45  CD1       -3.3320   -0.0640   43.5930 C.3   262  ILE262      0.0001
     46  N         -0.9070    4.3340   52.7640 N.3   268  LEU268     -0.1245
     47  CA        -0.7770    5.0490   51.4900 C.3   268  LEU268      0.1561
     48  C         -1.8330    6.1430   51.3280 C.2   268  LEU268      0.2260
     49  O         -1.5280    7.2380   50.8550 O.2   268  LEU268     -0.2867
     50  CB        -0.8370    4.0760   50.3050 C.3   268  LEU268      0.0270
     51  CG         0.3070    3.0640   50.1650 C.3   268  LEU268      0.0019
     52  CD1        0.1580    2.2830   48.8680 C.3   268  LEU268      0.0001
     53  CD2        1.6650    3.7410   50.2120 C.3   268  LEU268      0.0001
     54  N         -0.8370    9.2950   49.0840 N.3   273  LYS273     -0.1231
     55  CA        -0.2820    8.5650   47.9490 C.3   273  LYS273      0.1693
     56  C         -1.3530    8.0470   46.9920 C.2   273  LYS273      0.2592
     57  O         -1.0280    7.4920   45.9490 O.2   273  LYS273     -0.2718
     58  CB         0.5360    7.3810   48.4520 C.3   273  LYS273      0.0285
     59  CG         1.8960    7.7390   49.0280 C.3   273  LYS273      0.0035
     60  CD         3.0220    7.2810   48.1080 C.3   273  LYS273      0.0206
     61  CE         3.1640    5.7600   48.0930 C.3   273  LYS273      0.1093
     62  NZ         3.8220    5.1770   46.8870 N.3   273  LYS273     -0.1314
     63  N         -2.6210    8.2230   47.3490 N.am  274  VAL274     -0.1966
     64  CA        -3.7350    7.6850   46.5700 C.3   274  VAL274      0.1712
     65  C         -4.7410    8.7970   46.2570 C.2   274  VAL274      0.2458
     66  O         -5.7960    8.8790   46.8880 O.2   274  VAL274     -0.2730
     67  CB        -4.4420    6.5300   47.3220 C.3   274  VAL274      0.0289
     68  CG1       -5.3620    5.7620   46.3840 C.3   274  VAL274      0.0023
     69  CG2       -3.4240    5.5830   47.9420 C.3   274  VAL274      0.0023
     70  N         -4.4140    9.6650   45.2810 N.am  275  PRO275     -0.2727
     71  CA        -5.3650   10.7090   44.8960 C.3   275  PRO275      0.1402
     72  C         -6.5170   10.1310   44.0760 C.2   275  PRO275      0.2269
     73  O         -6.3620    9.0800   43.4590 O.2   275  PRO275     -0.2865
     74  CB        -4.5220   11.6840   44.0600 C.3   275  PRO275      0.0296
     75  CG        -3.2410   10.9850   43.7440 C.3   275  PRO275      0.0237
     76  CD        -3.2250    9.6430   44.4120 C.3   275  PRO275      0.0939
     77  N         -5.9100    9.6920   40.2970 N.3   278  ARG278     -0.1231
     78  CA        -4.9390    8.6420   39.9600 C.3   278  ARG278      0.1694
     79  C         -5.3850    7.7390   38.8070 C.2   278  ARG278      0.2591
     80  O         -6.5360    7.2990   38.7600 O.2   278  ARG278     -0.2718
     81  CB        -4.6460    7.8160   41.2240 C.3   278  ARG278      0.0321
     82  CG        -4.4950    6.3140   41.0600 C.3   278  ARG278      0.0489
     83  CD        -4.6730    5.6360   42.4090 C.3   278  ARG278      0.2205
     84  NE        -4.6420    4.1830   42.2900 N.pl3 278  ARG278     -0.0865
     85  CZ        -5.6920    3.3690   42.3940 C.cat 278  ARG278      0.5346
     86  NH1       -6.9200    3.8240   42.6400 N.pl3 278  ARG278      0.1354
     87  NH2       -5.5010    2.0670   42.2620 N.pl3 278  ARG278      0.1354
     88  N         -4.4680    7.4740   37.8790 N.am  279  ARG279     -0.1980
     89  CA        -4.7240    6.5350   36.7870 C.3   279  ARG279      0.1597
     90  C         -4.6900    5.1130   37.3360 C.2   279  ARG279      0.2287
     91  O         -3.6320    4.6090   37.7230 O.2   279  ARG279     -0.2864
     92  CB        -3.7020    6.7070   35.6600 C.3   279  ARG279      0.0334
     93  CG        -3.8210    8.0400   34.9380 C.3   279  ARG279      0.0492
     94  CD        -2.7440    8.2300   33.8820 C.3   279  ARG279      0.2205
     95  NE        -2.9390    7.3620   32.7190 N.pl3 279  ARG279     -0.0865
     96  CZ        -2.1170    6.3850   32.3250 C.cat 279  ARG279      0.5346
     97  NH1       -2.4250    5.6750   31.2460 N.pl3 279  ARG279      0.1354
     98  NH2       -0.9920    6.1080   32.9830 N.pl3 279  ARG279      0.1354
@<TRIPOS>BOND
     1    97    96    1
     2    96    95    2
     3    96    98    1
     4    95    94    1
     5    33    32    2
     6    94    93    1
     7    32    31    1
     8    31    30    1
     9    31    34    1
    10    93    92    1
    11    36    35   ar
    12    92    89    1
    13    34    35    1
    14    35    37   ar
    15    89    90    1
    16    89    88    1
    17    29    28    2
    18    90    91    2
    19    28    27    1
    20     7     9   ar
    21     7     6   ar
    22    88    79   am
    23     9    11   ar
    24     1     2    1
    25     5     2    1
    26     5     6    1
    27     2     3    1
    28    80    79    2
    29    79    78    1
    30     6     8   ar
    31    27    26    1
    32    11    12    1
    33    11    10   ar
    34    26    23   am
    35     3     4    2
    36     3    13   am
    37    78    77    1
    38    78    81    1
    39     8    10   ar
    40    24    23    2
    41    23    22    1
    42    25    22    1
    43    13    14    1
    44    82    81    1
    45    82    83    1
    46    22    21    1
    47    21    15   am
    48    87    85    1
    49    84    85    2
    50    84    83    1
    51    14    15    1
    52    14    17    1
    53    15    16    2
    54    85    86    1
    55    17    18    1
    56    73    72    2
    57    45    43    1
    58    18    19    1
    59    75    74    1
    60    75    76    1
    61    19    20    1
    62    74    71    1
    63    72    71    1
    64    76    70    1
    65    71    70    1
    66    43    42    1
    67    70    65   am
    68    44    42    1
    69    42    39    1
    70    57    56    2
    71    65    64    1
    72    65    66    2
    73    68    67    1
    74    64    67    1
    75    64    63    1
    76    62    61    1
    77    56    63   am
    78    56    55    1
    79    39    38    1
    80    39    40    1
    81    67    69    1
    82    40    41    2
    83    55    58    1
    84    55    54    1
    85    61    60    1
    86    60    59    1
    87    58    59    1
    88    52    51    1
    89    51    53    1
    90    51    50    1
    91    50    47    1
    92    49    48    2
    93    48    47    1
    94    47    46    1
