@<TRIPOS>MOLECULE
tmp/4lalA03.pdb
 96 90 0 0 0
SMALL
GASTEIGER

@<TRIPOS>ATOM
      1  N        -27.0270   -6.9950    2.9190 N.3   181  ALA181     -0.1245
      2  CA       -26.1140   -7.5950    3.8910 C.3   181  ALA181      0.1562
      3  C        -25.3200   -8.7600    3.2930 C.2   181  ALA181      0.2260
      4  O        -24.1310   -8.9120    3.5740 O.2   181  ALA181     -0.2867
      5  CB       -26.8820   -8.0490    5.1240 C.3   181  ALA181      0.0290
      6  N        -22.4640   -7.6640    1.3490 N.3   184  LYS184     -0.1231
      7  CA       -21.4090   -7.0870    2.1940 C.3   184  LYS184      0.1693
      8  C        -21.3380   -5.5630    2.0880 C.2   184  LYS184      0.2592
      9  O        -20.2630   -4.9640    2.1700 O.2   184  LYS184     -0.2718
     10  CB       -20.0440   -7.7280    1.8970 C.3   184  LYS184      0.0285
     11  CG       -20.0170   -9.2510    2.0040 C.3   184  LYS184      0.0035
     12  CD       -19.7190   -9.7470    3.4160 C.3   184  LYS184      0.0206
     13  CE       -20.8570   -9.4780    4.3900 C.3   184  LYS184      0.1093
     14  NZ       -20.5490   -9.9010    5.7830 N.3   184  LYS184     -0.1314
     15  N        -22.5030   -4.9460    1.9330 N.am  185  LEU185     -0.1966
     16  CA       -22.6110   -3.4990    1.8580 C.3   185  LEU185      0.1728
     17  C        -23.0870   -2.9500    3.1940 C.2   185  LEU185      0.2616
     18  O        -24.0380   -3.4650    3.7820 O.2   185  LEU185     -0.2715
     19  CB       -23.5840   -3.1040    0.7500 C.3   185  LEU185      0.0311
     20  CG       -23.1030   -3.4010   -0.6720 C.3   185  LEU185      0.0022
     21  CD1      -24.2600   -3.3080   -1.6550 C.3   185  LEU185      0.0001
     22  CD2      -21.9760   -2.4640   -1.0750 C.3   185  LEU185      0.0001
     23  N        -22.4170   -1.9040    3.6650 N.am  186  LEU186     -0.1977
     24  CA       -22.8020   -1.2250    4.8950 C.3   186  LEU186      0.1596
     25  C        -24.0000   -0.3260    4.6110 C.2   186  LEU186      0.2287
     26  O        -24.0110    0.3970    3.6170 O.2   186  LEU186     -0.2864
     27  CB       -21.6330   -0.3900    5.4240 C.3   186  LEU186      0.0297
     28  CG       -21.8240    0.3190    6.7650 C.3   186  LEU186      0.0022
     29  CD1      -21.9770   -0.6850    7.8940 C.3   186  LEU186      0.0001
     30  CD2      -20.6540    1.2470    7.0420 C.3   186  LEU186      0.0001
     31  N        -29.0990  -11.2830   10.5660 N.3   238  ARG238     -0.1231
     32  CA       -28.0170  -11.2350   11.5520 C.3   238  ARG238      0.1694
     33  C        -26.7110  -10.6540   11.0000 C.2   238  ARG238      0.2592
     34  O        -25.9480  -10.0400   11.7420 O.2   238  ARG238     -0.2718
     35  CB       -27.7810  -12.6270   12.1580 C.3   238  ARG238      0.0321
     36  CG       -26.7560  -12.6840   13.2860 C.3   238  ARG238      0.0489
     37  CD       -27.1110  -11.7890   14.4680 C.3   238  ARG238      0.2205
     38  NE       -26.0150  -11.7170   15.4340 N.pl3 238  ARG238     -0.0865
     39  CZ       -24.9120  -10.9810   15.2870 C.cat 238  ARG238      0.5346
     40  NH1      -23.9770  -10.9970   16.2330 N.pl3 238  ARG238      0.1354
     41  NH2      -24.7300  -10.2310   14.2030 N.pl3 238  ARG238      0.1354
     42  N        -26.4640  -10.8330    9.7040 N.am  239  ASN239     -0.1974
     43  CA       -25.2650  -10.2750    9.0650 C.3   239  ASN239      0.1688
     44  C        -25.3900   -8.7910    8.6820 C.2   239  ASN239      0.2292
     45  O        -24.4460   -8.2120    8.1450 O.2   239  ASN239     -0.2864
     46  CB       -24.8610  -11.1090    7.8390 C.3   239  ASN239      0.1181
     47  CG       -25.9310  -11.1360    6.7580 C.2   239  ASN239      0.2629
     48  OD1      -27.0910  -10.8070    7.0050 O.2   239  ASN239     -0.2716
     49  ND2      -25.5430  -11.5370    5.5520 N.am  239  ASN239     -0.0877
     50  N        -25.2260   -4.8940    8.8870 N.3   241  GLN241     -0.1245
     51  CA       -24.4610   -3.8720    9.5970 C.3   241  GLN241      0.1566
     52  C        -24.9390   -2.4950    9.1460 C.2   241  GLN241      0.2260
     53  O        -25.2000   -2.2790    7.9600 O.2   241  GLN241     -0.2867
     54  CB       -22.9610   -4.0140    9.3310 C.3   241  GLN241      0.0367
     55  CG       -22.3790   -5.3800    9.6740 C.3   241  GLN241      0.0905
     56  CD       -21.9350   -5.5000   11.1230 C.2   241  GLN241      0.2608
     57  OE1      -21.1260   -4.7040   11.6060 O.2   241  GLN241     -0.2717
     58  NE2      -22.4430   -6.5120   11.8190 N.am  241  GLN241     -0.0878
     59  N        -22.6390    0.9000   13.5430 N.3   290  TYR290     -0.1241
     60  CA       -21.5970    1.9110   13.5780 C.3   290  TYR290      0.1605
     61  C        -22.2670    3.2680   13.7080 C.2   290  TYR290      0.2264
     62  O        -23.3730    3.4780   13.2110 O.2   290  TYR290     -0.2867
     63  CB       -20.7360    1.8590   12.3190 C.3   290  TYR290      0.0534
     64  CG       -19.9710    0.5690   12.1790 C.ar  290  TYR290     -0.0201
     65  CD1      -18.7410    0.3940   12.8070 C.ar  290  TYR290     -0.0009
     66  CD2      -20.4810   -0.4830   11.4310 C.ar  290  TYR290     -0.0009
     67  CE1      -18.0380   -0.7930   12.6850 C.ar  290  TYR290      0.0417
     68  CE2      -19.7880   -1.6730   11.3020 C.ar  290  TYR290      0.0417
     69  CZ       -18.5690   -1.8230   11.9290 C.ar  290  TYR290      0.1957
     70  OH       -17.8830   -3.0070   11.7990 O.3   290  TYR290     -0.2866
     71  N        -16.0070    1.5240   16.7580 N.3   312  ARG312     -0.1245
     72  CA       -17.2040    1.6030   15.9090 C.3   312  ARG312      0.1563
     73  C        -17.7200    3.0310   15.6880 C.2   312  ARG312      0.2260
     74  O        -18.8130    3.2230   15.1500 O.2   312  ARG312     -0.2867
     75  CB       -18.3070    0.7140   16.4870 C.3   312  ARG312      0.0307
     76  CG       -17.8930   -0.7450   16.6020 C.3   312  ARG312      0.0489
     77  CD       -19.0470   -1.6260   17.0450 C.3   312  ARG312      0.2205
     78  NE       -19.9890   -1.8780   15.9560 N.pl3 312  ARG312     -0.0865
     79  CZ       -19.9430   -2.9160   15.1200 C.cat 312  ARG312      0.5346
     80  NH1      -18.9920   -3.8430   15.2200 N.pl3 312  ARG312      0.1354
     81  NH2      -20.8640   -3.0300   14.1710 N.pl3 312  ARG312      0.1354
     82  N        -13.2760   -1.0330    8.2220 N.3   365  VAL365     -0.1231
     83  CA       -14.6570   -1.4840    8.0160 C.3   365  VAL365      0.1692
     84  C        -15.0790   -1.3970    6.5480 C.2   365  VAL365      0.2591
     85  O        -15.7520   -2.2970    6.0430 O.2   365  VAL365     -0.2718
     86  CB       -15.6530   -0.6900    8.8930 C.3   365  VAL365      0.0266
     87  CG1      -17.0970   -1.0620    8.5650 C.3   365  VAL365      0.0020
     88  CG2      -15.3780   -0.9420   10.3690 C.3   365  VAL365      0.0020
     89  N        -14.6850   -0.3210    5.8710 N.am  366  LEU366     -0.1980
     90  CA       -15.0900   -0.0960    4.4810 C.3   366  LEU366      0.1596
     91  C        -14.0370   -0.5170    3.4450 C.2   366  LEU366      0.2287
     92  O        -14.2110   -0.2550    2.2600 O.2   366  LEU366     -0.2864
     93  CB       -15.4790    1.3740    4.2750 C.3   366  LEU366      0.0297
     94  CG       -16.6420    1.8660    5.1380 C.3   366  LEU366      0.0022
     95  CD1      -16.8100    3.3710    5.0070 C.3   366  LEU366      0.0001
     96  CD2      -17.9310    1.1530    4.7610 C.3   366  LEU366      0.0001
@<TRIPOS>BOND
     1    21    20    1
     2    22    20    1
     3    20    19    1
     4    19    16    1
     5     6     7    1
     6    16    15    1
     7    16    17    1
     8    10    11    1
     9    10     7    1
    10    15     8   am
    11    11    12    1
    12     8     9    2
    13     8     7    1
    14    92    91    2
    15     1     2    1
    16    17    23   am
    17    17    18    2
    18     3     4    2
    19     3     2    1
    20    12    13    1
    21    91    90    1
    22    26    25    2
    23    23    24    1
    24     2     5    1
    25    93    90    1
    26    93    94    1
    27    13    14    1
    28    90    89    1
    29    25    24    1
    30    96    94    1
    31    24    27    1
    32    95    94    1
    33    27    28    1
    34    49    47   am
    35    89    84   am
    36    85    84    2
    37    84    83    1
    38    47    48    2
    39    47    46    1
    40    28    30    1
    41    28    29    1
    42    46    43    1
    43    53    52    2
    44    83    82    1
    45    83    86    1
    46    45    44    2
    47    87    86    1
    48    44    43    1
    49    50    51    1
    50    86    88    1
    51    43    42    1
    52    52    51    1
    53    54    51    1
    54    54    55    1
    55    55    56    1
    56    42    33   am
    57    31    32    1
    58    33    32    1
    59    33    34    2
    60    56    57    2
    61    56    58   am
    62    68    66   ar
    63    68    69   ar
    64    66    64   ar
    65    32    35    1
    66    70    69    1
    67    69    67   ar
    68    35    36    1
    69    64    63    1
    70    64    65   ar
    71    63    60    1
    72    67    65   ar
    73    62    61    2
    74    36    37    1
    75    59    60    1
    76    60    61    1
    77    81    79    1
    78    41    39    1
    79    37    38    1
    80    79    80    1
    81    79    78    2
    82    74    73    2
    83    39    38    2
    84    39    40    1
    85    73    72    1
    86    72    75    1
    87    72    71    1
    88    78    77    1
    89    75    76    1
    90    76    77    1
