@<TRIPOS>MOLECULE
tmp/4lalB00.pdb
 133 129 0 0 0
SMALL
GASTEIGER

@<TRIPOS>ATOM
      1  N        -38.9460   12.2210   41.6400 N.3     7  HIS7       -0.1241
      2  CA       -39.7640   11.8140   40.4960 C.3     7  HIS7        0.1621
      3  C        -40.6230   10.6230   40.9050 C.2     7  HIS7        0.2264
      4  O        -40.2610    9.4680   40.6790 O.2     7  HIS7       -0.2867
      5  CB       -38.8620   11.4470   39.3170 C.3     7  HIS7        0.0745
      6  CG       -39.5830   11.3130   38.0120 C.ar    7  HIS7        0.0817
      7  ND1      -39.0110   11.6850   36.8150 N.ar    7  HIS7       -0.2268
      8  CD2      -40.8210   10.8540   37.7090 C.ar    7  HIS7        0.1154
      9  CE1      -39.8610   11.4560   35.8310 C.ar    7  HIS7        0.1986
     10  NE2      -40.9660   10.9520   36.3480 N.ar    7  HIS7       -0.2212
     11  N        -45.0050    9.6650   41.6480 N.3     9  HIS9       -0.1241
     12  CA       -46.3580   10.1840   41.4360 C.3     9  HIS9        0.1621
     13  C        -47.4460    9.4880   42.2420 C.2     9  HIS9        0.2264
     14  O        -47.2550    8.3840   42.7540 O.2     9  HIS9       -0.2867
     15  CB       -46.7440   10.0810   39.9620 C.3     9  HIS9        0.0745
     16  CG       -45.7100   10.6150   39.0260 C.ar    9  HIS9        0.0817
     17  ND1      -45.3850   11.9520   38.9620 N.ar    9  HIS9       -0.2268
     18  CD2      -44.9380    9.9940   38.1050 C.ar    9  HIS9        0.1154
     19  CE1      -44.4480   12.1300   38.0480 C.ar    9  HIS9        0.1986
     20  NE2      -44.1630   10.9590   37.5120 N.ar    9  HIS9       -0.2212
     21  N        -54.3760    6.5480   29.4640 N.3    41  LEU41      -0.1231
     22  CA       -53.8870    7.9310   29.4410 C.3    41  LEU41       0.1693
     23  C        -53.5160    8.4560   28.0610 C.2    41  LEU41       0.2591
     24  O        -53.6060    9.6590   27.8140 O.2    41  LEU41      -0.2718
     25  CB       -52.6500    8.0520   30.3340 C.3    41  LEU41       0.0284
     26  CG       -52.8430    7.7570   31.8180 C.3    41  LEU41       0.0019
     27  CD1      -51.5190    7.9120   32.5500 C.3    41  LEU41       0.0001
     28  CD2      -53.9020    8.6670   32.4220 C.3    41  LEU41       0.0001
     29  N        -53.0840    7.5640   27.1750 N.am   42  LEU42      -0.1980
     30  CA       -52.4610    7.9660   25.9190 C.3    42  LEU42       0.1596
     31  C        -53.3680    7.6740   24.7280 C.2    42  LEU42       0.2287
     32  O        -54.1620    6.7330   24.7550 O.2    42  LEU42      -0.2864
     33  CB       -51.1170    7.2440   25.7530 C.3    42  LEU42       0.0297
     34  CG       -50.2510    7.1180   27.0170 C.3    42  LEU42       0.0022
     35  CD1      -48.9560    6.3800   26.7100 C.3    42  LEU42       0.0001
     36  CD2      -49.9510    8.4740   27.6410 C.3    42  LEU42       0.0001
     37  N        -52.6870    0.5280   31.0450 N.3    62  ARG62      -0.1245
     38  CA       -51.8590   -0.1480   32.0390 C.3    62  ARG62       0.1563
     39  C        -52.6360   -0.3110   33.3390 C.2    62  ARG62       0.2260
     40  O        -53.5610    0.4600   33.6050 O.2    62  ARG62      -0.2867
     41  CB       -50.5750    0.6400   32.2750 C.3    62  ARG62       0.0307
     42  CG       -49.6140    0.5800   31.1000 C.3    62  ARG62       0.0489
     43  CD       -48.5340    1.6320   31.2240 C.3    62  ARG62       0.2205
     44  NE       -49.0820    2.9760   31.0690 N.pl3  62  ARG62      -0.0865
     45  CZ       -48.3960    4.0980   31.2610 C.cat  62  ARG62       0.5346
     46  NH1      -47.1180    4.0500   31.6250 N.pl3  62  ARG62       0.1354
     47  NH2      -48.9940    5.2700   31.0940 N.pl3  62  ARG62       0.1354
     48  N        -49.3520   12.5880   35.3170 N.3    92  ASN92      -0.1240
     49  CA       -49.9320   13.0850   34.0700 C.3    92  ASN92       0.1653
     50  C        -51.3410   12.5230   33.8480 C.2    92  ASN92       0.2266
     51  O        -51.6160   11.3930   34.2420 O.2    92  ASN92      -0.2867
     52  CB       -49.0310   12.7100   32.8890 C.3    92  ASN92       0.1155
     53  CG       -48.5940   11.2510   32.9250 C.2    92  ASN92       0.2627
     54  OD1      -47.9560   10.8110   33.8850 O.2    92  ASN92      -0.2716
     55  ND2      -48.9340   10.4950   31.8920 N.am   92  ASN92      -0.0877
     56  N        -42.5840   17.7280   32.7320 N.3   189  HIS189     -0.1241
     57  CA       -42.8180   16.3020   32.5760 C.3   189  HIS189      0.1621
     58  C        -43.6230   16.0140   31.3060 C.2   189  HIS189      0.2264
     59  O        -44.5520   16.7540   30.9870 O.2   189  HIS189     -0.2867
     60  CB       -43.5690   15.7800   33.8000 C.3   189  HIS189      0.0745
     61  CG       -43.6150   14.2900   33.8830 C.ar  189  HIS189      0.0817
     62  ND1      -44.4500   13.5270   33.0960 N.ar  189  HIS189     -0.2268
     63  CD2      -42.9170   13.4190   34.6480 C.ar  189  HIS189      0.1154
     64  CE1      -44.2680   12.2500   33.3760 C.ar  189  HIS189      0.1986
     65  NE2      -43.3440   12.1590   34.3140 N.ar  189  HIS189     -0.2212
     66  N        -43.5520    5.4960   25.2660 N.3   212  LEU212     -0.1245
     67  CA       -42.9210    5.7530   26.5660 C.3   212  LEU212      0.1561
     68  C        -41.4070    5.9440   26.4800 C.2   212  LEU212      0.2260
     69  O        -40.8540    6.8160   27.1530 O.2   212  LEU212     -0.2867
     70  CB       -43.2330    4.6230   27.5550 C.3   212  LEU212      0.0270
     71  CG       -44.6850    4.4560   28.0070 C.3   212  LEU212      0.0019
     72  CD1      -44.7760    3.3460   29.0450 C.3   212  LEU212      0.0001
     73  CD2      -45.2500    5.7530   28.5710 C.3   212  LEU212      0.0001
     74  N        -42.0680   10.2680   24.9740 N.3   216  PHE216     -0.1241
     75  CA       -41.9650   11.0730   26.1970 C.3   216  PHE216      0.1605
     76  C        -40.7040   11.9440   26.2430 C.2   216  PHE216      0.2264
     77  O        -40.8080   13.1680   26.3400 O.2   216  PHE216     -0.2867
     78  CB       -42.0480   10.1710   27.4450 C.3   216  PHE216      0.0534
     79  CG       -43.4470    9.9760   27.9790 C.ar  216  PHE216     -0.0203
     80  CD1      -44.5610   10.0650   27.1490 C.ar  216  PHE216     -0.0042
     81  CD2      -43.6440    9.6790   29.3190 C.ar  216  PHE216     -0.0042
     82  CE1      -45.8390    9.8820   27.6520 C.ar  216  PHE216     -0.0003
     83  CE2      -44.9200    9.4920   29.8270 C.ar  216  PHE216     -0.0003
     84  CZ       -46.0190    9.5930   28.9930 C.ar  216  PHE216     -0.0000
     85  N        -36.6820   12.7150   33.1630 N.3   245  HIS245     -0.1241
     86  CA       -35.8860   11.7620   32.3940 C.3   245  HIS245      0.1621
     87  C        -34.5700   12.3440   31.8740 C.2   245  HIS245      0.2264
     88  O        -34.2130   12.1660   30.7080 O.2   245  HIS245     -0.2867
     89  CB       -36.7320   11.1930   31.2540 C.3   245  HIS245      0.0745
     90  CG       -38.1190   10.8250   31.6760 C.ar  245  HIS245      0.0817
     91  ND1      -39.2430   11.2810   31.0230 N.ar  245  HIS245     -0.2268
     92  CD2      -38.5630   10.0810   32.7160 C.ar  245  HIS245      0.1154
     93  CE1      -40.3200   10.8110   31.6280 C.ar  245  HIS245      0.1986
     94  NE2      -39.9340   10.0810   32.6580 N.ar  245  HIS245     -0.2212
     95  N        -31.7590    5.3430   33.4490 N.3   295  TYR295     -0.1241
     96  CA       -31.5950    3.8810   33.3850 C.3   295  TYR295      0.1605
     97  C        -30.2310    3.3820   32.8860 C.2   295  TYR295      0.2264
     98  O        -30.0870    2.2000   32.5670 O.2   295  TYR295     -0.2867
     99  CB       -32.7080    3.2620   32.5260 C.3   295  TYR295      0.0534
    100  CG       -34.0970    3.6310   32.9800 C.ar  295  TYR295     -0.0201
    101  CD1      -34.6870    2.9800   34.0580 C.ar  295  TYR295     -0.0009
    102  CD2      -34.8210    4.6290   32.3370 C.ar  295  TYR295     -0.0009
    103  CE1      -35.9610    3.3100   34.4830 C.ar  295  TYR295      0.0417
    104  CE2      -36.0960    4.9680   32.7540 C.ar  295  TYR295      0.0417
    105  CZ       -36.6600    4.3060   33.8280 C.ar  295  TYR295      0.1957
    106  OH       -37.9230    4.6340   34.2480 O.3   295  TYR295     -0.2866
    107  N        -39.5800    7.3050   39.1070 N.3   317  ALA317     -0.1245
    108  CA       -40.7660    7.2540   38.2360 C.3   317  ALA317      0.1562
    109  C        -41.8770    6.3440   38.7830 C.2   317  ALA317      0.2260
    110  O        -42.7620    5.9110   38.0400 O.2   317  ALA317     -0.2867
    111  CB       -40.3860    6.8520   36.8150 C.3   317  ALA317      0.0290
    112  N        -45.0860    3.8670   37.9150 N.3   320  PHE320     -0.1227
    113  CA       -45.4220    3.5320   36.5220 C.3   320  PHE320      0.1736
    114  C        -44.7680    2.2770   35.9400 C.2   320  PHE320      0.2595
    115  O        -45.3230    1.6740   35.0220 O.2   320  PHE320     -0.2718
    116  CB       -45.1770    4.7310   35.6000 C.3   320  PHE320      0.0547
    117  CG       -46.3200    5.6980   35.5790 C.ar  320  PHE320     -0.0202
    118  CD1      -47.4430    5.4370   34.8050 C.ar  320  PHE320     -0.0042
    119  CD2      -46.2940    6.8450   36.3570 C.ar  320  PHE320     -0.0042
    120  CE1      -48.5130    6.3160   34.7910 C.ar  320  PHE320     -0.0003
    121  CE2      -47.3600    7.7290   36.3480 C.ar  320  PHE320     -0.0003
    122  CZ       -48.4710    7.4650   35.5630 C.ar  320  PHE320     -0.0000
    123  N        -43.6090    1.8820   36.4580 N.am  321  PHE321     -0.1976
    124  CA       -42.9270    0.6900   35.9530 C.3   321  PHE321      0.1639
    125  C        -42.7450   -0.3440   37.0560 C.2   321  PHE321      0.2290
    126  O        -41.6280   -0.5550   37.5370 O.2   321  PHE321     -0.2864
    127  CB       -41.5880    1.0680   35.3180 C.3   321  PHE321      0.0560
    128  CG       -41.7190    2.0470   34.1870 C.ar  321  PHE321     -0.0200
    129  CD1      -41.6680    3.4100   34.4310 C.ar  321  PHE321     -0.0042
    130  CD2      -41.9170    1.6090   32.8830 C.ar  321  PHE321     -0.0042
    131  CE1      -41.7950    4.3210   33.3980 C.ar  321  PHE321     -0.0003
    132  CE2      -42.0470    2.5160   31.8430 C.ar  321  PHE321     -0.0003
    133  CZ       -41.9860    3.8750   32.1020 C.ar  321  PHE321     -0.0000
@<TRIPOS>BOND
     1    31    32    2
     2    31    30    1
     3    74    75    1
     4    66    67    1
     5    33    30    1
     6    33    34    1
     7    30    29    1
     8    75    76    1
     9    75    78    1
    10    76    77    2
    11    68    67    1
    12    68    69    2
    13    67    70    1
    14    35    34    1
    15    34    36    1
    16    80    82   ar
    17    80    79   ar
    18    29    23   am
    19    78    79    1
    20    70    71    1
    21    82    84   ar
    22    24    23    2
    23    79    81   ar
    24    71    73    1
    25    71    72    1
    26    23    22    1
    27    84    83   ar
    28    81    83   ar
    29    22    21    1
    30    22    25    1
    31    25    26    1
    32    88    87    2
    33    59    58    2
    34    91    93   ar
    35    91    90   ar
    36    37    38    1
    37    44    43    1
    38    44    45    2
    39    47    45    1
    40    42    43    1
    41    42    41    1
    42    89    90    1
    43    89    86    1
    44    45    46    1
    45    58    57    1
    46    93    94   ar
    47    90    92   ar
    48    26    28    1
    49    26    27    1
    50   132   133   ar
    51   132   130   ar
    52    87    86    1
    53    55    53   am
    54    38    41    1
    55    38    39    1
    56   133   131   ar
    57   102   104   ar
    58   102   100   ar
    59    86    85    1
    60    99   100    1
    61    99    96    1
    62    98    97    2
    63    57    56    1
    64    57    60    1
    65    94    92   ar
    66   104   105   ar
    67   130   128   ar
    68    97    96    1
    69    52    53    1
    70    52    49    1
    71    53    54    2
    72   100   101   ar
    73    62    64   ar
    74    62    61   ar
    75    39    40    2
    76    64    65   ar
    77    96    95    1
    78   131   129   ar
    79    60    61    1
    80   105   106    1
    81   105   103   ar
    82    50    49    1
    83    50    51    2
    84    61    63   ar
    85   101   103   ar
    86    49    48    1
    87   128   129   ar
    88   128   127    1
    89    65    63   ar
    90   120   118   ar
    91   120   122   ar
    92   118   117   ar
    93   115   114    2
    94   127   124    1
    95   122   121   ar
    96   117   116    1
    97   117   119   ar
    98   116   113    1
    99     9    10   ar
   100     9     7   ar
   101   114   123   am
   102   114   113    1
   103   124   123    1
   104   124   125    1
   105    10     8   ar
   106   121   119   ar
   107   113   112    1
   108     7     6   ar
   109   111   108    1
   110   125   126    2
   111    20    19   ar
   112    20    18   ar
   113     8     6   ar
   114     6     5    1
   115   110   109    2
   116    19    17   ar
   117    18    16   ar
   118   108   109    1
   119   108   107    1
   120    17    16   ar
   121    16    15    1
   122     5     2    1
   123    15    12    1
   124     2     3    1
   125     2     1    1
   126     4     3    2
   127    12    11    1
   128    12    13    1
   129    13    14    2
