@<TRIPOS>MOLECULE
tmp/4lalC01.pdb
 85 79 0 0 0
SMALL
GASTEIGER

@<TRIPOS>ATOM
      1  N         10.5150    3.4100   24.9050 N.3   181  ALA181     -0.1245
      2  CA         9.2500    4.0750   24.5820 C.3   181  ALA181      0.1562
      3  C          9.4340    5.1910   23.5520 C.2   181  ALA181      0.2260
      4  O          8.6210    5.3350   22.6370 O.2   181  ALA181     -0.2867
      5  CB         8.6040    4.6260   25.8440 C.3   181  ALA181      0.0290
      6  N          9.6140    4.0720   20.1030 N.3   184  LYS184     -0.1231
      7  CA         8.3360    3.5260   19.6230 C.3   184  LYS184      0.1693
      8  C          8.3860    1.9950   19.5490 C.2   184  LYS184      0.2592
      9  O          7.7490    1.3760   18.6970 O.2   184  LYS184     -0.2718
     10  CB         7.9410    4.1570   18.2740 C.3   184  LYS184      0.0285
     11  CG         6.4900    3.9600   17.8330 C.3   184  LYS184      0.0035
     12  CD         5.4860    4.1300   18.9660 C.3   184  LYS184      0.0206
     13  CE         4.0950    4.4670   18.4470 C.3   184  LYS184      0.1093
     14  NZ         3.1200    4.6610   19.5570 N.3   184  LYS184     -0.1314
     15  N          9.1440    1.3980   20.4660 N.am  185  LEU185     -0.1966
     16  CA         9.2860   -0.0520   20.5420 C.3   185  LEU185      0.1728
     17  C          8.3650   -0.6170   21.6180 C.2   185  LEU185      0.2616
     18  O          8.4120   -0.1910   22.7700 O.2   185  LEU185     -0.2715
     19  CB        10.7410   -0.4280   20.8400 C.3   185  LEU185      0.0311
     20  CG        11.7220   -0.1900   19.6870 C.3   185  LEU185      0.0022
     21  CD1       13.1650   -0.2120   20.1670 C.3   185  LEU185      0.0001
     22  CD2       11.5130   -1.2150   18.5830 C.3   185  LEU185      0.0001
     23  N          7.5270   -1.5740   21.2310 N.am  186  LEU186     -0.1977
     24  CA         6.6450   -2.2580   22.1710 C.3   186  LEU186      0.1596
     25  C          7.4630   -3.1830   23.0670 C.2   186  LEU186      0.2287
     26  O          8.3210   -3.9200   22.5810 O.2   186  LEU186     -0.2864
     27  CB         5.5870   -3.0640   21.4120 C.3   186  LEU186      0.0297
     28  CG         4.5590   -3.8410   22.2420 C.3   186  LEU186      0.0022
     29  CD1        3.7530   -2.9110   23.1320 C.3   186  LEU186      0.0001
     30  CD2        3.6330   -4.6320   21.3340 C.3   186  LEU186      0.0001
     31  N          4.3650    7.4130   27.6630 N.3   239  ASN239     -0.1240
     32  CA         4.3140    6.8500   26.3100 C.3   239  ASN239      0.1653
     33  C          4.6820    5.3600   26.2370 C.2   239  ASN239      0.2266
     34  O          4.6550    4.7710   25.1560 O.2   239  ASN239     -0.2867
     35  CB         5.1890    7.6630   25.3450 C.3   239  ASN239      0.1155
     36  CG         6.6630    7.6350   25.7120 C.2   239  ASN239      0.2627
     37  OD1        7.0230    7.4580   26.8770 O.2   239  ASN239     -0.2716
     38  ND2        7.5250    7.8210   24.7160 N.am  239  ASN239     -0.0877
     39  N          4.3680    1.4710   26.2020 N.3   241  GLN241     -0.1245
     40  CA         3.3540    0.4690   25.8880 C.3   241  GLN241      0.1566
     41  C          3.9590   -0.9130   26.1150 C.2   241  GLN241      0.2260
     42  O          5.0870   -1.1760   25.6920 O.2   241  GLN241     -0.2867
     43  CB         2.8680    0.6160   24.4430 C.3   241  GLN241      0.0367
     44  CG         2.2060    1.9550   24.1280 C.3   241  GLN241      0.0905
     45  CD         0.7040    1.9700   24.3760 C.2   241  GLN241      0.2608
     46  OE1       -0.0130    1.0630   23.9610 O.2   241  GLN241     -0.2717
     47  NE2        0.2180    3.0160   25.0350 N.am  241  GLN241     -0.0878
     48  N         -1.0440   -4.1790   26.3010 N.3   290  TYR290     -0.1241
     49  CA        -1.6200   -5.1950   25.4360 C.3   290  TYR290      0.1605
     50  C         -1.4230   -6.5450   26.1060 C.2   290  TYR290      0.2264
     51  O         -0.4430   -6.7600   26.8260 O.2   290  TYR290     -0.2867
     52  CB        -0.9650   -5.1850   24.0570 C.3   290  TYR290      0.0534
     53  CG        -1.1900   -3.9000   23.3040 C.ar  290  TYR290     -0.0201
     54  CD1       -2.3370   -3.7110   22.5420 C.ar  290  TYR290     -0.0009
     55  CD2       -0.2630   -2.8670   23.3620 C.ar  290  TYR290     -0.0009
     56  CE1       -2.5530   -2.5310   21.8520 C.ar  290  TYR290      0.0417
     57  CE2       -0.4690   -1.6840   22.6760 C.ar  290  TYR290      0.0417
     58  CZ        -1.6160   -1.5200   21.9230 C.ar  290  TYR290      0.1957
     59  OH        -1.8260   -0.3470   21.2390 O.3   290  TYR290     -0.2866
     60  N         -7.0490   -4.7240   22.1080 N.3   312  ARG312     -0.1245
     61  CA        -5.7340   -4.8240   22.7460 C.3   312  ARG312      0.1563
     62  C         -5.3310   -6.2640   23.1060 C.2   312  ARG312      0.2260
     63  O         -4.3320   -6.4780   23.8000 O.2   312  ARG312     -0.2867
     64  CB        -5.6780   -3.9190   23.9820 C.3   312  ARG312      0.0307
     65  CG        -6.0210   -2.4670   23.6770 C.3   312  ARG312      0.0489
     66  CD        -5.7720   -1.5530   24.8660 C.3   312  ARG312      0.2205
     67  NE        -4.3460   -1.3360   25.1140 N.pl3 312  ARG312     -0.0865
     68  CZ        -3.6120   -0.3450   24.6060 C.cat 312  ARG312      0.5346
     69  NH1       -4.1450    0.5630   23.7910 N.pl3 312  ARG312      0.1354
     70  NH2       -2.3230   -0.2620   24.9170 N.pl3 312  ARG312      0.1354
     71  N         -0.8850   -2.3810   15.5300 N.3   365  VAL365     -0.1231
     72  CA        -0.0380   -1.9250   16.6320 C.3   365  VAL365      0.1692
     73  C          1.4500   -1.9980   16.2830 C.2   365  VAL365      0.2591
     74  O          2.2070   -1.0950   16.6350 O.2   365  VAL365     -0.2718
     75  CB        -0.3220   -2.7230   17.9250 C.3   365  VAL365      0.0266
     76  CG1        0.6880   -2.3910   19.0170 C.3   365  VAL365      0.0020
     77  CG2       -1.7340   -2.4390   18.4180 C.3   365  VAL365      0.0020
     78  N          1.8560   -3.0600   15.5910 N.am  366  LEU366     -0.1980
     79  CA         3.2670   -3.2770   15.2640 C.3   366  LEU366      0.1596
     80  C          3.6410   -2.9190   13.8250 C.2   366  LEU366      0.2287
     81  O          4.7450   -3.2240   13.3850 O.2   366  LEU366     -0.2864
     82  CB         3.6580   -4.7290   15.5590 C.3   366  LEU366      0.0297
     83  CG         3.5470   -5.1470   17.0250 C.3   366  LEU366      0.0022
     84  CD1        3.9060   -6.6140   17.1830 C.3   366  LEU366      0.0001
     85  CD2        4.4380   -4.2780   17.9000 C.3   366  LEU366      0.0001
@<TRIPOS>BOND
     1    81    80    2
     2    80    79    1
     3    79    82    1
     4    79    78    1
     5    71    72    1
     6    82    83    1
     7    78    73   am
     8    73    72    1
     9    73    74    2
    10    72    75    1
    11    83    84    1
    12    83    85    1
    13    11    10    1
    14    11    12    1
    15    75    77    1
    16    75    76    1
    17    10     7    1
    18    13    12    1
    19    13    14    1
    20    22    20    1
    21     9     8    2
    22     8     7    1
    23     8    15   am
    24     7     6    1
    25    20    21    1
    26    20    19    1
    27    15    16    1
    28    16    19    1
    29    16    17    1
    30    23    17   am
    31    23    24    1
    32    59    58    1
    33    30    28    1
    34    27    24    1
    35    27    28    1
    36    17    18    2
    37    56    58   ar
    38    56    54   ar
    39    58    57   ar
    40    60    61    1
    41    24    25    1
    42    28    29    1
    43    54    53   ar
    44    26    25    2
    45     4     3    2
    46    57    55   ar
    47    61    62    1
    48    61    64    1
    49    62    63    2
    50    53    55   ar
    51    53    52    1
    52     3     2    1
    53    65    64    1
    54    65    66    1
    55    69    68    1
    56    46    45    2
    57    52    49    1
    58    44    45    1
    59    44    43    1
    60    45    47   am
    61    43    40    1
    62     2     1    1
    63     2     5    1
    64    68    70    1
    65    68    67    2
    66    38    36   am
    67    66    67    1
    68    34    33    2
    69    35    36    1
    70    35    32    1
    71    49    50    1
    72    49    48    1
    73    42    41    2
    74    36    37    2
    75    40    41    1
    76    40    39    1
    77    50    51    2
    78    33    32    1
    79    32    31    1
