@<TRIPOS>MOLECULE
tmp/4lalB01.pdb
 101 97 0 0 0
SMALL
GASTEIGER

@<TRIPOS>ATOM
      1  N        -36.3610   27.6730   25.0310 N.3   228  TYR228     -0.1227
      2  CA       -35.0450   28.2700   24.8330 C.3   228  TYR228      0.1736
      3  C        -35.0290   29.2020   23.6240 C.2   228  TYR228      0.2595
      4  O        -34.6140   30.3550   23.7320 O.2   228  TYR228     -0.2718
      5  CB       -33.9660   27.1950   24.6700 C.3   228  TYR228      0.0548
      6  CG       -32.6060   27.7830   24.3740 C.ar  228  TYR228     -0.0200
      7  CD1      -31.8450   28.3670   25.3820 C.ar  228  TYR228     -0.0009
      8  CD2      -32.0910   27.7810   23.0800 C.ar  228  TYR228     -0.0009
      9  CE1      -30.6040   28.9230   25.1120 C.ar  228  TYR228      0.0417
     10  CE2      -30.8530   28.3320   22.8000 C.ar  228  TYR228      0.0417
     11  CZ       -30.1140   28.9010   23.8180 C.ar  228  TYR228      0.1957
     12  OH       -28.8870   29.4440   23.5320 O.3   228  TYR228     -0.2866
     13  N        -35.4850   28.6970   22.4800 N.am  229  MET229     -0.1965
     14  CA       -35.5200   29.4840   21.2430 C.3   229  MET229      0.1736
     15  C        -36.4040   30.7270   21.3700 C.2   229  MET229      0.2616
     16  O        -36.1190   31.7600   20.7600 O.2   229  MET229     -0.2715
     17  CB       -36.0000   28.6240   20.0680 C.3   229  MET229      0.0427
     18  CG       -35.0490   27.5010   19.6750 C.3   229  MET229      0.0599
     19  SD       -33.4580   28.0810   19.0610 S.3   229  MET229     -0.1393
     20  CE       -33.9230   28.5830   17.4060 C.3   229  MET229      0.0692
     21  N        -37.4680   30.6260   22.1660 N.am  230  ALA230     -0.1963
     22  CA       -38.3740   31.7560   22.3980 C.3   230  ALA230      0.1728
     23  C        -37.8180   32.7830   23.3890 C.2   230  ALA230      0.2616
     24  O        -38.4040   33.8500   23.5620 O.2   230  ALA230     -0.2715
     25  CB       -39.7270   31.2540   22.8740 C.3   230  ALA230      0.0334
     26  N        -36.7030   32.4570   24.0410 N.am  231  GLY231     -0.1955
     27  CA       -36.0510   33.3730   24.9750 C.3   231  GLY231      0.1869
     28  C        -36.6710   33.3850   26.3620 C.2   231  GLY231      0.2309
     29  O        -36.4810   34.3400   27.1170 O.2   231  GLY231     -0.2863
     30  N        -34.2470   33.7440   29.1500 N.3   234  ASP234     -0.1225
     31  CA       -33.7450   35.1190   29.1900 C.3   234  ASP234      0.1805
     32  C        -34.7770   36.0720   29.7950 C.2   234  ASP234      0.2597
     33  O        -34.4180   36.9590   30.5670 O.2   234  ASP234     -0.2718
     34  CB       -33.3380   35.5980   27.7900 C.3   234  ASP234      0.1424
     35  CG       -31.9960   35.0410   27.3480 C.2   234  ASP234      0.3668
     36  OD1      -31.0300   35.1100   28.1360 O.co2 234  ASP234     -0.2456
     37  OD2      -31.9050   34.5440   26.2060 O.co2 234  ASP234     -0.2456
     38  N        -36.0480   35.8910   29.4320 N.am  235  HIS235     -0.1975
     39  CA       -37.1520   36.6640   30.0190 C.3   235  HIS235      0.1656
     40  C        -37.2040   36.5000   31.5330 C.2   235  HIS235      0.2291
     41  O        -37.2720   37.4820   32.2740 O.2   235  HIS235     -0.2864
     42  CB       -38.5060   36.2110   29.4560 C.3   235  HIS235      0.0771
     43  CG       -38.9160   36.9100   28.1990 C.ar  235  HIS235      0.0820
     44  ND1      -39.3540   38.2170   28.1830 N.ar  235  HIS235     -0.2267
     45  CD2      -38.9910   36.4720   26.9200 C.ar  235  HIS235      0.1154
     46  CE1      -39.6650   38.5590   26.9450 C.ar  235  HIS235      0.1986
     47  NE2      -39.4530   37.5180   26.1590 N.ar  235  HIS235     -0.2212
     48  N        -27.9420   26.4330   15.4900 N.3   261  ILE261     -0.1245
     49  CA       -28.2140   27.8490   15.7480 C.3   261  ILE261      0.1561
     50  C        -27.1710   28.7480   15.0810 C.2   261  ILE261      0.2260
     51  O        -27.5220   29.5980   14.2630 O.2   261  ILE261     -0.2867
     52  CB       -28.2990   28.1500   17.2640 C.3   261  ILE261      0.0252
     53  CG1      -29.6140   27.6000   17.8240 C.3   261  ILE261      0.0019
     54  CG2      -28.2250   29.6500   17.5320 C.3   261  ILE261      0.0019
     55  CD1      -29.6630   27.4980   19.3330 C.3   261  ILE261      0.0001
     56  N        -31.3760   33.1440   10.9170 N.3   267  LEU267     -0.1245
     57  CA       -31.3300   33.6180   12.3040 C.3   267  LEU267      0.1561
     58  C        -30.1350   34.5370   12.5620 C.2   267  LEU267      0.2260
     59  O        -30.2730   35.5590   13.2370 O.2   267  LEU267     -0.2867
     60  CB       -31.3050   32.4440   13.2900 C.3   267  LEU267      0.0270
     61  CG       -32.5620   31.5720   13.3980 C.3   267  LEU267      0.0019
     62  CD1      -32.3530   30.4970   14.4540 C.3   267  LEU267      0.0001
     63  CD2      -33.8010   32.3930   13.7190 C.3   267  LEU267      0.0001
     64  N        -30.7890   37.3140   15.4620 N.3   272  LYS272     -0.1245
     65  CA       -31.3200   36.3910   16.4640 C.3   272  LYS272      0.1561
     66  C        -30.2210   35.6150   17.1820 C.2   272  LYS272      0.2260
     67  O        -30.5020   34.8960   18.1340 O.2   272  LYS272     -0.2867
     68  CB       -32.2890   35.3940   15.8240 C.3   272  LYS272      0.0271
     69  CG       -33.4120   36.0200   15.0130 C.3   272  LYS272      0.0035
     70  CD       -34.2650   36.9700   15.8400 C.3   272  LYS272      0.0206
     71  CE       -35.6520   37.1270   15.2340 C.3   272  LYS272      0.1093
     72  NZ       -36.2310   38.4750   15.4820 N.3   272  LYS272     -0.1314
     73  N        -26.9820   36.8470   18.7130 N.3   274  PRO274     -0.2116
     74  CA       -26.0290   37.8920   19.0870 C.3   274  PRO274      0.1372
     75  C        -24.7750   37.3450   19.7740 C.2   274  PRO274      0.2244
     76  O        -24.7700   36.2050   20.2390 O.2   274  PRO274     -0.2868
     77  CB       -26.8360   38.7690   20.0460 C.3   274  PRO274      0.0268
     78  CG       -27.8030   37.8320   20.6770 C.3   274  PRO274      0.0207
     79  CD       -28.1380   36.8050   19.6300 C.3   274  PRO274      0.0892
     80  N        -24.9320   36.0170   23.5350 N.3   277  ARG277     -0.1231
     81  CA       -26.0850   35.1460   23.7150 C.3   277  ARG277      0.1694
     82  C        -25.7500   33.9890   24.6580 C.2   277  ARG277      0.2591
     83  O        -24.6840   33.3800   24.5540 O.2   277  ARG277     -0.2718
     84  CB       -26.5590   34.6550   22.3410 C.3   277  ARG277      0.0321
     85  CG       -27.1540   33.2690   22.2840 C.3   277  ARG277      0.0489
     86  CD       -27.0340   32.6950   20.8830 C.3   277  ARG277      0.2205
     87  NE       -27.4570   31.3050   20.9020 N.pl3 277  ARG277     -0.0865
     88  CZ       -26.6570   30.2420   20.8680 C.cat 277  ARG277      0.5346
     89  NH1      -25.3340   30.3500   20.7610 N.pl3 277  ARG277      0.1354
     90  NH2      -27.2090   29.0410   20.9180 N.pl3 277  ARG277      0.1354
     91  N        -26.6620   33.7110   25.5870 N.am  278  ARG278     -0.1980
     92  CA       -26.4940   32.6180   26.5390 C.3   278  ARG278      0.1597
     93  C        -26.7860   31.2910   25.8500 C.2   278  ARG278      0.2287
     94  O        -27.9130   31.0440   25.4090 O.2   278  ARG278     -0.2864
     95  CB       -27.4110   32.8040   27.7500 C.3   278  ARG278      0.0334
     96  CG       -27.0630   34.0200   28.5920 C.3   278  ARG278      0.0492
     97  CD       -28.1000   34.3020   29.6690 C.3   278  ARG278      0.2205
     98  NE       -28.0490   33.3390   30.7730 N.pl3 278  ARG278     -0.0865
     99  CZ       -29.0760   32.6140   31.2240 C.cat 278  ARG278      0.5346
    100  NH1      -28.8850   31.7790   32.2410 N.pl3 278  ARG278      0.1354
    101  NH2      -30.2920   32.7120   30.6870 N.pl3 278  ARG278      0.1354
@<TRIPOS>BOND
     1    56    57    1
     2    57    58    1
     3    57    60    1
     4    58    59    2
     5    60    61    1
     6    61    63    1
     7    61    62    1
     8    51    50    2
     9    69    68    1
    10    69    70    1
    11    50    49    1
    12    71    72    1
    13    71    70    1
    14    64    65    1
    15    48    49    1
    16    49    52    1
    17    68    65    1
    18    65    66    1
    19    66    67    2
    20    52    54    1
    21    52    53    1
    22    20    19    1
    23    53    55    1
    24    73    74    1
    25    73    79    1
    26    19    18    1
    27    74    75    1
    28    74    77    1
    29    79    78    1
    30    18    17    1
    31    75    76    2
    32    77    78    1
    33    17    14    1
    34    16    15    2
    35    89    88    1
    36    88    87    2
    37    88    90    1
    38    86    87    1
    39    86    85    1
    40    14    15    1
    41    14    13    1
    42    15    21   am
    43    21    22    1
    44    85    84    1
    45    84    81    1
    46    22    25    1
    47    22    23    1
    48    13     3   am
    49    10     8   ar
    50    10    11   ar
    51     8     6   ar
    52    23    24    2
    53    23    26   am
    54    12    11    1
    55    80    81    1
    56     3     4    2
    57     3     2    1
    58    81    82    1
    59    11     9   ar
    60    26    27    1
    61     6     5    1
    62     6     7   ar
    63    83    82    2
    64    82    91   am
    65     5     2    1
    66     2     1    1
    67    27    28    1
    68     9     7   ar
    69    94    93    2
    70    91    92    1
    71    93    92    1
    72    47    45   ar
    73    47    46   ar
    74    37    35   ar
    75    28    29    2
    76    92    95    1
    77    45    43   ar
    78    46    44   ar
    79    35    34    1
    80    35    36   ar
    81    95    96    1
    82    34    31    1
    83    44    43   ar
    84    43    42    1
    85    96    97    1
    86    30    31    1
    87    31    32    1
    88    38    32   am
    89    38    39    1
    90    42    39    1
    91    97    98    1
    92    32    33    2
    93    39    40    1
    94   101    99    1
    95    98    99    2
    96    99   100    1
    97    40    41    2
