@<TRIPOS>MOLECULE
tmp/4lapA00.pdb
 209 194 0 0 0
SMALL
GASTEIGER

@<TRIPOS>ATOM
      1  N         -3.8100   -8.6790    3.3440 N.3    10  ILE10      -0.1231
      2  CA        -4.9070   -9.0810    4.2120 C.3    10  ILE10       0.1692
      3  C         -6.1860   -9.3080    3.4480 C.2    10  ILE10       0.2592
      4  O         -7.0960   -9.9200    4.0100 O.2    10  ILE10      -0.2718
      5  CB        -5.1530   -8.0680    5.3400 C.3    10  ILE10       0.0266
      6  CG1       -5.6260   -6.7010    4.8190 C.3    10  ILE10       0.0019
      7  CG2       -3.9160   -7.9790    6.2430 C.3    10  ILE10       0.0020
      8  CD1       -6.2310   -5.8180    5.9040 C.3    10  ILE10       0.0001
      9  N         -6.3010   -8.7980    2.2190 N.am   11  ASP11      -0.1974
     10  CA        -7.5440   -8.8880    1.4720 C.3    11  ASP11       0.1709
     11  C         -7.2310   -8.7140    0.0030 C.2    11  ASP11       0.2293
     12  O         -6.0680   -8.5440   -0.3700 O.2    11  ASP11      -0.2864
     13  CB        -8.5780   -7.8820    1.9910 C.3    11  ASP11       0.1436
     14  CG        -8.1700   -6.4240    1.8530 C.2    11  ASP11       0.3671
     15  OD1       -7.3150   -6.0880    1.0010 O.co2  11  ASP11      -0.2456
     16  OD2       -8.7370   -5.6030    2.6410 O.co2  11  ASP11      -0.2456
     17  N         -5.0970   -4.0070    1.0810 N.3    15  ASP15      -0.1225
     18  CA        -5.2900   -2.8970    1.9880 C.3    15  ASP15       0.1805
     19  C         -4.1380   -2.7630    3.0050 C.2    15  ASP15       0.2597
     20  O         -3.8430   -1.6770    3.4940 O.2    15  ASP15      -0.2718
     21  CB        -6.6190   -3.0200    2.7000 C.3    15  ASP15       0.1424
     22  CG        -7.7670   -2.5450    1.8380 C.2    15  ASP15       0.3668
     23  OD1       -7.6350   -1.4850    1.1930 O.co2  15  ASP15      -0.2456
     24  OD2       -8.8210   -3.2110    1.8200 O.co2  15  ASP15      -0.2456
     25  N         -3.5340   -3.8780    3.3630 N.am   16  ALA16      -0.1979
     26  CA        -2.4030   -3.9210    4.2780 C.3    16  ALA16       0.1597
     27  C         -1.7730   -5.2820    4.1000 C.2    16  ALA16       0.2287
     28  O         -2.3390   -6.1540    3.4420 O.2    16  ALA16      -0.2864
     29  CB        -2.8540   -3.7090    5.7280 C.3    16  ALA16       0.0319
     30  N          1.4030   -6.0000   11.2940 N.3    33  ASP33      -0.1239
     31  CA         1.5350   -5.0730   10.1720 C.3    33  ASP33       0.1674
     32  C          2.8480   -4.3190   10.3570 C.2    33  ASP33       0.2266
     33  O          2.9890   -3.4890   11.2560 O.2    33  ASP33      -0.2867
     34  CB         0.3330   -4.1250   10.2150 C.3    33  ASP33       0.1410
     35  CG         0.2420   -3.1680    9.0820 C.2    33  ASP33       0.3668
     36  OD1        1.1620   -3.0300    8.2790 O.co2  33  ASP33      -0.2456
     37  OD2       -0.8550   -2.5290    9.0170 O.co2  33  ASP33      -0.2456
     38  N          5.3640   -1.5700    9.8010 N.3    35  ASP35      -0.1239
     39  CA         5.0430   -0.1810    9.5170 C.3    35  ASP35       0.1674
     40  C          6.2770    0.6870    9.5830 C.2    35  ASP35       0.2266
     41  O          6.7300    1.0740   10.6800 O.2    35  ASP35      -0.2867
     42  CB         4.0080    0.3070   10.5350 C.3    35  ASP35       0.1410
     43  CG         3.6170    1.7400   10.2950 C.2    35  ASP35       0.3668
     44  OD1        3.9110    2.2730    9.2120 O.co2  35  ASP35      -0.2456
     45  OD2        2.9640    2.3560   11.1930 O.co2  35  ASP35      -0.2456
     46  N          6.4270    3.6830    8.9760 N.3    37  GLY37      -0.1225
     47  CA         6.0580    5.0030    9.4300 C.3    37  GLY37       0.1811
     48  C          5.7420    5.1200   10.9190 C.2    37  GLY37       0.2280
     49  O          5.2560    6.1760   11.3290 O.2    37  GLY37      -0.2866
     50  N         -2.3820    7.3030   15.2900 N.3    79  TYR79      -0.1227
     51  CA        -1.8820    7.2660   13.9260 C.3    79  TYR79       0.1736
     52  C         -2.4350    8.4210   13.1060 C.2    79  TYR79       0.2596
     53  O         -3.4650    9.0090   13.4720 O.2    79  TYR79      -0.2718
     54  CB        -2.1850    5.8930   13.3010 C.3    79  TYR79       0.0548
     55  CG        -1.4210    4.7770   14.0240 C.ar   79  TYR79      -0.0200
     56  CD1       -0.0640    4.5770   13.7770 C.ar   79  TYR79      -0.0009
     57  CD2       -2.0340    3.9480   14.9560 C.ar   79  TYR79      -0.0009
     58  CE1        0.6590    3.6020   14.4370 C.ar   79  TYR79       0.0417
     59  CE2       -1.3210    2.9570   15.6270 C.ar   79  TYR79       0.0417
     60  CZ         0.0310    2.8000   15.3660 C.ar   79  TYR79       0.1957
     61  OH         0.7250    1.8250   16.0520 O.3    79  TYR79      -0.2866
     62  N         -1.7450    8.7530   12.0150 N.am   80  GLY80      -0.1942
     63  CA        -2.1340    9.8600   11.1580 C.3    80  GLY80       0.2014
     64  C         -3.5660    9.7820   10.6960 C.2    80  GLY80       0.2638
     65  O         -4.1810   10.8150   10.4290 O.2    80  GLY80      -0.2714
     66  N         -4.0970    8.5680   10.5960 N.am   81  ASP81      -0.1971
     67  CA        -5.4950    8.3600   10.1910 C.3    81  ASP81       0.1709
     68  C         -6.5680    8.3670   11.2860 C.2    81  ASP81       0.2293
     69  O         -7.7370    8.0730   11.0300 O.2    81  ASP81      -0.2864
     70  CB        -5.6520    7.0840    9.3900 C.3    81  ASP81       0.1436
     71  CG        -5.4970    5.8090   10.2210 C.2    81  ASP81       0.3671
     72  OD1       -5.4550    5.8040   11.4770 O.co2  81  ASP81      -0.2456
     73  OD2       -5.4140    4.7620    9.5460 O.co2  81  ASP81      -0.2456
     74  N         -6.7660    6.4510   14.0210 N.3    83  SER83      -0.1217
     75  CA        -6.8580    5.2760   14.8870 C.3    83  SER83       0.1889
     76  C         -5.8520    5.3820   16.0400 C.2    83  SER83       0.2288
     77  O         -4.9500    6.2070   16.0030 O.2    83  SER83      -0.2866
     78  CB        -6.6210    3.9910   14.1090 C.3    83  SER83       0.2089
     79  OG        -5.3330    3.9170   13.5610 O.3    83  SER83      -0.2183
     80  N        -11.3030    0.8460   14.5660 N.3   115  SER115     -0.1202
     81  CA       -10.7690    0.3410   13.3020 C.3   115  SER115      0.2020
     82  C         -9.8820   -0.8910   13.5090 C.2   115  SER115      0.2618
     83  O         -9.8500   -1.7830   12.6680 O.2   115  SER115     -0.2717
     84  CB        -9.9860    1.4250   12.5340 C.3   115  SER115      0.2103
     85  OG        -9.0130    2.0440   13.3600 O.3   115  SER115     -0.2182
     86  N         -9.1550   -0.9410   14.6200 N.am  116  PHE116     -0.1975
     87  CA        -8.3430   -2.1190   14.9180 C.3   116  PHE116      0.1639
     88  C         -9.2410   -3.3010   15.2750 C.2   116  PHE116      0.2290
     89  O         -9.0340   -4.4060   14.7670 O.2   116  PHE116     -0.2864
     90  CB        -7.3220   -1.8010   16.0210 C.3   116  PHE116      0.0560
     91  CG        -6.2070   -0.9220   15.5540 C.ar  116  PHE116     -0.0200
     92  CD1       -5.3170   -1.4020   14.6010 C.ar  116  PHE116     -0.0042
     93  CD2       -6.0290    0.3790   16.0500 C.ar  116  PHE116     -0.0042
     94  CE1       -4.2810   -0.6170   14.1450 C.ar  116  PHE116     -0.0003
     95  CE2       -4.9960    1.1800   15.5970 C.ar  116  PHE116     -0.0003
     96  CZ        -4.1000    0.6920   14.6440 C.ar  116  PHE116     -0.0000
     97  N        -10.7460   -5.0390   12.2840 N.3   119  ASP119     -0.1239
     98  CA        -9.8900   -5.7600   11.3560 C.3   119  ASP119      0.1674
     99  C         -9.3270   -7.0070   12.0380 C.2   119  ASP119      0.2266
    100  O         -8.3130   -6.9440   12.7440 O.2   119  ASP119     -0.2867
    101  CB        -8.7610   -4.8810   10.8850 C.3   119  ASP119      0.1410
    102  CG        -7.9200   -5.5770    9.9220 C.2   119  ASP119      0.3668
    103  OD1       -8.2750   -6.7130    9.4740 O.co2 119  ASP119     -0.2456
    104  OD2       -6.8330   -5.0530    9.6500 O.co2 119  ASP119     -0.2456
    105  N         -5.3190   -8.3560   11.5670 N.3   122  ILE122     -0.1245
    106  CA        -4.1050   -7.6930   12.0360 C.3   122  ILE122      0.1561
    107  C         -4.0560   -7.8020   13.5630 C.2   122  ILE122      0.2260
    108  O         -4.9320   -7.2920   14.2700 O.2   122  ILE122     -0.2867
    109  CB        -4.0560   -6.2330   11.5360 C.3   122  ILE122      0.0252
    110  CG1       -3.8230   -6.2140   10.0010 C.3   122  ILE122      0.0019
    111  CG2       -2.9660   -5.4300   12.2670 C.3   122  ILE122      0.0019
    112  CD1       -3.8680   -4.8540    9.3690 C.3   122  ILE122      0.0001
    113  N          1.0530   -4.1410   15.3490 N.3   125  LEU125     -0.1245
    114  CA         1.9600   -3.4440   14.4550 C.3   125  LEU125      0.1561
    115  C          3.3930   -3.7190   14.8920 C.2   125  LEU125      0.2260
    116  O          3.6980   -3.8600   16.0770 O.2   125  LEU125     -0.2867
    117  CB         1.7240   -1.9270   14.3980 C.3   125  LEU125      0.0270
    118  CG         0.7620   -1.4530   13.2680 C.3   125  LEU125      0.0019
    119  CD1       -0.6400   -1.9910   13.5220 C.3   125  LEU125      0.0001
    120  CD2        0.7650    0.0570   13.1370 C.3   125  LEU125      0.0001
    121  N         11.0880    9.7180   10.4490 N.3   194  PHE194     -0.1241
    122  CA        10.6140    8.8830    9.3620 C.3   194  PHE194      0.1605
    123  C         11.7500    8.6100    8.3830 C.2   194  PHE194      0.2264
    124  O         12.8040    9.2620    8.3840 O.2   194  PHE194     -0.2867
    125  CB         9.5070    9.6050    8.5870 C.3   194  PHE194      0.0534
    126  CG         8.2950    9.9570    9.3810 C.ar  194  PHE194     -0.0203
    127  CD1        7.5330    8.9720    9.9930 C.ar  194  PHE194     -0.0042
    128  CD2        7.8880   11.2960    9.4700 C.ar  194  PHE194     -0.0042
    129  CE1        6.3800    9.3000   10.7190 C.ar  194  PHE194     -0.0003
    130  CE2        6.7100   11.6140   10.1790 C.ar  194  PHE194     -0.0003
    131  CZ         5.9890   10.6260   10.8240 C.ar  194  PHE194     -0.0000
    132  N          7.5430   10.4420    2.7880 N.3   217  ILE217     -0.1245
    133  CA         8.0430    9.3360    3.5960 C.3   217  ILE217      0.1561
    134  C          7.7570    8.0050    2.9340 C.2   217  ILE217      0.2260
    135  O          6.6990    7.8190    2.3260 O.2   217  ILE217     -0.2867
    136  CB         7.5210    9.3920    5.0210 C.3   217  ILE217      0.0252
    137  CG1        5.9950    9.2050    5.1080 C.3   217  ILE217      0.0019
    138  CG2        7.9640   10.7230    5.6730 C.3   217  ILE217      0.0019
    139  CD1        5.4990    8.9500    6.5290 C.3   217  ILE217      0.0001
    140  N          6.4660    4.6330    3.6020 N.3   219  ASP219     -0.1239
    141  CA         5.6120    4.1720    4.6930 C.3   219  ASP219      0.1674
    142  C          4.8480    2.8950    4.3400 C.2   219  ASP219      0.2266
    143  O          3.7510    2.9400    3.7330 O.2   219  ASP219     -0.2867
    144  CB         4.6770    5.2940    5.0860 C.3   219  ASP219      0.1410
    145  CG         3.9070    4.9780    6.2790 C.2   219  ASP219      0.3668
    146  OD1        3.1040    5.8260    6.6820 O.co2 219  ASP219     -0.2456
    147  OD2        4.0400    3.8620    6.8430 O.co2 219  ASP219     -0.2456
    148  N          3.1460    1.0550    6.2580 N.3   221  GLY221     -0.1210
    149  CA         1.9060    0.9450    7.0110 C.3   221  GLY221      0.1956
    150  C          0.7830    1.8200    6.4990 C.2   221  GLY221      0.2613
    151  O         -0.2760    1.8440    7.1260 O.2   221  GLY221     -0.2717
    152  N          0.9950    2.5470    5.3960 N.am  222  THR222     -0.1938
    153  CA        -0.0560    3.3490    4.7630 C.3   222  THR222      0.2028
    154  C         -0.3740    2.6970    3.4220 C.2   222  THR222      0.2643
    155  O          0.5180    2.3930    2.6490 O.2   222  THR222     -0.2714
    156  CB         0.4070    4.8190    4.5880 C.3   222  THR222      0.1808
    157  OG1        0.5040    5.3980    5.8970 O.3   222  THR222     -0.2208
    158  CG2       -0.5800    5.6460    3.7870 C.3   222  THR222      0.0379
    159  N         -1.6740    2.5200    3.1320 N.am  223  THR223     -0.1936
    160  CA        -2.0730    1.7990    1.9430 C.3   223  THR223      0.2028
    161  C         -1.7720    2.5660    0.6590 C.2   223  THR223      0.2642
    162  O         -1.2870    1.9820   -0.3210 O.2   223  THR223     -0.2714
    163  CB        -3.5890    1.5070    1.9590 C.3   223  THR223      0.1808
    164  OG1       -3.9750    0.9690    3.2220 O.3   223  THR223     -0.2208
    165  CG2       -3.9850    0.5260    0.8460 C.3   223  THR223      0.0379
    166  N         -2.1370    3.8370    0.6320 N.am  224  LEU224     -0.1977
    167  CA        -2.1970    4.6320   -0.6030 C.3   224  LEU224      0.1596
    168  C         -0.9820    5.5300   -0.7970 C.2   224  LEU224      0.2287
    169  O         -0.1170    5.6560    0.0680 O.2   224  LEU224     -0.2864
    170  CB        -3.5090    5.4240   -0.6470 C.3   224  LEU224      0.0297
    171  CG        -4.7680    4.5600   -0.4660 C.3   224  LEU224      0.0022
    172  CD1       -5.9910    5.4310   -0.6720 C.3   224  LEU224      0.0001
    173  CD2       -4.8130    3.3620   -1.4220 C.3   224  LEU224      0.0001
    174  N         -0.0170    9.3400   -1.2510 N.3   226  TYR226     -0.1241
    175  CA        -0.5350   10.6730   -0.9540 C.3   226  TYR226      0.1605
    176  C          0.4800   11.6990   -1.4130 C.2   226  TYR226      0.2264
    177  O          1.6220   11.7310   -0.9080 O.2   226  TYR226     -0.2867
    178  CB        -0.8270   10.8550    0.5330 C.3   226  TYR226      0.0534
    179  CG        -1.9210    9.9650    1.0600 C.ar  226  TYR226     -0.0201
    180  CD1       -1.6570    8.6800    1.5440 C.ar  226  TYR226     -0.0009
    181  CD2       -3.2360   10.3880    1.0420 C.ar  226  TYR226     -0.0009
    182  CE1       -2.6690    7.8630    1.9940 C.ar  226  TYR226      0.0417
    183  CE2       -4.2700    9.5800    1.4800 C.ar  226  TYR226      0.0417
    184  CZ        -3.9830    8.3010    1.9710 C.ar  226  TYR226      0.1957
    185  OH        -4.9720    7.4700    2.4020 O.3   226  TYR226     -0.2866
    186  N         -2.9460   16.4320    5.2320 N.3   300  ILE300     -0.1245
    187  CA        -2.0630   15.5750    6.0580 C.3   300  ILE300      0.1561
    188  C         -0.8350   16.2670    6.5590 C.2   300  ILE300      0.2260
    189  O         -0.3650   15.9760    7.6440 O.2   300  ILE300     -0.2867
    190  CB        -1.4530   14.3830    5.2420 C.3   300  ILE300      0.0252
    191  CG1       -2.5200   13.5320    4.5970 C.3   300  ILE300      0.0019
    192  CG2       -0.5530   13.4850    6.1110 C.3   300  ILE300      0.0019
    193  CD1       -1.9790   12.2790    3.9830 C.3   300  ILE300      0.0001
    194  N          2.1020   16.0030    5.1100 N.3   302  ILE302     -0.1245
    195  CA         3.2750   15.2810    4.6160 C.3   302  ILE302      0.1561
    196  C          2.8500   14.4080    3.4280 C.2   302  ILE302      0.2260
    197  O          1.7190   13.9120    3.3820 O.2   302  ILE302     -0.2867
    198  CB         3.9220   14.4430    5.7620 C.3   302  ILE302      0.0252
    199  CG1        5.3550   14.0240    5.4320 C.3   302  ILE302      0.0019
    200  CG2        3.0600   13.2690    6.1540 C.3   302  ILE302      0.0019
    201  CD1        6.2300   13.7380    6.6610 C.3   302  ILE302      0.0001
    202  N          3.1560   10.9450    1.3710 N.3   304  ILE304     -0.1245
    203  CA         3.3550    9.5680    1.8420 C.3   304  ILE304      0.1561
    204  C          3.4600    8.6160    0.6610 C.2   304  ILE304      0.2260
    205  O          2.4820    8.4150   -0.0650 O.2   304  ILE304     -0.2867
    206  CB         2.2770    9.1010    2.8090 C.3   304  ILE304      0.0252
    207  CG1        2.1140   10.0620    3.9770 C.3   304  ILE304      0.0019
    208  CG2        2.6060    7.6760    3.2850 C.3   304  ILE304      0.0019
    209  CD1        0.9240    9.7140    4.8850 C.3   304  ILE304      0.0001
@<TRIPOS>BOND
     1   173   171    1
     2   176   175    1
     3   176   177    2
     4   174   175    1
     5   175   178    1
     6   168   167    1
     7   168   169    2
     8   172   171    1
     9   170   167    1
    10   170   171    1
    11   167   166    1
    12    12    11    2
    13   162   161    2
    14   205   204    2
    15    11    10    1
    16   178   179    1
    17   166   161   am
    18   161   160    1
    19   204   203    1
    20   165   163    1
    21    15    14   ar
    22   181   179   ar
    23   181   183   ar
    24   179   180   ar
    25    17    18    1
    26    23    22   ar
    27   202   203    1
    28    10    13    1
    29    10     9    1
    30   183   184   ar
    31   180   182   ar
    32    24    22   ar
    33    22    21    1
    34   203   206    1
    35    14    13    1
    36    14    16   ar
    37   160   163    1
    38   160   159    1
    39   163   164    1
    40   184   182   ar
    41   184   185    1
    42    18    21    1
    43    18    19    1
    44     9     3   am
    45   135   134    2
    46   155   154    2
    47   132   133    1
    48   206   208    1
    49   206   207    1
    50   134   133    1
    51    19    25   am
    52    19    20    2
    53   159   154   am
    54     1     2    1
    55    25    26    1
    56   197   196    2
    57   154   153    1
    58   196   195    1
    59    28    27    2
    60     3     4    2
    61     3     2    1
    62   133   136    1
    63   140   141    1
    64   143   142    2
    65   158   156    1
    66   207   209    1
    67   193   191    1
    68    27    26    1
    69     2     5    1
    70    26    29    1
    71   142   141    1
    72   156   153    1
    73   156   157    1
    74   191   190    1
    75   195   194    1
    76   195   198    1
    77   141   144    1
    78   153   152    1
    79     6     5    1
    80     6     8    1
    81   136   137    1
    82   136   138    1
    83   144   145    1
    84   137   139    1
    85   186   187    1
    86   190   187    1
    87   190   192    1
    88     5     7    1
    89   152   150   am
    90   199   198    1
    91   199   201    1
    92   198   200    1
    93   187   188    1
    94   148   149    1
    95   145   146   ar
    96   145   147   ar
    97   150   149    1
    98   150   151    2
    99   188   189    2
   100    36    35   ar
   101   123   124    2
   102   123   122    1
   103   125   122    1
   104   125   126    1
   105    46    47    1
   106    37    35   ar
   107    35    34    1
   108    44    43   ar
   109   122   121    1
   110   112   110    1
   111   126   128   ar
   112   126   127   ar
   113    70    67    1
   114    70    71    1
   115    47    48    1
   116   128   130   ar
   117   103   102   ar
   118    39    40    1
   119    39    38    1
   120    39    42    1
   121    73    71   ar
   122    40    41    2
   123   104   102   ar
   124   102   101    1
   125   127   129   ar
   126   110   109    1
   127    31    34    1
   128    31    32    1
   129    31    30    1
   130   130   131   ar
   131    67    66    1
   132    67    68    1
   133    71    72   ar
   134    43    42    1
   135    43    45   ar
   136    32    33    2
   137    65    64    2
   138    66    64   am
   139    64    63    1
   140   129   131   ar
   141   101    98    1
   142    48    49    2
   143    69    68    2
   144    63    62    1
   145    98    99    1
   146    98    97    1
   147   109   106    1
   148   109   111    1
   149   105   106    1
   150    62    52   am
   151   106   107    1
   152    99   100    2
   153    84    81    1
   154    84    85    1
   155    83    82    2
   156    52    53    2
   157    52    51    1
   158   120   118    1
   159   118   119    1
   160   118   117    1
   161    54    51    1
   162    54    55    1
   163    81    82    1
   164    81    80    1
   165    82    86   am
   166    79    78    1
   167   107   108    2
   168    56    55   ar
   169    56    58   ar
   170    51    50    1
   171    74    75    1
   172    55    57   ar
   173    78    75    1
   174    94    92   ar
   175    94    96   ar
   176   117   114    1
   177    58    60   ar
   178   114   115    1
   179   114   113    1
   180    92    91   ar
   181    86    87    1
   182    96    95   ar
   183    89    88    2
   184    75    76    1
   185   115   116    2
   186    87    88    1
   187    87    90    1
   188    57    59   ar
   189    60    59   ar
   190    60    61    1
   191    91    90    1
   192    91    93   ar
   193    95    93   ar
   194    77    76    2
