@<TRIPOS>MOLECULE
tmp/4larA00.pdb
 96 92 0 0 0
SMALL
GASTEIGER

@<TRIPOS>ATOM
      1  N         -4.3280   -7.1790   23.6790 N.3    33  TYR33      -0.1241
      2  CA        -3.5360   -8.1100   22.8380 C.3    33  TYR33       0.1605
      3  C         -2.0950   -7.7120   22.8150 C.2    33  TYR33       0.2264
      4  O         -1.7820   -6.5430   22.5630 O.2    33  TYR33      -0.2867
      5  CB        -3.9790   -8.0910   21.3590 C.3    33  TYR33       0.0534
      6  CG        -5.4490   -8.3110   21.1370 C.ar   33  TYR33      -0.0201
      7  CD1       -6.3740   -7.3340   21.4970 C.ar   33  TYR33      -0.0009
      8  CD2       -5.9120   -9.4880   20.5910 C.ar   33  TYR33      -0.0009
      9  CE1       -7.7140   -7.5200   21.3100 C.ar   33  TYR33       0.0417
     10  CE2       -7.2740   -9.6930   20.3850 C.ar   33  TYR33       0.0417
     11  CZ        -8.1690   -8.6990   20.7480 C.ar   33  TYR33       0.1957
     12  OH        -9.5210   -8.8740   20.5480 O.3    33  TYR33      -0.2866
     13  N          1.1580   -8.1280   20.6590 N.3    35  SER35      -0.1217
     14  CA         1.4650   -8.5400   19.2920 C.3    35  SER35       0.1889
     15  C          2.9650   -8.5700   19.0550 C.2    35  SER35       0.2288
     16  O          3.6980   -7.7920   19.6350 O.2    35  SER35      -0.2866
     17  CB         0.7220   -7.6840   18.2560 C.3    35  SER35       0.2089
     18  OG        -0.7100   -7.7850   18.4150 O.3    35  SER35      -0.2183
     19  N          5.7110   -7.9880   16.0090 N.3    37  ILE37      -0.1245
     20  CA         5.8420   -7.3440   14.7350 C.3    37  ILE37       0.1561
     21  C          7.3430   -7.3130   14.4940 C.2    37  ILE37       0.2260
     22  O          8.1290   -7.1370   15.4550 O.2    37  ILE37      -0.2867
     23  CB         5.2490   -5.9190   14.8090 C.3    37  ILE37       0.0252
     24  CG1        3.7850   -5.9400   15.2870 C.3    37  ILE37       0.0019
     25  CG2        5.3970   -5.1230   13.4640 C.3    37  ILE37       0.0019
     26  CD1        3.4560   -4.6890   16.1400 C.3    37  ILE37       0.0001
     27  N          3.5330   -8.0450   10.3270 N.3    47  TYR47      -0.1241
     28  CA         2.6760   -8.4510   11.4050 C.3    47  TYR47       0.1605
     29  C          2.6660   -9.9700   11.5520 C.2    47  TYR47       0.2264
     30  O          2.1260  -10.6560   10.6850 O.2    47  TYR47      -0.2867
     31  CB         1.2490   -7.9330   11.2360 C.3    47  TYR47       0.0534
     32  CG         0.4530   -8.1250   12.5510 C.ar   47  TYR47      -0.0201
     33  CD1        0.4960   -7.1560   13.5960 C.ar   47  TYR47      -0.0009
     34  CD2       -0.2760   -9.3140   12.7920 C.ar   47  TYR47      -0.0009
     35  CE1       -0.1870   -7.3550   14.7860 C.ar   47  TYR47       0.0417
     36  CE2       -0.9980   -9.5250   14.0140 C.ar   47  TYR47       0.0417
     37  CZ        -0.9440   -8.5400   14.9920 C.ar   47  TYR47       0.1957
     38  OH        -1.6290   -8.7550   16.1780 O.3    47  TYR47      -0.2866
     39  N         -0.4560  -12.5290   17.5820 N.3    50  TYR50      -0.1241
     40  CA        -0.7450  -11.9180   18.8760 C.3    50  TYR50       0.1605
     41  C         -1.1610  -13.0060   19.8100 C.2    50  TYR50       0.2264
     42  O         -1.5350  -14.0580   19.3430 O.2    50  TYR50      -0.2867
     43  CB        -1.8190  -10.8220   18.7340 C.3    50  TYR50       0.0534
     44  CG        -3.2760  -11.2150   18.5090 C.ar   50  TYR50      -0.0201
     45  CD1       -3.9580  -12.0440   19.4130 C.ar   50  TYR50      -0.0009
     46  CD2       -3.9940  -10.7060   17.4220 C.ar   50  TYR50      -0.0009
     47  CE1       -5.2990  -12.3840   19.2270 C.ar   50  TYR50       0.0417
     48  CE2       -5.3520  -11.0360   17.2290 C.ar   50  TYR50       0.0417
     49  CZ        -5.9860  -11.8720   18.1300 C.ar   50  TYR50       0.1957
     50  OH        -7.3150  -12.2330   17.9610 O.3    50  TYR50      -0.2866
     51  N          4.2890   -5.2730   21.2320 N.3    96  SER96      -0.1217
     52  CA         3.4580   -4.1090   21.3050 C.3    96  SER96       0.1889
     53  C          2.1320   -4.5010   21.9180 C.2    96  SER96       0.2288
     54  O          1.5880   -5.5710   21.5870 O.2    96  SER96      -0.2866
     55  CB         3.2530   -3.5160   19.9170 C.3    96  SER96       0.2089
     56  OG         1.9100   -3.7050   19.5380 O.3    96  SER96      -0.2183
     57  N         -1.9540   -3.3660   22.9360 N.3    98  PHE98      -0.1241
     58  CA        -3.0560   -2.5710   22.3770 C.3    98  PHE98       0.1605
     59  C         -4.3590   -3.0300   22.9430 C.2    98  PHE98       0.2264
     60  O         -4.6270   -4.2230   23.0490 O.2    98  PHE98      -0.2867
     61  CB        -3.1100   -2.6840   20.8330 C.3    98  PHE98       0.0534
     62  CG        -4.3340   -2.0500   20.1880 C.ar   98  PHE98      -0.0203
     63  CD1       -4.3030   -0.7210   19.7630 C.ar   98  PHE98      -0.0042
     64  CD2       -5.4990   -2.8070   19.9530 C.ar   98  PHE98      -0.0042
     65  CE1       -5.4210   -0.1220   19.1450 C.ar   98  PHE98      -0.0003
     66  CE2       -6.6260   -2.2260   19.3310 C.ar   98  PHE98      -0.0003
     67  CZ        -6.5800   -0.8620   18.9260 C.ar   98  PHE98      -0.0000
     68  N         -8.1800   -3.1490   22.5360 N.3   100  SER100     -0.1217
     69  CA        -9.2900   -3.0930   21.5520 C.3   100  SER100      0.1889
     70  C        -10.3850   -2.0970   21.9240 C.2   100  SER100      0.2288
     71  O        -11.0270   -1.5110   21.0440 O.2   100  SER100     -0.2866
     72  CB        -9.8770   -4.4980   21.3240 C.3   100  SER100      0.2089
     73  OG        -9.6520   -5.3140   22.4870 O.3   100  SER100     -0.2183
     74  N         -1.2510    2.9720   21.4490 N.3   106  GLU106     -0.1245
     75  CA        -0.5220    1.7400   21.2320 C.3   106  GLU106      0.1567
     76  C          0.8450    1.8340   21.8860 C.2   106  GLU106      0.2260
     77  O          1.4350    2.8890   21.9330 O.2   106  GLU106     -0.2867
     78  CB        -0.4010    1.4350   19.7420 C.3   106  GLU106      0.0388
     79  CG        -0.5960   -0.0450   19.4370 C.3   106  GLU106      0.1160
     80  CD        -0.2140   -0.4080   18.0200 C.2   106  GLU106      0.3649
     81  OE1        0.5040    0.3620   17.3770 O.co2 106  GLU106     -0.2457
     82  OE2       -0.6260   -1.4760   17.5280 O.co2 106  GLU106     -0.2457
     83  N          4.7800    0.2260   22.1970 N.3   108  TRP108     -0.1241
     84  CA         5.7380   -0.5800   21.4620 C.3   108  TRP108      0.1605
     85  C          6.9680   -0.7510   22.3040 C.2   108  TRP108      0.2264
     86  O          7.2980    0.1000   23.1540 O.2   108  TRP108     -0.2867
     87  CB         6.1310    0.0950   20.1300 C.3   108  TRP108      0.0550
     88  CG         5.0890    0.0040   19.0720 C.ar  108  TRP108      0.0003
     89  CD1        3.8080    0.5010   19.1210 C.ar  108  TRP108      0.0946
     90  CD2        5.2260   -0.6310   17.8060 C.ar  108  TRP108      0.0152
     91  NE1        3.1370    0.2060   17.9640 N.ar  108  TRP108     -0.2442
     92  CE2        3.9820   -0.4980   17.1370 C.ar  108  TRP108      0.0810
     93  CE3        6.2730   -1.3250   17.1740 C.ar  108  TRP108      0.0012
     94  CZ2        3.7670   -1.0060   15.8280 C.ar  108  TRP108      0.0191
     95  CZ3        6.0660   -1.8320   15.8710 C.ar  108  TRP108      0.0001
     96  CH2        4.8170   -1.6630   15.2130 C.ar  108  TRP108      0.0015
@<TRIPOS>BOND
     1    27    28    1
     2    30    29    2
     3    31    28    1
     4    31    32    1
     5    28    29    1
     6    32    34   ar
     7    32    33   ar
     8    34    36   ar
     9    25    23    1
    10    33    35   ar
    11    36    37   ar
    12    21    20    1
    13    21    22    2
    14    20    23    1
    15    20    19    1
    16    35    37   ar
    17    23    24    1
    18    37    38    1
    19    96    94   ar
    20    96    95   ar
    21    24    26    1
    22    94    92   ar
    23    95    93   ar
    24    92    90   ar
    25    92    91   ar
    26    93    90   ar
    27    48    46   ar
    28    48    49   ar
    29    81    80   ar
    30    46    44   ar
    31    82    80   ar
    32    39    40    1
    33    90    88   ar
    34    50    49    1
    35    91    89   ar
    36    80    79    1
    37    49    47   ar
    38    17    18    1
    39    17    14    1
    40    44    43    1
    41    44    45   ar
    42    43    40    1
    43    40    41    1
    44    67    65   ar
    45    67    66   ar
    46    15    14    1
    47    15    16    2
    48    88    89   ar
    49    88    87    1
    50    65    63   ar
    51    47    45   ar
    52    14    13    1
    53    66    64   ar
    54    42    41    2
    55    79    78    1
    56    56    55    1
    57    78    75    1
    58    63    62   ar
    59    55    52    1
    60    64    62   ar
    61    87    84    1
    62    62    61    1
    63    10     8   ar
    64    10    11   ar
    65    12    11    1
    66     8     6   ar
    67    11     9   ar
    68    61    58    1
    69    71    70    2
    70     6     5    1
    71     6     7   ar
    72    51    52    1
    73    75    74    1
    74    75    76    1
    75    52    53    1
    76     9     7   ar
    77    72    69    1
    78    72    73    1
    79     5     2    1
    80    84    83    1
    81    84    85    1
    82    69    70    1
    83    69    68    1
    84    54    53    2
    85    76    77    2
    86    85    86    2
    87    58    57    1
    88    58    59    1
    89     4     3    2
    90     3     2    1
    91     2     1    1
    92    59    60    2
