@<TRIPOS>MOLECULE
tmp/4laxA00.pdb
 151 147 0 0 0
SMALL
GASTEIGER

@<TRIPOS>ATOM
      1  N         33.3540   15.4180   45.8550 N.3    36  TYR36      -0.1241
      2  CA        34.8080   15.3110   45.7870 C.3    36  TYR36       0.1605
      3  C         35.2520   14.4380   44.6180 C.2    36  TYR36       0.2264
      4  O         34.4840   13.6060   44.1170 O.2    36  TYR36      -0.2867
      5  CB        35.3760   14.7340   47.0880 C.3    36  TYR36       0.0534
      6  CG        35.0870   13.2580   47.2640 C.ar   36  TYR36      -0.0201
      7  CD1       35.9400   12.2790   46.7240 C.ar   36  TYR36      -0.0009
      8  CD2       33.9630   12.8380   47.9680 C.ar   36  TYR36      -0.0009
      9  CE1       35.6610   10.9090   46.8660 C.ar   36  TYR36       0.0417
     10  CE2       33.6730   11.4780   48.1230 C.ar   36  TYR36       0.0417
     11  CZ        34.5250   10.5190   47.5780 C.ar   36  TYR36       0.1957
     12  OH        34.2200    9.1860   47.7550 O.3    36  TYR36      -0.2866
     13  N         41.1650    7.8350   41.5510 N.3    46  PHE46      -0.1227
     14  CA        40.7330    6.6220   42.2560 C.3    46  PHE46       0.1736
     15  C         39.2590    6.6030   42.6670 C.2    46  PHE46       0.2595
     16  O         38.6950    5.5260   42.8680 O.2    46  PHE46      -0.2718
     17  CB        41.6640    6.2600   43.4380 C.3    46  PHE46       0.0547
     18  CG        41.6970    7.2810   44.5580 C.ar   46  PHE46      -0.0202
     19  CD1       40.7180    7.2900   45.5440 C.ar   46  PHE46      -0.0042
     20  CD2       42.7430    8.1940   44.6530 C.ar   46  PHE46      -0.0042
     21  CE1       40.7580    8.2340   46.5940 C.ar   46  PHE46      -0.0003
     22  CE2       42.7930    9.1320   45.6870 C.ar   46  PHE46      -0.0003
     23  CZ        41.8020    9.1510   46.6650 C.ar   46  PHE46      -0.0000
     24  N         38.6430    7.7810   42.7720 N.am   47  ASP47      -0.1974
     25  CA        37.2370    7.8970   43.1790 C.3    47  ASP47       0.1709
     26  C         36.6670    9.2920   42.9250 C.2    47  ASP47       0.2293
     27  O         37.4070   10.2860   42.8770 O.2    47  ASP47      -0.2864
     28  CB        37.0630    7.5620   44.6760 C.3    47  ASP47       0.1436
     29  CG        35.6470    7.0990   45.0200 C.2    47  ASP47       0.3671
     30  OD1       34.9660    6.5180   44.1450 O.co2  47  ASP47      -0.2456
     31  OD2       35.2110    7.3050   46.1710 O.co2  47  ASP47      -0.2456
     32  N         28.5080    9.0190   41.3940 N.3    52  ARG52      -0.1245
     33  CA        27.3780    8.4800   42.1580 C.3    52  ARG52       0.1563
     34  C         26.1500    9.4180   42.1360 C.2    52  ARG52       0.2260
     35  O         26.1620   10.4580   41.4630 O.2    52  ARG52      -0.2867
     36  CB        27.8120    8.1820   43.6010 C.3    52  ARG52       0.0307
     37  CG        28.7230    6.9690   43.7570 C.3    52  ARG52       0.0489
     38  CD        29.0340    6.6650   45.1850 C.3    52  ARG52       0.2205
     39  NE        29.6090    7.7310   46.0190 N.pl3  52  ARG52      -0.0865
     40  CZ        30.8890    7.8700   46.2850 C.cat  52  ARG52       0.5346
     41  NH1       31.8030    7.0130   45.7720 N.pl3  52  ARG52       0.1354
     42  NH2       31.3190    8.8810   47.0030 N.pl3  52  ARG52       0.1354
     43  N         28.2830   13.4750   48.9400 N.3    56  PHE56      -0.1241
     44  CA        28.8580   12.7710   50.0700 C.3    56  PHE56       0.1605
     45  C         28.5890   13.5590   51.3650 C.2    56  PHE56       0.2264
     46  O         28.7960   14.7660   51.4310 O.2    56  PHE56      -0.2867
     47  CB        30.3610   12.5700   49.8590 C.3    56  PHE56       0.0534
     48  CG        31.0480   11.8990   51.0140 C.ar   56  PHE56      -0.0203
     49  CD1       30.8280   10.5460   51.2860 C.ar   56  PHE56      -0.0042
     50  CD2       31.9110   12.6170   51.8340 C.ar   56  PHE56      -0.0042
     51  CE1       31.4690    9.9210   52.3620 C.ar   56  PHE56      -0.0003
     52  CE2       32.5620   12.0070   52.9030 C.ar   56  PHE56      -0.0003
     53  CZ        32.3380   10.6600   53.1750 C.ar   56  PHE56      -0.0000
     54  N         36.0130   11.5780   63.5230 N.3    63  GLY63      -0.1210
     55  CA        36.8730   10.4870   63.0410 C.3    63  GLY63       0.1956
     56  C         36.2680    9.5260   62.0280 C.2    63  GLY63       0.2612
     57  O         36.6890    8.3650   61.9440 O.2    63  GLY63      -0.2717
     58  N         35.2950    9.9980   61.2480 N.am   64  GLU64      -0.1965
     59  CA        34.6660    9.1700   60.2030 C.3    64  GLU64       0.1733
     60  C         35.4820    9.1740   58.9210 C.2    64  GLU64       0.2616
     61  O         35.4090    8.2420   58.1180 O.2    64  GLU64      -0.2715
     62  CB        33.2430    9.6530   59.8920 C.3    64  GLU64       0.0429
     63  CG        32.1780    9.0960   60.8400 C.3    64  GLU64       0.1163
     64  CD        30.8530    9.8600   60.7790 C.2    64  GLU64       0.3649
     65  OE1       30.6000   10.6130   59.7970 O.co2  64  GLU64      -0.2457
     66  OE2       30.0640    9.6850   61.7390 O.co2  64  GLU64      -0.2457
     67  N         36.2530   10.2380   58.7440 N.am   65  VAL65      -0.1963
     68  CA        37.0530   10.4470   57.5490 C.3    65  VAL65       0.1727
     69  C         38.5290   10.5570   57.9370 C.2    65  VAL65       0.2616
     70  O         38.8640   10.7220   59.1170 O.2    65  VAL65      -0.2715
     71  CB        36.6120   11.7360   56.8030 C.3    65  VAL65       0.0290
     72  CG1       35.1850   11.5900   56.2670 C.3    65  VAL65       0.0023
     73  CG2       36.7260   12.9650   57.7270 C.3    65  VAL65       0.0023
     74  N         39.4000   10.4800   56.9420 N.am   66  ILE66      -0.1977
     75  CA        40.8340   10.6760   57.1500 C.3    66  ILE66       0.1596
     76  C         41.1050   12.0470   57.7610 C.2    66  ILE66       0.2287
     77  O         40.3170   12.9750   57.5910 O.2    66  ILE66      -0.2864
     78  CB        41.6650   10.4590   55.8390 C.3    66  ILE66       0.0276
     79  CG1       41.2300   11.4230   54.7230 C.3    66  ILE66       0.0022
     80  CG2       41.5780    8.9890   55.3840 C.3    66  ILE66       0.0022
     81  CD1       42.1530   11.3750   53.4820 C.3    66  ILE66       0.0001
     82  N         40.8350   15.4760   55.9590 N.3    69  TRP69      -0.1241
     83  CA        39.4910   15.9550   55.6220 C.3    69  TRP69       0.1605
     84  C         38.8910   16.7190   56.7940 C.2    69  TRP69       0.2264
     85  O         38.2900   17.7620   56.5810 O.2    69  TRP69      -0.2867
     86  CB        38.5800   14.7850   55.1910 C.3    69  TRP69       0.0550
     87  CG        38.5510   14.5600   53.7000 C.ar   69  TRP69       0.0003
     88  CD1       39.6180   14.2940   52.8910 C.ar   69  TRP69       0.0946
     89  CD2       37.3980   14.6110   52.8390 C.ar   69  TRP69       0.0152
     90  NE1       39.2100   14.1790   51.5800 N.ar   69  TRP69      -0.2442
     91  CE2       37.8540   14.3610   51.5170 C.ar   69  TRP69       0.0810
     92  CE3       36.0290   14.8420   53.0550 C.ar   69  TRP69       0.0012
     93  CZ2       36.9810   14.3120   50.4080 C.ar   69  TRP69       0.0191
     94  CZ3       35.1590   14.8110   51.9520 C.ar   69  TRP69       0.0001
     95  CH2       35.6470   14.5450   50.6440 C.ar   69  TRP69       0.0015
     96  N         46.4350   10.7180   55.8490 N.3    91  ALA91      -0.1231
     97  CA        45.4800    9.9200   55.0820 C.3    91  ALA91       0.1694
     98  C         45.5230    8.4530   55.5020 C.2    91  ALA91       0.2592
     99  O         45.0320    8.1230   56.5840 O.2    91  ALA91      -0.2718
    100  CB        45.6700   10.1050   53.5890 C.3    91  ALA91       0.0304
    101  N         46.1240    7.5840   54.6920 N.am   92  TYR92      -0.1976
    102  CA        46.0790    6.1430   54.9750 C.3    92  TYR92       0.1639
    103  C         47.3930    5.4950   55.4640 C.2    92  TYR92       0.2290
    104  O         47.4270    4.2930   55.7070 O.2    92  TYR92      -0.2864
    105  CB        45.4820    5.3700   53.7850 C.3    92  TYR92       0.0560
    106  CG        44.0510    5.7680   53.4760 C.ar   92  TYR92      -0.0198
    107  CD1       42.9780    5.2170   54.1900 C.ar   92  TYR92      -0.0009
    108  CD2       43.7680    6.6940   52.4700 C.ar   92  TYR92      -0.0009
    109  CE1       41.6590    5.5810   53.9060 C.ar   92  TYR92       0.0417
    110  CE2       42.4490    7.0740   52.1830 C.ar   92  TYR92       0.0417
    111  CZ        41.4020    6.5100   52.9030 C.ar   92  TYR92       0.1957
    112  OH        40.1040    6.8920   52.6310 O.3    92  TYR92      -0.2866
    113  N         49.3830    1.3860   56.1200 N.3    95  ALA95      -0.1245
    114  CA        48.3100    0.4430   55.8150 C.3    95  ALA95       0.1562
    115  C         47.7930    0.5890   54.3800 C.2    95  ALA95       0.2260
    116  O         47.4670   -0.4050   53.7320 O.2    95  ALA95      -0.2867
    117  CB        47.1630    0.6110   56.8170 C.3    95  ALA95       0.0290
    118  N         44.9350    1.7830   51.5620 N.3    97  SER97      -0.1217
    119  CA        43.5510    1.3200   51.5010 C.3    97  SER97       0.1889
    120  C         43.3310    0.5200   50.2160 C.2    97  SER97       0.2288
    121  O         42.7950    1.0560   49.2370 O.2    97  SER97      -0.2866
    122  CB        42.5720    2.4920   51.5930 C.3    97  SER97       0.2089
    123  OG        41.2330    2.0330   51.6550 O.3    97  SER97      -0.2183
    124  N         42.4150    0.5020   45.9530 N.3   100  LYS100     -0.1231
    125  CA        42.5360    1.8680   45.4380 C.3   100  LYS100      0.1693
    126  C         43.8230    2.5780   45.8660 C.2   100  LYS100      0.2591
    127  O         44.5360    3.1340   45.0330 O.2   100  LYS100     -0.2718
    128  CB        41.3330    2.7070   45.8810 C.3   100  LYS100      0.0285
    129  CG        40.0350    2.4710   45.1090 C.3   100  LYS100      0.0035
    130  CD        38.9000    3.2800   45.7570 C.3   100  LYS100      0.0206
    131  CE        37.7040    3.4760   44.8280 C.3   100  LYS100      0.1093
    132  NZ        37.1990    2.2140   44.2310 N.3   100  LYS100     -0.1314
    133  N         44.1110    2.5560   47.1630 N.am  101  ILE101     -0.1980
    134  CA        45.2110    3.3380   47.7230 C.3   101  ILE101      0.1595
    135  C         46.3740    2.4520   48.1540 C.2   101  ILE101      0.2287
    136  O         46.2090    1.6190   49.0460 O.2   101  ILE101     -0.2864
    137  CB        44.7520    4.1830   48.9450 C.3   101  ILE101      0.0276
    138  CG1       43.4720    4.9680   48.6320 C.3   101  ILE101      0.0022
    139  CG2       45.8900    5.0760   49.4480 C.3   101  ILE101      0.0022
    140  CD1       43.5880    5.9720   47.4910 C.3   101  ILE101      0.0001
    141  N         42.7530   15.7710   46.6670 N.3   109  PHE109     -0.1241
    142  CA        41.2870   15.8180   46.5810 C.3   109  PHE109      0.1605
    143  C         40.8060   17.1690   46.0380 C.2   109  PHE109      0.2264
    144  O         41.2960   18.2130   46.4700 O.2   109  PHE109     -0.2867
    145  CB        40.6710   15.5970   47.9660 C.3   109  PHE109      0.0534
    146  CG        40.7620   14.1750   48.4680 C.ar  109  PHE109     -0.0203
    147  CD1       39.7870   13.2360   48.1210 C.ar  109  PHE109     -0.0042
    148  CD2       41.8030   13.7810   49.2990 C.ar  109  PHE109     -0.0042
    149  CE1       39.8460   11.9280   48.5890 C.ar  109  PHE109     -0.0003
    150  CE2       41.8710   12.4770   49.7850 C.ar  109  PHE109     -0.0003
    151  CZ        40.9000   11.5440   49.4270 C.ar  109  PHE109     -0.0000
@<TRIPOS>BOND
     1    32    33    1
     2    35    34    2
     3    13    14    1
     4    34    33    1
     5    33    36    1
     6    14    15    1
     7    14    17    1
     8    15    24   am
     9    15    16    2
    10    24    25    1
    11    27    26    2
    12    26    25    1
    13    25    28    1
    14    17    18    1
    15    36    37    1
    16    37    38    1
    17     4     3    2
    18    30    29   ar
    19   132   131    1
    20    18    20   ar
    21    18    19   ar
    22     3     2    1
    23    20    22   ar
    24    28    29    1
    25   131   130    1
    26    29    31   ar
    27   127   126    2
    28   129   130    1
    29   129   128    1
    30    38    39    1
    31   125   126    1
    32   125   128    1
    33   125   124    1
    34    19    21   ar
    35    22    23   ar
    36    41    40    1
    37     2     1    1
    38     2     5    1
    39   126   133   am
    40    39    40    2
    41   143   144    2
    42   143   142    1
    43    40    42    1
    44   142   141    1
    45   142   145    1
    46    21    23   ar
    47     7     9   ar
    48     7     6   ar
    49     9    11   ar
    50     5     6    1
    51   133   134    1
    52     6     8   ar
    53   140   138    1
    54    11    12    1
    55    11    10   ar
    56   134   135    1
    57   134   137    1
    58   145   146    1
    59     8    10   ar
    60   147   146   ar
    61   147   149   ar
    62   135   136    2
    63   146   148   ar
    64   149   151   ar
    65   138   137    1
    66    43    44    1
    67   137   139    1
    68   121   120    2
    69   148   150   ar
    70   151   150   ar
    71    47    44    1
    72    47    48    1
    73    44    45    1
    74   120   119    1
    75    93    95   ar
    76    93    91   ar
    77    95    94   ar
    78    48    49   ar
    79    48    50   ar
    80    49    51   ar
    81    45    46    2
    82   119   118    1
    83   119   122    1
    84    91    90   ar
    85    91    89   ar
    86    90    88   ar
    87   122   123    1
    88    50    52   ar
    89    94    92   ar
    90   110   108   ar
    91   110   111   ar
    92    51    53   ar
    93   108   106   ar
    94   112   111    1
    95    89    92   ar
    96    89    87   ar
    97    88    87   ar
    98   111   109   ar
    99    52    53   ar
   100   106   105    1
   101   106   107   ar
   102    81    79    1
   103   100    97    1
   104    87    86    1
   105   116   115    2
   106   105   102    1
   107   109   107   ar
   108   115   114    1
   109   101   102    1
   110   101    98   am
   111    79    78    1
   112   102   103    1
   113    97    98    1
   114    97    96    1
   115    86    83    1
   116    80    78    1
   117   103   104    2
   118    98    99    2
   119    83    82    1
   120    83    84    1
   121   114   113    1
   122   114   117    1
   123    78    75    1
   124    72    71    1
   125    85    84    2
   126    71    68    1
   127    71    73    1
   128    74    75    1
   129    74    69   am
   130    75    76    1
   131    68    69    1
   132    68    67    1
   133    77    76    2
   134    69    70    2
   135    61    60    2
   136    67    60   am
   137    60    59    1
   138    65    64   ar
   139    62    59    1
   140    62    63    1
   141    59    58    1
   142    64    63    1
   143    64    66   ar
   144    58    56   am
   145    57    56    2
   146    56    55    1
   147    55    54    1
