@<TRIPOS>MOLECULE
tmp/4layA00.pdb
 166 163 0 0 0
SMALL
GASTEIGER

@<TRIPOS>ATOM
      1  N         15.7080   -6.5130    6.5710 N.3    36  TYR36      -0.1241
      2  CA        17.1590   -6.5820    6.6060 C.3    36  TYR36       0.1605
      3  C         17.6600   -7.6240    5.6180 C.2    36  TYR36       0.2264
      4  O         16.9310   -8.5430    5.2190 O.2    36  TYR36      -0.2867
      5  CB        17.6770   -6.9240    8.0220 C.3    36  TYR36       0.0534
      6  CG        17.3680   -8.3550    8.4170 C.ar   36  TYR36      -0.0201
      7  CD1       18.2660   -9.3870    8.1280 C.ar   36  TYR36      -0.0009
      8  CD2       16.1570   -8.6820    9.0190 C.ar   36  TYR36      -0.0009
      9  CE1       17.9680  -10.7180    8.4530 C.ar   36  TYR36       0.0417
     10  CE2       15.8500  -10.0110    9.3370 C.ar   36  TYR36       0.0417
     11  CZ        16.7610  -11.0170    9.0470 C.ar   36  TYR36       0.1957
     12  OH        16.4750  -12.3230    9.3680 O.3    36  TYR36      -0.2866
     13  N         23.6740  -14.5980    3.9940 N.3    46  PHE46      -0.1227
     14  CA        23.1410  -15.6990    4.8100 C.3    46  PHE46       0.1736
     15  C         21.6360  -15.6190    5.0940 C.2    46  PHE46       0.2595
     16  O         21.0110  -16.6430    5.3760 O.2    46  PHE46      -0.2718
     17  CB        23.9510  -15.9090    6.0970 C.3    46  PHE46       0.0547
     18  CG        24.0110  -14.7020    6.9850 C.ar   46  PHE46      -0.0202
     19  CD1       22.9330  -14.3750    7.8190 C.ar   46  PHE46      -0.0042
     20  CD2       25.1450  -13.8970    7.0120 C.ar   46  PHE46      -0.0042
     21  CE1       22.9800  -13.2520    8.6570 C.ar   46  PHE46      -0.0003
     22  CE2       25.2160  -12.7790    7.8720 C.ar   46  PHE46      -0.0003
     23  CZ        24.1240  -12.4520    8.6930 C.ar   46  PHE46      -0.0000
     24  N         21.0410  -14.4310    4.9910 N.am   47  ASP47      -0.1974
     25  CA        19.5900  -14.3150    5.1990 C.3    47  ASP47       0.1709
     26  C         19.0570  -12.9610    4.7730 C.2    47  ASP47       0.2293
     27  O         19.7900  -11.9750    4.7990 O.2    47  ASP47      -0.2864
     28  CB        19.2190  -14.5080    6.6790 C.3    47  ASP47       0.1436
     29  CG        17.7330  -14.8110    6.8740 C.2    47  ASP47       0.3671
     30  OD1       17.2060  -15.7590    6.2350 O.co2  47  ASP47      -0.2456
     31  OD2       17.0780  -14.0800    7.6380 O.co2  47  ASP47      -0.2456
     32  N         10.8970  -13.3190    2.6470 N.3    52  ARG52      -0.1245
     33  CA         9.7170  -13.7980    3.3550 C.3    52  ARG52       0.1563
     34  C          8.5890  -12.7670    3.2690 C.2    52  ARG52       0.2260
     35  O          8.7940  -11.6510    2.7880 O.2    52  ARG52      -0.2867
     36  CB        10.0760  -14.0840    4.8130 C.3    52  ARG52       0.0307
     37  CG        11.0460  -15.2390    4.9690 C.3    52  ARG52       0.0489
     38  CD        11.3420  -15.5330    6.4190 C.3    52  ARG52       0.2205
     39  NE        12.2360  -14.5520    7.0280 N.pl3  52  ARG52      -0.0865
     40  CZ        13.5610  -14.5530    6.8850 C.cat  52  ARG52       0.5346
     41  NH1       14.1590  -15.4650    6.1240 N.pl3  52  ARG52       0.1354
     42  NH2       14.2850  -13.6320    7.4940 N.pl3  52  ARG52       0.1354
     43  N         10.6200   -8.0850    9.7550 N.3    56  PHE56      -0.1241
     44  CA        11.1700   -8.6430   10.9740 C.3    56  PHE56       0.1605
     45  C         10.8220   -7.6610   12.1010 C.2    56  PHE56       0.2264
     46  O         10.9810   -6.4520   11.9420 O.2    56  PHE56      -0.2867
     47  CB        12.6940   -8.8110   10.8270 C.3    56  PHE56       0.0534
     48  CG        13.3760   -9.3170   12.0710 C.ar   56  PHE56      -0.0203
     49  CD1       13.3030  -10.6630   12.4290 C.ar   56  PHE56      -0.0042
     50  CD2       14.0840   -8.4420   12.8860 C.ar   56  PHE56      -0.0042
     51  CE1       13.9180  -11.1290   13.6120 C.ar   56  PHE56      -0.0003
     52  CE2       14.7070   -8.9020   14.0420 C.ar   56  PHE56      -0.0003
     53  CZ        14.6290  -10.2390   14.4060 C.ar   56  PHE56      -0.0000
     54  N         11.0460   -6.9370   16.5180 N.3    58  PHE58      -0.1241
     55  CA        11.6020   -7.3160   17.7990 C.3    58  PHE58       0.1605
     56  C         11.4330   -6.1600   18.7820 C.2    58  PHE58       0.2264
     57  O         11.0790   -5.0470   18.3890 O.2    58  PHE58      -0.2867
     58  CB        13.0770   -7.7350   17.6640 C.3    58  PHE58       0.0534
     59  CG        14.0300   -6.6000   17.4210 C.ar   58  PHE58      -0.0203
     60  CD1       14.7860   -6.0600   18.4770 C.ar   58  PHE58      -0.0042
     61  CD2       14.2020   -6.0840   16.1410 C.ar   58  PHE58      -0.0042
     62  CE1       15.6930   -4.9950   18.2350 C.ar   58  PHE58      -0.0003
     63  CE2       15.1100   -5.0200   15.8930 C.ar   58  PHE58      -0.0003
     64  CZ        15.8470   -4.4780   16.9490 C.ar   58  PHE58      -0.0000
     65  N         18.0430   -7.5990   24.7110 N.3    63  GLY63      -0.1210
     66  CA        18.8410   -8.7700   24.3780 C.3    63  GLY63       0.1956
     67  C         18.0140   -9.8460   23.6870 C.2    63  GLY63       0.2612
     68  O         18.2370  -11.0520   23.9260 O.2    63  GLY63      -0.2717
     69  N         17.0470   -9.4010   22.8640 N.am   64  GLU64      -0.1965
     70  CA        16.2170  -10.2460   21.9710 C.3    64  GLU64       0.1733
     71  C         16.9320  -10.5260   20.6430 C.2    64  GLU64       0.2616
     72  O         16.5430  -11.4260   19.8830 O.2    64  GLU64      -0.2715
     73  CB        14.9010   -9.5410   21.5950 C.3    64  GLU64       0.0429
     74  CG        13.8600   -9.3810   22.6880 C.3    64  GLU64       0.1163
     75  CD        12.4090   -9.4800   22.1750 C.2    64  GLU64       0.3649
     76  OE1       12.1230   -9.2400   20.9710 O.co2  64  GLU64      -0.2457
     77  OE2       11.5410   -9.8180   23.0090 O.co2  64  GLU64      -0.2457
     78  N         17.9440   -9.7120   20.3630 N.am   65  VAL65      -0.1963
     79  CA        18.7280   -9.7730   19.1180 C.3    65  VAL65       0.1727
     80  C         20.1800   -9.5810   19.5120 C.2    65  VAL65       0.2616
     81  O         20.4500   -9.2160   20.6590 O.2    65  VAL65      -0.2715
     82  CB        18.3240   -8.6670   18.1010 C.3    65  VAL65       0.0290
     83  CG1       16.9680   -8.9640   17.4960 C.3    65  VAL65       0.0023
     84  CG2       18.3750   -7.2440   18.7340 C.3    65  VAL65       0.0023
     85  N         21.1140   -9.8440   18.5830 N.am   66  ILE66      -0.1963
     86  CA        22.5380   -9.6120   18.8850 C.3    66  ILE66       0.1727
     87  C         22.7910   -8.1650   19.3340 C.2    66  ILE66       0.2616
     88  O         22.0410   -7.2290   18.9770 O.2    66  ILE66      -0.2715
     89  CB        23.4710  -10.0110   17.7120 C.3    66  ILE66       0.0290
     90  CG1       23.0970   -9.2380   16.4390 C.3    66  ILE66       0.0022
     91  CG2       23.4290  -11.5460   17.5050 C.3    66  ILE66       0.0023
     92  CD1       24.0700   -9.4420   15.2940 C.3    66  ILE66       0.0001
     93  N         23.8500   -7.9860   20.1170 N.am   67  LYS67      -0.1977
     94  CA        24.1370   -6.6750   20.6900 C.3    67  LYS67       0.1596
     95  C         24.2870   -5.5780   19.6300 C.2    67  LYS67       0.2287
     96  O         23.7910   -4.4610   19.8370 O.2    67  LYS67      -0.2864
     97  CB        25.3600   -6.7100   21.6020 C.3    67  LYS67       0.0298
     98  CG        25.5650   -5.3880   22.3910 C.3    67  LYS67       0.0038
     99  CD        24.3410   -5.0020   23.2370 C.3    67  LYS67       0.0206
    100  CE        24.6100   -3.7520   24.0640 C.3    67  LYS67       0.1093
    101  NZ        23.5050   -3.4750   25.0190 N.3    67  LYS67      -0.1314
    102  N         22.6510   -5.1580   17.0050 N.3    69  TRP69      -0.1241
    103  CA        21.3260   -4.6680   16.6100 C.3    69  TRP69       0.1605
    104  C         20.6490   -3.7910   17.6840 C.2    69  TRP69       0.2264
    105  O         19.9690   -2.8010   17.3520 O.2    69  TRP69      -0.2867
    106  CB        20.4050   -5.8360   16.2320 C.3    69  TRP69       0.0550
    107  CG        20.4650   -6.1910   14.7840 C.ar   69  TRP69       0.0003
    108  CD1       21.5770   -6.5500   14.0550 C.ar   69  TRP69       0.0946
    109  CD2       19.3620   -6.2300   13.8750 C.ar   69  TRP69       0.0152
    110  NE1       21.2240   -6.8180   12.7560 N.ar   69  TRP69      -0.2442
    111  CE2       19.8730   -6.6240   12.6120 C.ar   69  TRP69       0.0810
    112  CE3       17.9870   -5.9680   14.0040 C.ar   69  TRP69       0.0012
    113  CZ2       19.0540   -6.7830   11.4890 C.ar   69  TRP69       0.0191
    114  CZ3       17.1700   -6.1190   12.8860 C.ar   69  TRP69       0.0001
    115  CH2       17.7110   -6.5060   11.6360 C.ar   69  TRP69       0.0015
    116  N         28.1010   -9.8220   17.9410 N.3    91  ALA91      -0.1231
    117  CA        27.2450  -10.7100   17.1830 C.3    91  ALA91       0.1694
    118  C         27.2960  -12.1090   17.7930 C.2    91  ALA91       0.2592
    119  O         26.8690  -12.2820   18.9240 O.2    91  ALA91      -0.2718
    120  CB        27.6420  -10.6990   15.7050 C.3    91  ALA91       0.0304
    121  N         27.8400  -13.0960   17.0720 N.am   92  TYR92      -0.1976
    122  CA        27.7970  -14.4960   17.5340 C.3    92  TYR92       0.1639
    123  C         29.0950  -15.0280   18.1550 C.2    92  TYR92       0.2290
    124  O         29.1760  -16.2120   18.5010 O.2    92  TYR92      -0.2864
    125  CB        27.3370  -15.4330   16.4100 C.3    92  TYR92       0.0560
    126  CG        25.9240  -15.1420   15.9600 C.ar   92  TYR92      -0.0198
    127  CD1       24.8400  -15.7600   16.5790 C.ar   92  TYR92      -0.0009
    128  CD2       25.6750  -14.2410   14.9150 C.ar   92  TYR92      -0.0009
    129  CE1       23.5390  -15.4890   16.1730 C.ar   92  TYR92       0.0417
    130  CE2       24.3710  -13.9530   14.5080 C.ar   92  TYR92       0.0417
    131  CZ        23.3170  -14.5860   15.1330 C.ar   92  TYR92       0.1957
    132  OH        22.0350  -14.3000   14.7120 O.3    92  TYR92      -0.2866
    133  N         26.9170  -19.3820   14.5940 N.3    97  SER97      -0.1217
    134  CA        25.5480  -19.8490   14.5140 C.3    97  SER97       0.1889
    135  C         25.4650  -20.7790   13.3210 C.2    97  SER97       0.2288
    136  O         25.0010  -20.3660   12.2590 O.2    97  SER97      -0.2866
    137  CB        24.5810  -18.6730   14.3490 C.3    97  SER97       0.2089
    138  OG        23.2500  -19.1020   14.5920 O.3    97  SER97      -0.2183
    139  N         25.0770  -21.2720    9.0430 N.3   100  LYS100     -0.1231
    140  CA        25.1630  -19.9670    8.3770 C.3   100  LYS100      0.1693
    141  C         26.3590  -19.1040    8.8140 C.2   100  LYS100      0.2591
    142  O         27.0340  -18.4860    7.9750 O.2   100  LYS100     -0.2718
    143  CB        23.8550  -19.1920    8.5780 C.3   100  LYS100      0.0285
    144  CG        22.6700  -19.7150    7.7590 C.3   100  LYS100      0.0035
    145  CD        21.4390  -18.8230    7.9440 C.3   100  LYS100      0.0206
    146  CE        20.2220  -19.3490    7.1690 C.3   100  LYS100      0.1093
    147  NZ        20.4440  -19.3780    5.6860 N.3   100  LYS100     -0.1314
    148  N         26.6090  -19.0600   10.1210 N.am  101  ILE101     -0.1980
    149  CA        27.5820  -18.1230   10.6890 C.3   101  ILE101      0.1595
    150  C         28.7430  -18.8900   11.3150 C.2   101  ILE101      0.2287
    151  O         28.5470  -19.5960   12.3070 O.2   101  ILE101     -0.2864
    152  CB        26.9550  -17.1920   11.7980 C.3   101  ILE101      0.0276
    153  CG1       25.6330  -16.5180   11.3630 C.3   101  ILE101      0.0022
    154  CG2       27.9620  -16.1570   12.2740 C.3   101  ILE101      0.0022
    155  CD1       25.7140  -15.7190   10.1060 C.3   101  ILE101      0.0001
    156  N         24.9980   -6.0290    7.9780 N.3   109  PHE109     -0.1241
    157  CA        23.5530   -6.0090    7.7430 C.3   109  PHE109      0.1605
    158  C         23.1460   -4.7170    7.0510 C.2   109  PHE109      0.2264
    159  O         23.5990   -3.6410    7.4480 O.2   109  PHE109     -0.2867
    160  CB        22.7730   -6.0810    9.0580 C.3   109  PHE109      0.0534
    161  CG        22.8340   -7.4210    9.7560 C.ar  109  PHE109     -0.0203
    162  CD1       21.8430   -8.3800    9.5360 C.ar  109  PHE109     -0.0042
    163  CD2       23.8630   -7.7010   10.6600 C.ar  109  PHE109     -0.0042
    164  CE1       21.8950   -9.6210   10.1970 C.ar  109  PHE109     -0.0003
    165  CE2       23.9270   -8.9410   11.3410 C.ar  109  PHE109     -0.0003
    166  CZ        22.9310   -9.8960   11.1090 C.ar  109  PHE109     -0.0000
@<TRIPOS>BOND
     1    32    33    1
     2    35    34    2
     3    34    33    1
     4    33    36    1
     5    13    14    1
     6    26    27    2
     7    26    25    1
     8    14    15    1
     9    14    17    1
    10    36    37    1
    11    37    38    1
    12    24    15   am
    13    24    25    1
    14    15    16    2
    15    25    28    1
    16     4     3    2
    17     3     2    1
    18   147   146    1
    19    17    18    1
    20    41    40    1
    21    30    29   ar
    22    38    39    1
    23     1     2    1
    24     2     5    1
    25    28    29    1
    26    29    31   ar
    27    40    39    2
    28    40    42    1
    29    18    20   ar
    30    18    19   ar
    31    20    22   ar
    32   158   159    2
    33   158   157    1
    34   146   145    1
    35   157   156    1
    36   157   160    1
    37   144   145    1
    38   144   143    1
    39    19    21   ar
    40    22    23   ar
    41   142   141    2
    42     5     6    1
    43     7     6   ar
    44     7     9   ar
    45   140   143    1
    46   140   141    1
    47   140   139    1
    48     6     8   ar
    49     9    11   ar
    50    21    23   ar
    51   141   148   am
    52     8    10   ar
    53    11    10   ar
    54    11    12    1
    55   160   161    1
    56   162   161   ar
    57   162   164   ar
    58    43    44    1
    59   161   163   ar
    60   155   153    1
    61   148   149    1
    62   164   166   ar
    63   163   165   ar
    64   149   150    1
    65   149   152    1
    66    47    44    1
    67    47    48    1
    68    44    45    1
    69   166   165   ar
    70   150   151    2
    71   153   152    1
    72   113   115   ar
    73   113   111   ar
    74   115   114   ar
    75   152   154    1
    76    46    45    2
    77    48    49   ar
    78    48    50   ar
    79   136   135    2
    80    49    51   ar
    81   111   110   ar
    82   111   109   ar
    83   110   108   ar
    84    50    52   ar
    85   114   112   ar
    86   135   134    1
    87    51    53   ar
    88   109   112   ar
    89   109   107   ar
    90    52    53   ar
    91   108   107   ar
    92   137   134    1
    93   137   138    1
    94   130   128   ar
    95   130   131   ar
    96   134   133    1
    97   132   131    1
    98   107   106    1
    99   128   126   ar
   100   131   129   ar
   101    92    90    1
   102   120   117    1
   103    63    61   ar
   104    63    64   ar
   105   126   125    1
   106   126   127   ar
   107    61    59   ar
   108   129   127   ar
   109   106   103    1
   110   125   122    1
   111    90    89    1
   112    54    55    1
   113   103   102    1
   114   103   104    1
   115    64    62   ar
   116   121   122    1
   117   121   118   am
   118   117   118    1
   119   117   116    1
   120   105   104    2
   121    59    58    1
   122    59    60   ar
   123    83    82    1
   124    91    89    1
   125   122   123    1
   126    58    55    1
   127    89    86    1
   128   118   119    2
   129    55    56    1
   130    82    84    1
   131    82    79    1
   132   123   124    2
   133    62    60   ar
   134    57    56    2
   135    85    86    1
   136    85    80   am
   137    86    87    1
   138    88    87    2
   139    79    80    1
   140    79    78    1
   141    87    93   am
   142    80    81    2
   143    95    96    2
   144    95    94    1
   145    72    71    2
   146    93    94    1
   147    78    71   am
   148    71    70    1
   149    94    97    1
   150    76    75   ar
   151    73    70    1
   152    73    74    1
   153    97    98    1
   154    70    69    1
   155    75    74    1
   156    75    77   ar
   157    98    99    1
   158    69    67   am
   159    99   100    1
   160    67    68    2
   161    67    66    1
   162   100   101    1
   163    66    65    1
