@<TRIPOS>MOLECULE
tmp/4lb0B00.pdb
 126 117 0 0 0
SMALL
GASTEIGER

@<TRIPOS>ATOM
      1  N         37.6700    7.3900   34.9860 N.3    18  GLU18      -0.1245
      2  CA        37.2660    7.0430   33.6320 C.3    18  GLU18       0.1567
      3  C         36.3240    8.1170   33.0970 C.2    18  GLU18       0.2260
      4  O         35.2530    8.3340   33.6400 O.2    18  GLU18      -0.2867
      5  CB        36.5610    5.6870   33.6080 C.3    18  GLU18       0.0388
      6  CG        36.0170    5.2580   32.2300 C.3    18  GLU18       0.1160
      7  CD        37.0560    4.9780   31.1600 C.2    18  GLU18       0.3649
      8  OE1       38.2900    4.9400   31.4240 O.co2  18  GLU18      -0.2457
      9  OE2       36.6040    4.8090   30.0040 O.co2  18  GLU18      -0.2457
     10  N         26.2810    5.0600   24.7330 N.3    84  ILE84      -0.1245
     11  CA        27.6970    5.3510   24.9060 C.3    84  ILE84       0.1561
     12  C         28.4420    5.3140   23.5660 C.2    84  ILE84       0.2260
     13  O         28.3500    4.3350   22.8240 O.2    84  ILE84      -0.2867
     14  CB        28.3660    4.3240   25.8390 C.3    84  ILE84       0.0252
     15  CG1       27.7020    4.3040   27.2180 C.3    84  ILE84       0.0019
     16  CG2       29.8290    4.5920   25.9840 C.3    84  ILE84       0.0019
     17  CD1       26.7140    3.1780   27.4230 C.3    84  ILE84       0.0001
     18  N         32.1280    5.3900   21.6770 N.3    86  GLN86      -0.1245
     19  CA        33.5640    5.1390   21.8210 C.3    86  GLN86       0.1566
     20  C         34.1820    5.0140   20.4400 C.2    86  GLN86       0.2260
     21  O         33.4720    5.0070   19.4560 O.2    86  GLN86      -0.2867
     22  CB        33.7790    3.8720   22.6300 C.3    86  GLN86       0.0367
     23  CG        33.5490    4.1240   24.1080 C.3    86  GLN86       0.0905
     24  CD        33.6200    2.8840   24.9470 C.2    86  GLN86       0.2608
     25  OE1       34.0040    1.7830   24.4780 O.2    86  GLN86      -0.2717
     26  NE2       33.2780    3.0560   26.2240 N.am   86  GLN86      -0.0878
     27  N         25.7360   -0.2430   27.1560 N.3    93  SER93      -0.1202
     28  CA        25.8400   -0.1670   28.6130 C.3    93  SER93       0.2020
     29  C         27.2190    0.2030   29.0630 C.2    93  SER93       0.2619
     30  O         28.2310   -0.1240   28.4120 O.2    93  SER93      -0.2717
     31  CB        25.5170   -1.5300   29.2320 C.3    93  SER93       0.2103
     32  OG        24.2840   -2.0400   28.7410 O.3    93  SER93      -0.2182
     33  N         27.2660    0.8180   30.2410 N.am   94  SER94      -0.1937
     34  CA        28.5250    1.1290   30.8970 C.3    94  SER94       0.2055
     35  C         28.2490    1.5660   32.3170 C.2    94  SER94       0.2644
     36  O         27.5160    2.5140   32.5400 O.2    94  SER94      -0.2714
     37  CB        29.1910    2.3010   30.1780 C.3    94  SER94       0.2130
     38  OG        30.3140    2.7800   30.9210 O.3    94  SER94      -0.2179
     39  N         28.8860    0.9440   33.2860 N.am   95  GLY95      -0.1939
     40  CA        28.7230    1.3570   34.6700 C.3    95  GLY95       0.2014
     41  C         29.3050    2.7280   34.9500 C.2    95  GLY95       0.2640
     42  O         28.6080    3.6170   35.4390 O.2    95  GLY95      -0.2714
     43  N         30.5820    2.9050   34.6270 N.am   96  SER96      -0.1935
     44  CA        31.2160    4.1880   34.8530 C.3    96  SER96       0.2055
     45  C         30.4550    5.3100   34.1270 C.2    96  SER96       0.2643
     46  O         30.2550    6.3780   34.6880 O.2    96  SER96      -0.2714
     47  CB        32.6900    4.1430   34.4590 C.3    96  SER96       0.2130
     48  OG        32.8150    4.0160   33.0610 O.3    96  SER96      -0.2179
     49  N         30.0010    5.0790   32.8970 N.am   97  ASN97      -0.1971
     50  CA        29.2930    6.1420   32.1770 C.3    97  ASN97       0.1688
     51  C         27.8750    6.4050   32.6920 C.2    97  ASN97       0.2292
     52  O         27.3770    7.5340   32.6540 O.2    97  ASN97      -0.2864
     53  CB        29.3480    5.8760   30.6830 C.3    97  ASN97       0.1181
     54  CG        30.7050    6.1610   30.1450 C.2    97  ASN97       0.2629
     55  OD1       31.1620    7.3030   30.1690 O.2    97  ASN97      -0.2716
     56  ND2       31.4060    5.1250   29.7290 N.am   97  ASN97      -0.0877
     57  N         31.5450   -9.6770   27.4010 N.3   178  TYR178     -0.1241
     58  CA        32.9390   -9.7410   27.8180 C.3   178  TYR178      0.1605
     59  C         33.5300  -11.1070   27.5550 C.2   178  TYR178      0.2264
     60  O         32.8530  -12.1250   27.7080 O.2   178  TYR178     -0.2867
     61  CB        33.0550   -9.5210   29.3480 C.3   178  TYR178      0.0534
     62  CG        33.0280   -8.0710   29.6740 C.ar  178  TYR178     -0.0201
     63  CD1       31.8270   -7.4040   29.8110 C.ar  178  TYR178     -0.0009
     64  CD2       34.2010   -7.3400   29.7570 C.ar  178  TYR178     -0.0009
     65  CE1       31.7850   -6.0160   30.0270 C.ar  178  TYR178      0.0417
     66  CE2       34.1780   -5.9710   29.9870 C.ar  178  TYR178      0.0417
     67  CZ        32.9640   -5.3180   30.1290 C.ar  178  TYR178      0.1957
     68  OH        32.9730   -3.9580   30.3430 O.3   178  TYR178     -0.2866
     69  N         34.6780   -6.2930   24.8940 N.3   228  TYR228     -0.1241
     70  CA        35.9440   -6.1090   25.5950 C.3   228  TYR228      0.1605
     71  C         36.4610   -7.4240   26.1510 C.2   228  TYR228      0.2264
     72  O         35.6830   -8.3140   26.5230 O.2   228  TYR228     -0.2867
     73  CB        35.7610   -5.1670   26.7850 C.3   228  TYR228      0.0534
     74  CG        35.0440   -3.8630   26.4980 C.ar  228  TYR228     -0.0201
     75  CD1       35.5730   -2.9240   25.6590 C.ar  228  TYR228     -0.0009
     76  CD2       33.8630   -3.5600   27.1460 C.ar  228  TYR228     -0.0009
     77  CE1       34.9160   -1.7130   25.4410 C.ar  228  TYR228      0.0417
     78  CE2       33.1950   -2.3590   26.9290 C.ar  228  TYR228      0.0417
     79  CZ        33.7290   -1.4350   26.1160 C.ar  228  TYR228      0.1957
     80  OH        33.0560   -0.2400   25.9270 O.3   228  TYR228     -0.2866
     81  N         39.8930   -3.8320   32.0570 N.3   244  THR244     -0.1218
     82  CA        39.1220   -3.9850   30.8480 C.3   244  THR244      0.1862
     83  C         39.8830   -3.2770   29.7310 C.2   244  THR244      0.2287
     84  O         40.2310   -2.1110   29.8560 O.2   244  THR244     -0.2866
     85  CB        37.7580   -3.3680   31.0470 C.3   244  THR244      0.1770
     86  OG1       36.9910   -4.2900   31.8280 O.3   244  THR244     -0.2211
     87  CG2       37.0690   -3.1350   29.7230 C.3   244  THR244      0.0375
     88  N         40.1010   -1.9670   25.7660 N.3   246  MET246     -0.1245
     89  CA        39.1450   -1.3010   24.8870 C.3   246  MET246      0.1570
     90  C         39.8090   -0.9290   23.5660 C.2   246  MET246      0.2261
     91  O         40.8640   -0.3160   23.5470 O.2   246  MET246     -0.2867
     92  CB        38.6160   -0.0550   25.5940 C.3   246  MET246      0.0387
     93  CG        38.1170   -0.3250   27.0060 C.3   246  MET246      0.0595
     94  SD        37.7430    1.1500   28.0010 S.3   246  MET246     -0.1393
     95  CE        36.3930    1.8870   27.0790 C.3   246  MET246      0.0692
     96  N         40.4650    0.6010   30.7020 N.3   252  ASP252     -0.1239
     97  CA        39.5110    1.3030   31.5400 C.3   252  ASP252      0.1674
     98  C         40.2400    1.8060   32.7830 C.2   252  ASP252      0.2266
     99  O         40.9340    1.0410   33.4580 O.2   252  ASP252     -0.2867
    100  CB        38.4100    0.2910   31.9290 C.3   252  ASP252      0.1410
    101  CG        37.1660    0.9250   32.5420 C.2   252  ASP252      0.3668
    102  OD1       37.1520    2.1200   32.9110 O.co2 252  ASP252     -0.2456
    103  OD2       36.1670    0.1790   32.6490 O.co2 252  ASP252     -0.2456
    104  N         38.5280    2.9050   35.3380 N.3   254  SER254     -0.1217
    105  CA        37.6320    2.4530   36.4160 C.3   254  SER254      0.1889
    106  C         37.6860    0.9480   36.5750 C.2   254  SER254      0.2288
    107  O         38.1680    0.2540   35.6990 O.2   254  SER254     -0.2866
    108  CB        36.1690    2.8660   36.1460 C.3   254  SER254      0.2089
    109  OG        35.4840    1.9440   35.3150 O.3   254  SER254     -0.2183
    110  N         35.3350   -0.9940   36.2030 N.3   256  CYS256     -0.1221
    111  CA        34.4760   -1.5130   35.1310 C.3   256  CYS256      0.1808
    112  C         33.1710   -2.1260   35.6630 C.2   256  CYS256      0.2602
    113  O         33.1440   -3.2530   36.1890 O.2   256  CYS256     -0.2717
    114  CB        35.2270   -2.5260   34.2630 C.3   256  CYS256      0.0970
    115  SG        34.2950   -2.9920   32.7490 S.3   256  CYS256     -0.0800
    116  N         32.0790   -1.3840   35.5360 N.am  257  GLY257     -0.1942
    117  CA        30.8010   -1.8640   36.0340 C.3   257  GLY257      0.2014
    118  C         30.1840   -3.0170   35.2400 C.2   257  GLY257      0.2639
    119  O         29.6720   -3.9860   35.8270 O.2   257  GLY257     -0.2714
    120  N         30.2340   -2.9270   33.9220 N.am  258  THR258     -0.1950
    121  CA        29.6740   -3.9770   33.0770 C.3   258  THR258      0.1897
    122  C         30.5390   -5.2370   33.1690 C.2   258  THR258      0.2313
    123  O         30.0110   -6.3400   33.2650 O.2   258  THR258     -0.2863
    124  CB        29.4500   -3.5090   31.6270 C.3   258  THR258      0.1794
    125  OG1       30.6490   -2.9540   31.0970 O.3   258  THR258     -0.2208
    126  CG2       28.3180   -2.4610   31.5500 C.3   258  THR258      0.0378
@<TRIPOS>BOND
     1    21    20    2
     2    20    19    1
     3    18    19    1
     4    19    22    1
     5    22    23    1
     6    13    12    2
     7    91    90    2
     8    90    89    1
     9    12    11    1
    10    23    24    1
    11    25    24    2
    12    10    11    1
    13    89    92    1
    14    89    88    1
    15    69    70    1
    16    11    14    1
    17    24    26   am
    18    77    75   ar
    19    77    79   ar
    20    92    93    1
    21    70    71    1
    22    70    73    1
    23    75    74   ar
    24    14    16    1
    25    14    15    1
    26    80    79    1
    27    79    78   ar
    28    71    72    2
    29    74    73    1
    30    74    76   ar
    31    78    76   ar
    32    93    94    1
    33    95    94    1
    34    27    28    1
    35    15    17    1
    36    57    58    1
    37    59    60    2
    38    59    58    1
    39    58    61    1
    40    30    29    2
    41    28    29    1
    42    28    31    1
    43    32    31    1
    44    29    33   am
    45    61    62    1
    46    62    64   ar
    47    62    63   ar
    48    87    85    1
    49    56    54   am
    50    83    84    2
    51    83    82    1
    52    64    66   ar
    53    63    65   ar
    54    66    67   ar
    55     9     7   ar
    56    65    67   ar
    57    67    68    1
    58    54    55    2
    59    54    53    1
    60    37    34    1
    61    37    38    1
    62    33    34    1
    63    53    50    1
    64    96    97    1
    65    82    85    1
    66    82    81    1
    67    34    35    1
    68    85    86    1
    69   125   124    1
    70     7     8   ar
    71     7     6    1
    72    97   100    1
    73    97    98    1
    74   126   124    1
    75   124   121    1
    76   100   101    1
    77    50    51    1
    78    50    49    1
    79     6     5    1
    80    35    36    2
    81    35    39   am
    82   101   103   ar
    83   101   102   ar
    84    52    51    2
    85   115   114    1
    86    98    99    2
    87    49    45   am
    88    48    47    1
    89   121   122    1
    90   121   120    1
    91     3     2    1
    92     3     4    2
    93   122   123    2
    94    39    40    1
    95     5     2    1
    96     2     1    1
    97   120   118   am
    98    45    46    2
    99    45    44    1
   100   114   111    1
   101    47    44    1
   102    43    44    1
   103    43    41   am
   104    40    41    1
   105    41    42    2
   106   111   112    1
   107   111   110    1
   108   118   119    2
   109   118   117    1
   110   109   108    1
   111   104   105    1
   112   116   112   am
   113   116   117    1
   114   112   113    2
   115   107   106    2
   116   108   105    1
   117   105   106    1
