@<TRIPOS>MOLECULE
tmp/4lb2A01.pdb
 115 112 0 0 0
SMALL
GASTEIGER

@<TRIPOS>ATOM
      1  N        -16.3290   -8.3630   11.7060 N.3   113  ARG113     -0.1231
      2  CA       -16.2190   -9.6710   12.3380 C.3   113  ARG113      0.1679
      3  C        -17.4760   -9.9880   13.1230 C.2   113  ARG113      0.2434
      4  O        -18.1000   -9.0920   13.6930 O.2   113  ARG113     -0.2733
      5  CB       -15.0510   -9.7350   13.3220 C.3   113  ARG113      0.0321
      6  CG       -13.9320   -8.7460   13.1220 C.3   113  ARG113      0.0489
      7  CD       -13.1900   -8.5970   14.4390 C.3   113  ARG113      0.2205
      8  NE       -11.8450   -8.0630   14.2820 N.pl3 113  ARG113     -0.0865
      9  CZ       -11.2040   -7.3880   15.2290 C.cat 113  ARG113      0.5346
     10  NH1      -11.7960   -7.1500   16.3920 N.pl3 113  ARG113      0.1354
     11  NH2       -9.9770   -6.9400   15.0100 N.pl3 113  ARG113      0.1354
     12  N        -17.8490  -11.2730   13.1620 N.am  114  PRO114     -0.2729
     13  CA       -18.8850  -11.7090   14.0940 C.3   114  PRO114      0.1401
     14  C        -18.2540  -11.8440   15.4760 C.2   114  PRO114      0.2269
     15  O        -17.1210  -11.4020   15.6730 O.2   114  PRO114     -0.2865
     16  CB       -19.2840  -13.0790   13.5480 C.3   114  PRO114      0.0296
     17  CG       -18.0490  -13.5860   12.8940 C.3   114  PRO114      0.0237
     18  CD       -17.3640  -12.3760   12.3130 C.3   114  PRO114      0.0939
     19  N        -18.2290  -17.0910   17.8790 N.3   118  VAL118     -0.1231
     20  CA       -18.6790  -17.4710   16.5480 C.3   118  VAL118      0.1692
     21  C        -17.4830  -17.7760   15.6490 C.2   118  VAL118      0.2591
     22  O        -17.4490  -18.8020   14.9710 O.2   118  VAL118     -0.2718
     23  CB       -19.5190  -16.3460   15.9020 C.3   118  VAL118      0.0266
     24  CG1      -19.7770  -16.6450   14.4340 C.3   118  VAL118      0.0020
     25  CG2      -20.8280  -16.1580   16.6490 C.3   118  VAL118      0.0020
     26  N        -16.4980  -16.8800   15.6640 N.am  119  MET119     -0.1979
     27  CA       -15.2920  -17.0260   14.8530 C.3   119  MET119      0.1605
     28  C        -14.4830  -18.2670   15.2110 C.2   119  MET119      0.2287
     29  O        -14.0310  -18.9960   14.3300 O.2   119  MET119     -0.2864
     30  CB       -14.3980  -15.7930   15.0060 C.3   119  MET119      0.0413
     31  CG       -14.9040  -14.5520   14.3040 C.3   119  MET119      0.0598
     32  SD       -13.6390  -13.2720   14.1730 S.3   119  MET119     -0.1393
     33  CE       -13.4030  -12.8510   15.8960 C.3   119  MET119      0.0692
     34  N        -15.4290  -20.9950   16.7540 N.3   121  THR121     -0.1203
     35  CA       -16.1820  -22.1960   16.4120 C.3   121  THR121      0.1994
     36  C        -15.9880  -22.5430   14.9370 C.2   121  THR121      0.2617
     37  O        -15.6280  -23.6710   14.5920 O.2   121  THR121     -0.2717
     38  CB       -17.6910  -22.0200   16.7010 C.3   121  THR121      0.1784
     39  OG1      -17.9230  -22.0490   18.1160 O.3   121  THR121     -0.2211
     40  CG2      -18.4990  -23.1230   16.0310 C.3   121  THR121      0.0376
     41  N        -16.2290  -21.5590   14.0750 N.am  122  ALA122     -0.1979
     42  CA       -16.1100  -21.7300   12.6310 C.3   122  ALA122      0.1597
     43  C        -14.7150  -22.1770   12.1980 C.2   122  ALA122      0.2287
     44  O        -14.5730  -22.9580   11.2580 O.2   122  ALA122     -0.2864
     45  CB       -16.5060  -20.4480   11.9110 C.3   122  ALA122      0.0319
     46  N        -11.2860  -24.2540    4.9200 N.3   129  THR129     -0.1203
     47  CA       -12.2910  -23.4350    4.2610 C.3   129  THR129      0.1994
     48  C        -12.2970  -22.0450    4.8970 C.2   129  THR129      0.2617
     49  O        -12.4920  -21.0370    4.2150 O.2   129  THR129     -0.2717
     50  CB       -13.6890  -24.0800    4.3740 C.3   129  THR129      0.1784
     51  OG1      -13.6750  -25.3700    3.7490 O.3   129  THR129     -0.2211
     52  CG2      -14.7360  -23.2190    3.7040 C.3   129  THR129      0.0376
     53  N        -12.0720  -22.0030    6.2070 N.am  130  PHE130     -0.1975
     54  CA       -11.9980  -20.7470    6.9470 C.3   130  PHE130      0.1639
     55  C        -10.8670  -19.8630    6.4380 C.2   130  PHE130      0.2290
     56  O        -11.0450  -18.6620    6.2470 O.2   130  PHE130     -0.2864
     57  CB       -11.7920  -21.0330    8.4390 C.3   130  PHE130      0.0560
     58  CG       -11.8590  -19.8100    9.3180 C.ar  130  PHE130     -0.0200
     59  CD1      -13.0500  -19.4370    9.9220 C.ar  130  PHE130     -0.0042
     60  CD2      -10.7240  -19.0460    9.5570 C.ar  130  PHE130     -0.0042
     61  CE1      -13.1100  -18.3220   10.7380 C.ar  130  PHE130     -0.0003
     62  CE2      -10.7790  -17.9270   10.3680 C.ar  130  PHE130     -0.0003
     63  CZ       -11.9730  -17.5640   10.9590 C.ar  130  PHE130     -0.0000
     64  N        -11.1160  -18.4940    2.7550 N.3   133  LYS133     -0.1231
     65  CA       -11.9490  -17.3060    2.6770 C.3   133  LYS133      0.1693
     66  C        -11.1890  -16.0680    3.1180 C.2   133  LYS133      0.2592
     67  O        -11.4670  -14.9640    2.6530 O.2   133  LYS133     -0.2718
     68  CB       -13.2060  -17.4700    3.5200 C.3   133  LYS133      0.0285
     69  CG       -14.2080  -18.4390    2.9420 C.3   133  LYS133      0.0035
     70  CD       -15.5130  -18.3110    3.6790 C.3   133  LYS133      0.0206
     71  CE       -16.5770  -19.2270    3.1370 C.3   133  LYS133      0.1093
     72  NZ       -16.4120  -20.5730    3.7180 N.3   133  LYS133     -0.1314
     73  N        -10.2310  -16.2490    4.0200 N.am  134  TYR134     -0.1976
     74  CA        -9.3970  -15.1320    4.4220 C.3   134  TYR134      0.1639
     75  C         -8.6170  -14.6250    3.2190 C.2   134  TYR134      0.2290
     76  O         -8.6730  -13.4390    2.8940 O.2   134  TYR134     -0.2864
     77  CB        -8.4370  -15.5160    5.5420 C.3   134  TYR134      0.0560
     78  CG        -7.3970  -14.4510    5.7570 C.ar  134  TYR134     -0.0198
     79  CD1       -7.7250  -13.2600    6.3870 C.ar  134  TYR134     -0.0009
     80  CD2       -6.0930  -14.6220    5.3100 C.ar  134  TYR134     -0.0009
     81  CE1       -6.7880  -12.2720    6.5720 C.ar  134  TYR134      0.0417
     82  CE2       -5.1450  -13.6380    5.4940 C.ar  134  TYR134      0.0417
     83  CZ        -5.4990  -12.4650    6.1270 C.ar  134  TYR134      0.1957
     84  OH        -4.5620  -11.4750    6.3170 O.3   134  TYR134     -0.2866
     85  N         -2.7290  -15.6860   10.8040 N.3   157  TYR157     -0.1241
     86  CA        -4.1410  -15.7550   11.1700 C.3   157  TYR157      0.1605
     87  C         -4.4760  -17.1410   11.7010 C.2   157  TYR157      0.2264
     88  O         -5.2020  -17.2850   12.6860 O.2   157  TYR157     -0.2867
     89  CB        -5.0300  -15.4320    9.9690 C.3   157  TYR157      0.0534
     90  CG        -5.5320  -14.0080    9.9430 C.ar  157  TYR157     -0.0201
     91  CD1       -4.7680  -12.9890    9.3890 C.ar  157  TYR157     -0.0009
     92  CD2       -6.7750  -13.6830   10.4710 C.ar  157  TYR157     -0.0009
     93  CE1       -5.2250  -11.6830    9.3690 C.ar  157  TYR157      0.0417
     94  CE2       -7.2410  -12.3810   10.4520 C.ar  157  TYR157      0.0417
     95  CZ        -6.4640  -11.3860    9.8980 C.ar  157  TYR157      0.1957
     96  OH        -6.9280  -10.0890    9.8780 O.3   157  TYR157     -0.2866
     97  N         -5.9180  -17.9030   15.7080 N.3   161  PHE161     -0.1241
     98  CA        -7.1320  -18.6310   16.0490 C.3   161  PHE161      0.1605
     99  C         -6.8230  -19.9480   16.7610 C.2   161  PHE161      0.2264
    100  O         -7.4940  -20.3070   17.7240 O.2   161  PHE161     -0.2867
    101  CB        -7.9890  -18.8570   14.8040 C.3   161  PHE161      0.0534
    102  CG        -8.8060  -17.6600   14.4160 C.ar  161  PHE161     -0.0203
    103  CD1       -9.9720  -17.3510   15.0990 C.ar  161  PHE161     -0.0042
    104  CD2       -8.3940  -16.8270   13.3880 C.ar  161  PHE161     -0.0042
    105  CE1      -10.7250  -16.2440   14.7480 C.ar  161  PHE161     -0.0003
    106  CE2       -9.1390  -15.7160   13.0350 C.ar  161  PHE161     -0.0003
    107  CZ       -10.3060  -15.4240   13.7170 C.ar  161  PHE161     -0.0000
    108  N         -5.8510   -9.9620   15.8350 N.3   178  LEU178     -0.1245
    109  CA        -6.6450   -9.6430   14.6520 C.3   178  LEU178      0.1561
    110  C         -6.5120   -8.1800   14.2420 C.2   178  LEU178      0.2260
    111  O         -6.5040   -7.8600   13.0540 O.2   178  LEU178     -0.2867
    112  CB        -8.1170   -9.9890   14.8880 C.3   178  LEU178      0.0270
    113  CG        -8.4280  -11.4760   15.0730 C.3   178  LEU178      0.0019
    114  CD1       -9.9250  -11.7250   15.1000 C.3   178  LEU178      0.0001
    115  CD2       -7.7680  -12.2970   13.9810 C.3   178  LEU178      0.0001
@<TRIPOS>BOND
     1    67    66    2
     2    65    64    1
     3    65    66    1
     4    65    68    1
     5    76    75    2
     6    69    68    1
     7    69    70    1
     8    66    73   am
     9    71    70    1
    10    71    72    1
    11    75    74    1
    12    52    50    1
    13    51    50    1
    14    73    74    1
    15    49    48    2
    16    47    50    1
    17    47    48    1
    18    47    46    1
    19    74    77    1
    20    48    53   am
    21    80    82   ar
    22    80    78   ar
    23    82    83   ar
    24    77    78    1
    25    78    79   ar
    26    83    84    1
    27    83    81   ar
    28    53    54    1
    29    56    55    2
    30    79    81   ar
    31    55    54    1
    32    54    57    1
    33    57    58    1
    34    58    60   ar
    35    58    59   ar
    36    93    91   ar
    37    93    95   ar
    38    91    90   ar
    39    60    62   ar
    40    96    95    1
    41    95    94   ar
    42    59    61   ar
    43    90    89    1
    44    90    92   ar
    45    89    86    1
    46    62    63   ar
    47    94    92   ar
    48    61    63   ar
    49    85    86    1
    50    86    87    1
    51    44    43    2
    52    87    88    2
    53     1     2    1
    54    45    42    1
    55    43    42    1
    56    18    17    1
    57    18    12    1
    58     2     3    1
    59     2     5    1
    60    42    41    1
    61    17    16    1
    62   106   104   ar
    63   106   107   ar
    64   111   110    2
    65     6     5    1
    66     6     7    1
    67     3    12   am
    68     3     4    2
    69    12    13    1
    70   104   102   ar
    71    16    13    1
    72   107   105   ar
    73   115   113    1
    74    41    36   am
    75    13    14    1
    76    32    31    1
    77    32    33    1
    78   110   109    1
    79     8     7    1
    80     8     9    2
    81    31    30    1
    82    29    28    2
    83   102   101    1
    84   102   103   ar
    85    24    23    1
    86    37    36    2
    87   109   112    1
    88   109   108    1
    89   105   103   ar
    90   101    98    1
    91    27    30    1
    92    27    28    1
    93    27    26    1
    94   112   113    1
    95    36    35    1
    96    22    21    2
    97    11     9    1
    98   113   114    1
    99     9    10    1
   100    14    15    2
   101    21    26   am
   102    21    20    1
   103    97    98    1
   104    23    20    1
   105    23    25    1
   106    40    38    1
   107    98    99    1
   108    35    38    1
   109    35    34    1
   110    20    19    1
   111    38    39    1
   112    99   100    2
