@<TRIPOS>MOLECULE
tmp/4lb2A00.pdb
 171 168 0 0 0
SMALL
GASTEIGER

@<TRIPOS>ATOM
      1  N        -16.9640  -16.7100   -3.2890 N.3    32  PHE32      -0.1227
      2  CA       -15.9560  -17.6770   -2.8610 C.3    32  PHE32       0.1736
      3  C        -16.1600  -19.0450   -3.5100 C.2    32  PHE32       0.2595
      4  O        -15.2370  -19.6100   -4.0940 O.2    32  PHE32      -0.2718
      5  CB       -16.0080  -17.8060   -1.3360 C.3    32  PHE32       0.0547
      6  CG       -15.1060  -18.8680   -0.7710 C.ar   32  PHE32      -0.0202
      7  CD1      -13.7300  -18.6990   -0.7580 C.ar   32  PHE32      -0.0042
      8  CD2      -15.6410  -20.0270   -0.2280 C.ar   32  PHE32      -0.0042
      9  CE1      -12.9020  -19.6730   -0.2250 C.ar   32  PHE32      -0.0003
     10  CE2      -14.8220  -21.0020    0.3070 C.ar   32  PHE32      -0.0003
     11  CZ       -13.4500  -20.8250    0.3120 C.ar   32  PHE32      -0.0000
     12  N        -17.3840  -19.5550   -3.4080 N.am   33  GLU33      -0.1979
     13  CA       -17.7480  -20.8760   -3.9160 C.3    33  GLU33       0.1602
     14  C        -17.3610  -21.0940   -5.3780 C.2    33  GLU33       0.2287
     15  O        -16.8660  -22.1610   -5.7410 O.2    33  GLU33      -0.2864
     16  CB       -19.2510  -21.1130   -3.7380 C.3    33  GLU33       0.0415
     17  CG       -20.0020  -19.9490   -3.0990 C.3    33  GLU33       0.1163
     18  CD       -19.7540  -19.8370   -1.6070 C.2    33  GLU33       0.3649
     19  OE1      -19.2880  -20.8280   -1.0060 O.co2  33  GLU33      -0.2457
     20  OE2      -20.0210  -18.7580   -1.0360 O.co2  33  GLU33      -0.2457
     21  N        -18.6820   -4.0220    3.5890 N.3   110  ARG110     -0.1231
     22  CA       -17.7670   -3.8210    4.6960 C.3   110  ARG110      0.1694
     23  C        -17.5810   -5.1620    5.3860 C.2   110  ARG110      0.2592
     24  O        -18.5190   -5.9560    5.4760 O.2   110  ARG110     -0.2718
     25  CB       -18.3570   -2.8160    5.6810 C.3   110  ARG110      0.0321
     26  CG       -17.4470   -2.4670    6.8410 C.3   110  ARG110      0.0489
     27  CD       -16.3190   -1.5450    6.4230 C.3   110  ARG110      0.2205
     28  NE       -15.5740   -1.0700    7.5840 N.pl3 110  ARG110     -0.0865
     29  CZ       -16.0180   -0.1410    8.4250 C.cat 110  ARG110      0.5346
     30  NH1      -17.2080    0.4170    8.2370 N.pl3 110  ARG110      0.1354
     31  NH2      -15.2750    0.2290    9.4590 N.pl3 110  ARG110      0.1354
     32  N        -16.3730   -5.4190    5.8730 N.am  111  LEU111     -0.1966
     33  CA       -16.0830   -6.7020    6.4940 C.3   111  LEU111      0.1728
     34  C        -16.0120   -6.5570    8.0100 C.2   111  LEU111      0.2616
     35  O        -14.9770   -6.1940    8.5670 O.2   111  LEU111     -0.2715
     36  CB       -14.7980   -7.3080    5.9270 C.3   111  LEU111      0.0311
     37  CG       -14.8340   -8.8280    5.7520 C.3   111  LEU111      0.0022
     38  CD1      -16.1850   -9.2740    5.2070 C.3   111  LEU111      0.0001
     39  CD2      -13.7160   -9.2920    4.8350 C.3   111  LEU111      0.0001
     40  N        -17.1300   -6.8480    8.6650 N.am  112  VAL112     -0.1963
     41  CA       -17.2340   -6.7600   10.1160 C.3   112  VAL112      0.1727
     42  C        -17.2210   -8.1500   10.7420 C.2   112  VAL112      0.2616
     43  O        -17.9940   -9.0220   10.3450 O.2   112  VAL112     -0.2715
     44  CB       -18.5210   -6.0120   10.5330 C.3   112  VAL112      0.0290
     45  CG1      -19.6940   -6.4280    9.6550 C.3   112  VAL112      0.0023
     46  CG2      -18.8310   -6.2440   12.0050 C.3   112  VAL112      0.0023
     47  N        -16.3290   -8.3630   11.7060 N.am  113  ARG113     -0.1964
     48  CA       -16.2190   -9.6710   12.3380 C.3   113  ARG113      0.1714
     49  C        -17.4760   -9.9880   13.1230 C.2   113  ARG113      0.2458
     50  O        -18.1000   -9.0920   13.6930 O.2   113  ARG113     -0.2730
     51  CB       -15.0510   -9.7350   13.3220 C.3   113  ARG113      0.0347
     52  CG       -13.9320   -8.7460   13.1220 C.3   113  ARG113      0.0492
     53  CD       -13.1900   -8.5970   14.4390 C.3   113  ARG113      0.2205
     54  NE       -11.8450   -8.0630   14.2820 N.pl3 113  ARG113     -0.0865
     55  CZ       -11.2040   -7.3880   15.2290 C.cat 113  ARG113      0.5346
     56  NH1      -11.7960   -7.1500   16.3920 N.pl3 113  ARG113      0.1354
     57  NH2       -9.9770   -6.9400   15.0100 N.pl3 113  ARG113      0.1354
     58  N        -17.8490  -11.2730   13.1620 N.am  114  PRO114     -0.2727
     59  CA       -18.8850  -11.7090   14.0940 C.3   114  PRO114      0.1402
     60  C        -18.2540  -11.8440   15.4760 C.2   114  PRO114      0.2269
     61  O        -17.1210  -11.4020   15.6730 O.2   114  PRO114     -0.2865
     62  CB       -19.2840  -13.0790   13.5480 C.3   114  PRO114      0.0296
     63  CG       -18.0490  -13.5860   12.8940 C.3   114  PRO114      0.0237
     64  CD       -17.3640  -12.3760   12.3130 C.3   114  PRO114      0.0939
     65  N        -18.2290  -17.0910   17.8790 N.3   118  VAL118     -0.1231
     66  CA       -18.6790  -17.4710   16.5480 C.3   118  VAL118      0.1692
     67  C        -17.4830  -17.7760   15.6490 C.2   118  VAL118      0.2591
     68  O        -17.4490  -18.8020   14.9710 O.2   118  VAL118     -0.2718
     69  CB       -19.5190  -16.3460   15.9020 C.3   118  VAL118      0.0266
     70  CG1      -19.7770  -16.6450   14.4340 C.3   118  VAL118      0.0020
     71  CG2      -20.8280  -16.1580   16.6490 C.3   118  VAL118      0.0020
     72  N        -16.4980  -16.8800   15.6640 N.am  119  MET119     -0.1979
     73  CA       -15.2920  -17.0260   14.8530 C.3   119  MET119      0.1605
     74  C        -14.4830  -18.2670   15.2110 C.2   119  MET119      0.2287
     75  O        -14.0310  -18.9960   14.3300 O.2   119  MET119     -0.2864
     76  CB       -14.3980  -15.7930   15.0060 C.3   119  MET119      0.0413
     77  CG       -14.9040  -14.5520   14.3040 C.3   119  MET119      0.0598
     78  SD       -13.6390  -13.2720   14.1730 S.3   119  MET119     -0.1393
     79  CE       -13.4030  -12.8510   15.8960 C.3   119  MET119      0.0692
     80  N        -12.0720  -22.0030    6.2070 N.3   130  PHE130     -0.1241
     81  CA       -11.9980  -20.7470    6.9470 C.3   130  PHE130      0.1605
     82  C        -10.8670  -19.8630    6.4380 C.2   130  PHE130      0.2264
     83  O        -11.0450  -18.6620    6.2470 O.2   130  PHE130     -0.2867
     84  CB       -11.7920  -21.0330    8.4390 C.3   130  PHE130      0.0534
     85  CG       -11.8590  -19.8100    9.3180 C.ar  130  PHE130     -0.0203
     86  CD1      -13.0500  -19.4370    9.9220 C.ar  130  PHE130     -0.0042
     87  CD2      -10.7240  -19.0460    9.5570 C.ar  130  PHE130     -0.0042
     88  CE1      -13.1100  -18.3220   10.7380 C.ar  130  PHE130     -0.0003
     89  CE2      -10.7790  -17.9270   10.3680 C.ar  130  PHE130     -0.0003
     90  CZ       -11.9730  -17.5640   10.9590 C.ar  130  PHE130     -0.0000
     91  N        -11.1160  -18.4940    2.7550 N.3   133  LYS133     -0.1231
     92  CA       -11.9490  -17.3060    2.6770 C.3   133  LYS133      0.1693
     93  C        -11.1890  -16.0680    3.1180 C.2   133  LYS133      0.2592
     94  O        -11.4670  -14.9640    2.6530 O.2   133  LYS133     -0.2718
     95  CB       -13.2060  -17.4700    3.5200 C.3   133  LYS133      0.0285
     96  CG       -14.2080  -18.4390    2.9420 C.3   133  LYS133      0.0035
     97  CD       -15.5130  -18.3110    3.6790 C.3   133  LYS133      0.0206
     98  CE       -16.5770  -19.2270    3.1370 C.3   133  LYS133      0.1093
     99  NZ       -16.4120  -20.5730    3.7180 N.3   133  LYS133     -0.1314
    100  N        -10.2310  -16.2490    4.0200 N.am  134  TYR134     -0.1976
    101  CA        -9.3970  -15.1320    4.4220 C.3   134  TYR134      0.1639
    102  C         -8.6170  -14.6250    3.2190 C.2   134  TYR134      0.2290
    103  O         -8.6730  -13.4390    2.8940 O.2   134  TYR134     -0.2864
    104  CB        -8.4370  -15.5160    5.5420 C.3   134  TYR134      0.0560
    105  CG        -7.3970  -14.4510    5.7570 C.ar  134  TYR134     -0.0198
    106  CD1       -7.7250  -13.2600    6.3870 C.ar  134  TYR134     -0.0009
    107  CD2       -6.0930  -14.6220    5.3100 C.ar  134  TYR134     -0.0009
    108  CE1       -6.7880  -12.2720    6.5720 C.ar  134  TYR134      0.0417
    109  CE2       -5.1450  -13.6380    5.4940 C.ar  134  TYR134      0.0417
    110  CZ        -5.4990  -12.4650    6.1270 C.ar  134  TYR134      0.1957
    111  OH        -4.5620  -11.4750    6.3170 O.3   134  TYR134     -0.2866
    112  N         -9.2510  -15.2110    0.1580 N.3   136  TYR136     -0.1227
    113  CA       -10.2560  -14.7410   -0.7820 C.3   136  TYR136      0.1736
    114  C        -10.6490  -13.2850   -0.5460 C.2   136  TYR136      0.2595
    115  O        -10.5990  -12.4690   -1.4650 O.2   136  TYR136     -0.2718
    116  CB       -11.4890  -15.6410   -0.7160 C.3   136  TYR136      0.0548
    117  CG       -12.6950  -15.0800   -1.4250 C.ar  136  TYR136     -0.0200
    118  CD1      -12.7920  -15.1090   -2.8100 C.ar  136  TYR136     -0.0009
    119  CD2      -13.7460  -14.5270   -0.7060 C.ar  136  TYR136     -0.0009
    120  CE1      -13.8990  -14.5940   -3.4560 C.ar  136  TYR136      0.0417
    121  CE2      -14.8540  -14.0140   -1.3410 C.ar  136  TYR136      0.0417
    122  CZ       -14.9260  -14.0490   -2.7140 C.ar  136  TYR136      0.1957
    123  OH       -16.0320  -13.5350   -3.3460 O.3   136  TYR136     -0.2866
    124  N        -11.0260  -12.9610    0.6860 N.am  137  GLU137     -0.1965
    125  CA       -11.5840  -11.6450    0.9840 C.3   137  GLU137      0.1733
    126  C        -10.5490  -10.5240    0.9750 C.2   137  GLU137      0.2616
    127  O        -10.8710   -9.3790    0.6580 O.2   137  GLU137     -0.2715
    128  CB       -12.3370  -11.6670    2.3130 C.3   137  GLU137      0.0429
    129  CG       -13.5590  -12.5670    2.3060 C.3   137  GLU137      0.1163
    130  CD       -14.7290  -11.9870    1.5400 C.2   137  GLU137      0.3649
    131  OE1      -14.6280  -10.8410    1.0590 O.co2 137  GLU137     -0.2457
    132  OE2      -15.7580  -12.6820    1.4220 O.co2 137  GLU137     -0.2457
    133  N         -9.3090  -10.8480    1.3240 N.am  138  ILE138     -0.1977
    134  CA        -8.2440   -9.8570    1.2780 C.3   138  ILE138      0.1596
    135  C         -7.8050   -9.6010   -0.1660 C.2   138  ILE138      0.2287
    136  O         -7.5970   -8.4580   -0.5630 O.2   138  ILE138     -0.2864
    137  CB        -7.0250  -10.2870    2.1240 C.3   138  ILE138      0.0276
    138  CG1       -7.4360  -10.5360    3.5760 C.3   138  ILE138      0.0022
    139  CG2       -5.9300   -9.2310    2.0640 C.3   138  ILE138      0.0022
    140  CD1       -8.0620   -9.3340    4.2510 C.3   138  ILE138      0.0001
    141  N         -2.7290  -15.6860   10.8040 N.3   157  TYR157     -0.1241
    142  CA        -4.1410  -15.7550   11.1700 C.3   157  TYR157      0.1605
    143  C         -4.4760  -17.1410   11.7010 C.2   157  TYR157      0.2264
    144  O         -5.2020  -17.2850   12.6860 O.2   157  TYR157     -0.2867
    145  CB        -5.0300  -15.4320    9.9690 C.3   157  TYR157      0.0534
    146  CG        -5.5320  -14.0080    9.9430 C.ar  157  TYR157     -0.0201
    147  CD1       -4.7680  -12.9890    9.3890 C.ar  157  TYR157     -0.0009
    148  CD2       -6.7750  -13.6830   10.4710 C.ar  157  TYR157     -0.0009
    149  CE1       -5.2250  -11.6830    9.3690 C.ar  157  TYR157      0.0417
    150  CE2       -7.2410  -12.3810   10.4520 C.ar  157  TYR157      0.0417
    151  CZ        -6.4640  -11.3860    9.8980 C.ar  157  TYR157      0.1957
    152  OH        -6.9280  -10.0890    9.8780 O.3   157  TYR157     -0.2866
    153  N         -5.8510   -9.9620   15.8350 N.3   178  LEU178     -0.1245
    154  CA        -6.6450   -9.6430   14.6520 C.3   178  LEU178      0.1561
    155  C         -6.5120   -8.1800   14.2420 C.2   178  LEU178      0.2260
    156  O         -6.5040   -7.8600   13.0540 O.2   178  LEU178     -0.2867
    157  CB        -8.1170   -9.9890   14.8880 C.3   178  LEU178      0.0270
    158  CG        -8.4280  -11.4760   15.0730 C.3   178  LEU178      0.0019
    159  CD1       -9.9250  -11.7250   15.1000 C.3   178  LEU178      0.0001
    160  CD2       -7.7680  -12.2970   13.9810 C.3   178  LEU178      0.0001
    161  N         -4.5210   -6.8360   10.8760 N.3   182  ARG182     -0.1245
    162  CA        -5.3260   -6.0100    9.9920 C.3   182  ARG182      0.1563
    163  C         -4.5360   -4.7730    9.5770 C.2   182  ARG182      0.2260
    164  O         -4.4730   -4.4330    8.3940 O.2   182  ARG182     -0.2867
    165  CB        -6.6050   -5.5800   10.7060 C.3   182  ARG182      0.0307
    166  CG        -7.5190   -4.6840    9.8920 C.3   182  ARG182      0.0489
    167  CD        -8.5440   -4.0470   10.8050 C.3   182  ARG182      0.2205
    168  NE        -7.8800   -3.1880   11.7830 N.pl3 182  ARG182     -0.0865
    169  CZ        -8.3790   -2.8720   12.9740 C.cat 182  ARG182      0.5346
    170  NH1       -9.5510   -3.3600   13.3590 N.pl3 182  ARG182      0.1354
    171  NH2       -7.6940   -2.0800   13.7880 N.pl3 182  ARG182      0.1354
@<TRIPOS>BOND
     1    15    14    2
     2    14    13    1
     3     4     3    2
     4    13    16    1
     5    13    12    1
     6    16    17    1
     7     3    12   am
     8     3     2    1
     9   120   118   ar
    10   120   122   ar
    11   123   122    1
    12     1     2    1
    13    17    18    1
    14     2     5    1
    15   118   117   ar
    16   122   121   ar
    17    18    20   ar
    18    18    19   ar
    19   115   114    2
    20   117   116    1
    21   117   119   ar
    22   121   119   ar
    23     5     6    1
    24   113   116    1
    25   113   114    1
    26   113   112    1
    27     6     7   ar
    28     6     8   ar
    29     7     9   ar
    30   136   135    2
    31   114   124   am
    32     8    10   ar
    33     9    11   ar
    34   135   134    1
    35    10    11   ar
    36   127   126    2
    37   124   125    1
    38   126   125    1
    39   126   133   am
    40   125   128    1
    41   131   130   ar
    42   134   133    1
    43   134   137    1
    44   132   130   ar
    45   130   129    1
    46   139   137    1
    47   137   138    1
    48   129   128    1
    49    94    93    2
    50    92    91    1
    51    92    93    1
    52    92    95    1
    53   103   102    2
    54    96    95    1
    55    96    97    1
    56    93   100   am
    57    98    97    1
    58    98    99    1
    59   102   101    1
    60   138   140    1
    61    21    22    1
    62   100   101    1
    63   101   104    1
    64    22    23    1
    65    22    25    1
    66    39    37    1
    67    38    37    1
    68   107   109   ar
    69   107   105   ar
    70    23    24    2
    71    23    32   am
    72   109   110   ar
    73   104   105    1
    74    25    26    1
    75    37    36    1
    76   105   106   ar
    77    32    33    1
    78    36    33    1
    79   110   111    1
    80   110   108   ar
    81    80    81    1
    82    83    82    2
    83   106   108   ar
    84    27    26    1
    85    27    28    1
    86    82    81    1
    87    33    34    1
    88    81    84    1
    89    28    29    2
    90    34    35    2
    91    34    40   am
    92    30    29    1
    93   164   163    2
    94    29    31    1
    95    84    85    1
    96    40    41    1
    97    85    87   ar
    98    85    86   ar
    99   149   147   ar
   100   149   151   ar
   101   147   146   ar
   102    87    89   ar
   103   163   162    1
   104    45    44    1
   105   152   151    1
   106   166   165    1
   107   166   167    1
   108   151   150   ar
   109    86    88   ar
   110   146   145    1
   111   146   148   ar
   112   145   142    1
   113   162   165    1
   114   162   161    1
   115    41    44    1
   116    41    42    1
   117    43    42    2
   118    89    90   ar
   119   150   148   ar
   120    44    46    1
   121    88    90   ar
   122    42    47   am
   123   141   142    1
   124   167   168    1
   125   142   143    1
   126   143   144    2
   127    47    48    1
   128   168   169    2
   129    64    63    1
   130    64    58    1
   131    48    49    1
   132    48    51    1
   133    63    62    1
   134   169   170    1
   135   169   171    1
   136   156   155    2
   137    52    51    1
   138    52    53    1
   139    49    58   am
   140    49    50    2
   141    58    59    1
   142    62    59    1
   143   160   158    1
   144    59    60    1
   145    78    77    1
   146    78    79    1
   147   155   154    1
   148    54    53    1
   149    54    55    2
   150    77    76    1
   151    75    74    2
   152    70    69    1
   153   154   157    1
   154   154   153    1
   155    73    76    1
   156    73    74    1
   157    73    72    1
   158   157   158    1
   159    68    67    2
   160    57    55    1
   161   158   159    1
   162    55    56    1
   163    60    61    2
   164    67    72   am
   165    67    66    1
   166    69    66    1
   167    69    71    1
   168    66    65    1
