@<TRIPOS>MOLECULE
tmp/4lb4A01.pdb
 204 207 0 0 0
SMALL
GASTEIGER

@<TRIPOS>ATOM
      1  N          8.4570   -8.6310   -1.9090 N.3    21  TRP21      -0.1241
      2  CA         7.9930   -9.3490   -0.7190 C.3    21  TRP21       0.1605
      3  C          6.8800  -10.3180   -1.1320 C.2    21  TRP21       0.2264
      4  O          5.9180   -9.9160   -1.7940 O.2    21  TRP21      -0.2867
      5  CB         7.4820   -8.3670    0.3360 C.3    21  TRP21       0.0550
      6  CG         6.8400   -9.0110    1.5340 C.ar   21  TRP21       0.0003
      7  CD1        7.2200  -10.1660    2.1750 C.ar   21  TRP21       0.0946
      8  CD2        5.6620   -8.5470    2.2000 C.ar   21  TRP21       0.0152
      9  NE1        6.3300  -10.4440    3.1950 N.ar   21  TRP21      -0.2442
     10  CE2        5.3680   -9.4660    3.2280 C.ar   21  TRP21       0.0810
     11  CE3        4.8270   -7.4320    2.0220 C.ar   21  TRP21       0.0012
     12  CZ2        4.2730   -9.3060    4.0780 C.ar   21  TRP21       0.0191
     13  CZ3        3.7370   -7.2800    2.8570 C.ar   21  TRP21       0.0001
     14  CH2        3.4680   -8.2130    3.8730 C.ar   21  TRP21       0.0015
     15  N         15.0590   -9.9490    4.7250 N.3    48  VAL48      -0.1231
     16  CA        14.0180  -10.6800    5.4350 C.3    48  VAL48       0.1692
     17  C         13.0310  -11.3560    4.4680 C.2    48  VAL48       0.2592
     18  O         12.3080  -12.2700    4.8610 O.2    48  VAL48      -0.2718
     19  CB        13.2990   -9.7390    6.4370 C.3    48  VAL48       0.0266
     20  CG1       12.3470   -8.7970    5.7300 C.3    48  VAL48       0.0020
     21  CG2       12.5860  -10.5190    7.5430 C.3    48  VAL48       0.0020
     22  N         12.9920  -10.9160    3.2050 N.am   49  TYR49      -0.1962
     23  CA        12.0900  -11.5260    2.2270 C.3    49  TYR49       0.1771
     24  C         12.5530  -12.9290    1.7980 C.2    49  TYR49       0.2619
     25  O         11.7710  -13.6660    1.1960 O.2    49  TYR49      -0.2715
     26  CB        11.8930  -10.6290    0.9900 C.3    49  TYR49       0.0574
     27  CG        11.3150   -9.2570    1.2870 C.ar   49  TYR49      -0.0198
     28  CD1       10.7020   -8.9590    2.5070 C.ar   49  TYR49      -0.0009
     29  CD2       11.3910   -8.2430    0.3330 C.ar   49  TYR49      -0.0009
     30  CE1       10.2120   -7.6780    2.7760 C.ar   49  TYR49       0.0417
     31  CE2       10.8950   -6.9680    0.5850 C.ar   49  TYR49       0.0417
     32  CZ        10.3190   -6.6830    1.8120 C.ar   49  TYR49       0.1957
     33  OH         9.8670   -5.3990    2.0560 O.3    49  TYR49      -0.2866
     34  N         13.8150  -13.2740    2.0810 N.am   50  GLN50      -0.1977
     35  CA        14.3620  -14.6260    1.8750 C.3    50  GLN50       0.1601
     36  C         14.4610  -15.0290    0.4070 C.2    50  GLN50       0.2287
     37  O         14.5150  -16.2110    0.0900 O.2    50  GLN50      -0.2864
     38  CB        13.6090  -15.7050    2.6800 C.3    50  GLN50       0.0394
     39  CG        13.6450  -15.4680    4.1850 C.3    50  GLN50       0.0908
     40  CD        13.0000  -16.5820    5.0220 C.2    50  GLN50       0.2608
     41  OE1       12.2240  -16.3100    5.9330 O.2    50  GLN50      -0.2717
     42  NE2       13.3290  -17.8360    4.7190 N.am   50  GLN50      -0.0878
     43  N         17.7320   -5.6550    8.2340 N.3    80  TRP80      -0.1227
     44  CA        16.7110   -6.2370    9.0870 C.3    80  TRP80       0.1737
     45  C         16.9450   -5.8680   10.5680 C.2    80  TRP80       0.2595
     46  O         18.0480   -5.4880   10.9900 O.2    80  TRP80      -0.2718
     47  CB        16.5550   -7.7650    8.8450 C.3    80  TRP80       0.0564
     48  CG        15.4040   -8.2950    9.6480 C.ar   80  TRP80       0.0003
     49  CD1       15.4630   -9.1510   10.7190 C.ar   80  TRP80       0.0946
     50  CD2       14.0440   -7.8570    9.5570 C.ar   80  TRP80       0.0152
     51  NE1       14.2210   -9.2740   11.2960 N.ar   80  TRP80      -0.2442
     52  CE2       13.3310   -8.4920   10.6060 C.ar   80  TRP80       0.0810
     53  CE3       13.3540   -6.9920    8.6960 C.ar   80  TRP80       0.0012
     54  CZ2       11.9630   -8.2930   10.8000 C.ar   80  TRP80       0.0191
     55  CZ3       12.0000   -6.7990    8.8850 C.ar   80  TRP80       0.0001
     56  CH2       11.3170   -7.4510    9.9280 C.ar   80  TRP80       0.0015
     57  N         15.8750   -5.9910   11.3540 N.am   81  CYS81      -0.1970
     58  CA        15.8290   -5.5280   12.7350 C.3    81  CYS81       0.1712
     59  C         16.8230   -6.2160   13.6700 C.2    81  CYS81       0.2296
     60  O         17.2120   -5.6280   14.6740 O.2    81  CYS81      -0.2864
     61  CB        14.4190   -5.7220   13.2840 C.3    81  CYS81       0.0983
     62  SG        13.1590   -4.8040   12.3690 S.3    81  CYS81      -0.0798
     63  N         15.0810   -1.0310    7.8110 N.3   111  HIS111     -0.1226
     64  CA        13.7860   -1.5930    7.4110 C.3   111  HIS111      0.1752
     65  C         12.6460   -1.1510    8.3370 C.2   111  HIS111      0.2596
     66  O         11.5570   -0.8070    7.8700 O.2   111  HIS111     -0.2718
     67  CB        13.9110   -3.1210    7.3490 C.3   111  HIS111      0.0759
     68  CG        12.8810   -3.8060    6.5140 C.ar  111  HIS111      0.0818
     69  ND1       13.1520   -4.9890    5.8620 N.ar  111  HIS111     -0.2268
     70  CD2       11.5830   -3.4930    6.2580 C.ar  111  HIS111      0.1154
     71  CE1       12.0480   -5.3660    5.2360 C.ar  111  HIS111      0.1986
     72  NE2       11.0810   -4.4820    5.4590 N.ar  111  HIS111     -0.2212
     73  N         12.9060   -1.2110    9.6420 N.am  112  TRP112     -0.1976
     74  CA        11.9840   -0.7400   10.6750 C.3   112  TRP112      0.1640
     75  C         12.8270   -0.0270   11.7330 C.2   112  TRP112      0.2290
     76  O         13.9960   -0.3630   11.9280 O.2   112  TRP112     -0.2864
     77  CB        11.2100   -1.9200   11.3440 C.3   112  TRP112      0.0576
     78  CG        10.2230   -2.5720   10.4140 C.ar  112  TRP112      0.0006
     79  CD1       10.4710   -3.5590    9.4970 C.ar  112  TRP112      0.0946
     80  CD2        8.8490   -2.2250   10.2650 C.ar  112  TRP112      0.0152
     81  NE1        9.3300   -3.8400    8.7770 N.ar  112  TRP112     -0.2442
     82  CE2        8.3230   -3.0260    9.2270 C.ar  112  TRP112      0.0810
     83  CE3        8.0060   -1.3130   10.9070 C.ar  112  TRP112      0.0012
     84  CZ2        7.0110   -2.9190    8.8010 C.ar  112  TRP112      0.0191
     85  CZ3        6.6930   -1.2190   10.4920 C.ar  112  TRP112      0.0001
     86  CH2        6.2100   -2.0120    9.4450 C.ar  112  TRP112      0.0015
     87  N         12.8120   -0.2950   14.8680 N.3   114  THR114     -0.1218
     88  CA        13.0150   -1.1480   16.0310 C.3   114  THR114      0.1862
     89  C         14.1650   -2.1470   15.8370 C.2   114  THR114      0.2287
     90  O         14.1640   -2.9190   14.8770 O.2   114  THR114     -0.2866
     91  CB        11.7320   -1.9790   16.2530 C.3   114  THR114      0.1770
     92  OG1       11.3950   -2.6270   15.0240 O.3   114  THR114     -0.2211
     93  CG2       10.5550   -1.1090   16.6430 C.3   114  THR114      0.0375
     94  N         15.9360   -5.6090   17.1970 N.3   116  PHE116     -0.1241
     95  CA        15.6200   -6.8380   17.9030 C.3   116  PHE116      0.1605
     96  C         16.9120   -7.5650   18.2920 C.2   116  PHE116      0.2264
     97  O         17.9570   -7.3800   17.6610 O.2   116  PHE116     -0.2867
     98  CB        14.8300   -7.8300   17.0330 C.3   116  PHE116      0.0534
     99  CG        13.5380   -7.3260   16.4220 C.ar  116  PHE116     -0.0203
    100  CD1       12.8610   -6.2010   16.8700 C.ar  116  PHE116     -0.0042
    101  CD2       12.9880   -8.0620   15.3720 C.ar  116  PHE116     -0.0042
    102  CE1       11.6760   -5.8000   16.2410 C.ar  116  PHE116     -0.0003
    103  CE2       11.8190   -7.6710   14.7520 C.ar  116  PHE116     -0.0003
    104  CZ        11.1610   -6.5370   15.1790 C.ar  116  PHE116     -0.0000
    105  N         12.3690  -12.7960   14.1560 N.3   123  PHE123     -0.1241
    106  CA        11.4750  -12.2550   15.1770 C.3   123  PHE123      0.1605
    107  C         11.6910  -13.0210   16.4820 C.2   123  PHE123      0.2264
    108  O         10.9120  -13.9070   16.8240 O.2   123  PHE123     -0.2867
    109  CB        10.0070  -12.3500   14.7500 C.3   123  PHE123      0.0534
    110  CG         9.6320  -11.3930   13.6470 C.ar  123  PHE123     -0.0203
    111  CD1        9.1430  -10.1260   13.9460 C.ar  123  PHE123     -0.0042
    112  CD2        9.7780  -11.7490   12.3180 C.ar  123  PHE123     -0.0042
    113  CE1        8.7860   -9.2450   12.9410 C.ar  123  PHE123     -0.0003
    114  CE2        9.4250  -10.8660   11.3050 C.ar  123  PHE123     -0.0003
    115  CZ         8.9210   -9.6180   11.6230 C.ar  123  PHE123     -0.0000
    116  N          9.3340    3.0270    7.5010 N.3   161  ASN161     -0.1240
    117  CA         8.4090    2.9280    8.6310 C.3   161  ASN161      0.1653
    118  C          8.8190    3.8070    9.8140 C.2   161  ASN161      0.2266
    119  O          8.5480    3.4650   10.9740 O.2   161  ASN161     -0.2867
    120  CB         8.2310    1.4920    9.0990 C.3   161  ASN161      0.1155
    121  CG         7.7810    0.5930    7.9800 C.2   161  ASN161      0.2627
    122  OD1        6.6560    0.7400    7.4820 O.2   161  ASN161     -0.2716
    123  ND2        8.6500   -0.3090    7.5480 N.am  161  ASN161     -0.0877
    124  N          4.8170    1.9350   -0.2970 N.3   210  TYR210     -0.1241
    125  CA         4.7010    0.4950   -0.3750 C.3   210  TYR210      0.1605
    126  C          3.2490    0.0410   -0.1940 C.2   210  TYR210      0.2264
    127  O          2.3750    0.8120    0.2240 O.2   210  TYR210     -0.2867
    128  CB         5.6650   -0.2020    0.5780 C.3   210  TYR210      0.0534
    129  CG         5.3850   -0.2420    2.0720 C.ar  210  TYR210     -0.0201
    130  CD1        4.2960   -0.9390    2.5970 C.ar  210  TYR210     -0.0009
    131  CD2        6.3050    0.2970    2.9710 C.ar  210  TYR210     -0.0009
    132  CE1        4.1370   -1.0950    3.9720 C.ar  210  TYR210      0.0417
    133  CE2        6.1670    0.1340    4.3450 C.ar  210  TYR210      0.0417
    134  CZ         5.0810   -0.5740    4.8410 C.ar  210  TYR210      0.1957
    135  OH         4.9240   -0.8080    6.1810 O.3   210  TYR210     -0.2866
    136  N         -1.6520  -12.1930    6.5990 N.3   220  TRP220     -0.1241
    137  CA        -2.6010  -11.9690    7.6800 C.3   220  TRP220      0.1605
    138  C         -3.9120  -11.3390    7.2030 C.2   220  TRP220      0.2264
    139  O         -4.7120  -10.8890    8.0210 O.2   220  TRP220     -0.2867
    140  CB        -1.9520  -11.1090    8.7680 C.3   220  TRP220      0.0550
    141  CG        -1.3600   -9.8260    8.2510 C.ar  220  TRP220      0.0003
    142  CD1       -2.0310   -8.6710    7.9730 C.ar  220  TRP220      0.0946
    143  CD2        0.0260   -9.5690    7.9490 C.ar  220  TRP220      0.0152
    144  NE1       -1.1570   -7.7160    7.5150 N.ar  220  TRP220     -0.2442
    145  CE2        0.1110   -8.2360    7.4950 C.ar  220  TRP220      0.0810
    146  CE3        1.2010  -10.3310    8.0280 C.ar  220  TRP220      0.0012
    147  CZ2        1.3250   -7.6460    7.1180 C.ar  220  TRP220      0.0191
    148  CZ3        2.4020   -9.7460    7.6540 C.ar  220  TRP220      0.0001
    149  CH2        2.4560   -8.4160    7.2080 C.ar  220  TRP220      0.0015
    150  N          0.2930   -3.0270    7.2290 N.3   299  CYS299     -0.1221
    151  CA         1.5280   -3.4280    7.7990 C.3   299  CYS299      0.1808
    152  C          1.6550   -2.8820    9.1990 C.2   299  CYS299      0.2601
    153  O          2.0190   -1.7270    9.4100 O.2   299  CYS299     -0.2717
    154  CB         2.5980   -2.9050    6.8700 C.3   299  CYS299      0.0970
    155  SG         3.8000   -4.0880    6.5330 S.3   299  CYS299     -0.0800
    156  N          1.3040   -3.7500   10.1380 N.am  300  ALA300     -0.1965
    157  CA         1.3840   -3.5150   11.5600 C.3   300  ALA300      0.1728
    158  C          1.6350   -4.8930   12.1510 C.2   300  ALA300      0.2616
    159  O          1.4390   -5.9190   11.4860 O.2   300  ALA300     -0.2715
    160  CB         0.0890   -2.9340   12.0740 C.3   300  ALA300      0.0334
    161  N          2.0830   -4.9400   13.3910 N.am  301  LEU301     -0.1977
    162  CA         2.3890   -6.2360   13.9550 C.3   301  LEU301      0.1596
    163  C          2.3010   -6.2320   15.4670 C.2   301  LEU301      0.2287
    164  O          3.1190   -5.6100   16.1440 O.2   301  LEU301     -0.2864
    165  CB         3.7700   -6.7010   13.4860 C.3   301  LEU301      0.0297
    166  CG         4.1160   -8.1510   13.8060 C.3   301  LEU301      0.0022
    167  CD1        3.1430   -9.1100   13.1370 C.3   301  LEU301      0.0001
    168  CD2        5.5310   -8.4410   13.3590 C.3   301  LEU301      0.0001
    169  N          5.1940   -6.6430   18.0880 N.3   304  CYS304     -0.1235
    170  CA         6.1820   -5.5730   18.1950 C.3   304  CYS304      0.1677
    171  C          5.6620   -4.2960   18.8480 C.2   304  CYS304      0.2270
    172  O          6.4250   -3.3420   19.0320 O.2   304  CYS304     -0.2867
    173  CB         6.7410   -5.2490   16.8100 C.3   304  CYS304      0.0956
    174  SG         7.6590   -6.6160   16.0670 S.3   304  CYS304     -0.0801
    175  N          8.4220    1.1880   18.4540 N.3   310  TYR310     -0.1228
    176  CA         7.3280    0.8260   17.5510 C.3   310  TYR310      0.1721
    177  C          6.7440    2.1080   16.9600 C.2   310  TYR310      0.2437
    178  O          6.4480    3.0370   17.7060 O.2   310  TYR310     -0.2733
    179  CB         6.2370    0.0650   18.2920 C.3   310  TYR310      0.0547
    180  CG         5.1640   -0.4960   17.3800 C.ar  310  TYR310     -0.0200
    181  CD1        5.4100   -1.6190   16.5920 C.ar  310  TYR310     -0.0009
    182  CD2        3.9040    0.0830   17.3100 C.ar  310  TYR310     -0.0009
    183  CE1        4.4350   -2.1530   15.7700 C.ar  310  TYR310      0.0417
    184  CE2        2.9200   -0.4470   16.4770 C.ar  310  TYR310      0.0417
    185  CZ         3.1940   -1.5700   15.7150 C.ar  310  TYR310      0.1957
    186  OH         2.2470   -2.1270   14.8860 O.3   310  TYR310     -0.2866
    187  N          6.5820    2.1740   15.6270 N.am  311  PRO311     -0.2718
    188  CA         6.3140    3.4880   15.0270 C.3   311  PRO311      0.1535
    189  C          4.8620    3.9520   15.0130 C.2   311  PRO311      0.2598
    190  O          4.6380    5.1360   14.7680 O.2   311  PRO311     -0.2715
    191  CB         6.8120    3.3180   13.5850 C.3   311  PRO311      0.0310
    192  CG         6.6690    1.8490   13.3090 C.3   311  PRO311      0.0237
    193  CD         7.0410    1.1950   14.6250 C.3   311  PRO311      0.0939
    194  N          3.9040    3.0620   15.2480 N.am  312  PHE312     -0.1974
    195  CA         2.5180    3.3990   14.9410 C.3   312  PHE312      0.1639
    196  C          1.6440    3.7860   16.1380 C.2   312  PHE312      0.2290
    197  O          0.4220    3.8170   16.0310 O.2   312  PHE312     -0.2864
    198  CB         1.8780    2.3140   14.0580 C.3   312  PHE312      0.0560
    199  CG         2.6940    1.9830   12.8180 C.ar  312  PHE312     -0.0200
    200  CD1        3.3250    2.9850   12.0840 C.ar  312  PHE312     -0.0042
    201  CD2        2.8450    0.6700   12.4020 C.ar  312  PHE312     -0.0042
    202  CE1        4.0810    2.6800   10.9590 C.ar  312  PHE312     -0.0003
    203  CE2        3.5880    0.3630   11.2710 C.ar  312  PHE312     -0.0003
    204  CZ         4.2090    1.3710   10.5510 C.ar  312  PHE312     -0.0000
@<TRIPOS>BOND
     1     1     2    1
     2     4     3    2
     3     3     2    1
     4     2     5    1
     5   125   124    1
     6   125   126    1
     7   125   128    1
     8   126   127    2
     9    37    36    2
    10    29    31   ar
    11    29    27   ar
    12     5     6    1
    13    36    35    1
    14   128   129    1
    15    31    32   ar
    16    26    27    1
    17    26    23    1
    18    25    24    2
    19    27    28   ar
    20     6     7   ar
    21     6     8   ar
    22    24    34   am
    23    24    23    1
    24    32    33    1
    25    32    30   ar
    26    35    34    1
    27    35    38    1
    28    11     8   ar
    29    11    13   ar
    30   129   130   ar
    31   129   131   ar
    32     7     9   ar
    33     8    10   ar
    34    23    22    1
    35    28    30   ar
    36   130   132   ar
    37    38    39    1
    38    13    14   ar
    39   131   133   ar
    40     9    10   ar
    41    22    17   am
    42    10    12   ar
    43    14    12   ar
    44   132   134   ar
    45    39    40    1
    46   133   134   ar
    47    17    18    2
    48    17    16    1
    49    42    40   am
    50    15    16    1
    51   134   135    1
    52    40    41    2
    53    71    72   ar
    54    71    69   ar
    55    16    19    1
    56    72    70   ar
    57    20    19    1
    58    69    68   ar
    59    70    68   ar
    60    19    21    1
    61    68    67    1
    62   155   154    1
    63   136   137    1
    64   154   151    1
    65   147   149   ar
    66   147   145   ar
    67   138   137    1
    68   138   139    2
    69   149   148   ar
    70   150   151    1
    71    67    64    1
    72    64    63    1
    73    64    65    1
    74   122   121    2
    75   145   144   ar
    76   145   143   ar
    77   116   117    1
    78   144   142   ar
    79   123   121   am
    80   148   146   ar
    81   137   140    1
    82   151   152    1
    83    66    65    2
    84   143   146   ar
    85   143   141   ar
    86   142   141   ar
    87   121   120    1
    88    43    44    1
    89   141   140    1
    90    65    73   am
    91   117   120    1
    92   117   118    1
    93    53    55   ar
    94    53    50   ar
    95    81    82   ar
    96    81    79   ar
    97    84    82   ar
    98    84    86   ar
    99    47    44    1
   100    47    48    1
   101    55    56   ar
   102    44    45    1
   103   152   153    2
   104   152   156   am
   105    82    80   ar
   106    86    85   ar
   107    79    78   ar
   108    50    48   ar
   109    50    52   ar
   110    73    74    1
   111    48    49   ar
   112   118   119    2
   113    56    54   ar
   114   156   157    1
   115    80    78   ar
   116    80    83   ar
   117    78    77    1
   118    85    83   ar
   119   204   202   ar
   120   204   203   ar
   121    45    46    2
   122    45    57   am
   123    52    54   ar
   124    52    51   ar
   125    74    77    1
   126    74    75    1
   127    49    51   ar
   128   202   200   ar
   129   203   201   ar
   130   114   115   ar
   131   114   112   ar
   132    57    58    1
   133   159   158    2
   134   157   160    1
   135   157   158    1
   136   115   113   ar
   137    75    76    2
   138   200   199   ar
   139   158   161   am
   140   112   110   ar
   141    62    61    1
   142   201   199   ar
   143    58    61    1
   144    58    59    1
   145   199   198    1
   146   113   111   ar
   147   167   166    1
   148   192   191    1
   149   192   193    1
   150   168   166    1
   151   161   162    1
   152   165   166    1
   153   165   162    1
   154   191   188    1
   155   110   111   ar
   156   110   109    1
   157    59    60    2
   158   162   163    1
   159   198   195    1
   160   105   106    1
   161   193   187    1
   162   109   106    1
   163   103   104   ar
   164   103   101   ar
   165   190   189    2
   166    87    88    1
   167    90    89    2
   168   186   185    1
   169   195   194    1
   170   195   196    1
   171   189   188    1
   172   189   194   am
   173    92    91    1
   174   188   187    1
   175   106   107    1
   176   104   102   ar
   177   101    99   ar
   178   163   164    2
   179   187   177   am
   180   185   183   ar
   181   185   184   ar
   182   183   181   ar
   183    89    88    1
   184   197   196    2
   185    88    91    1
   186   174   173    1
   187   102   100   ar
   188    91    93    1
   189    99   100   ar
   190    99    98    1
   191   184   182   ar
   192   107   108    2
   193   181   180   ar
   194   173   170    1
   195   177   176    1
   196   177   178    2
   197    98    95    1
   198    94    95    1
   199   182   180   ar
   200   180   179    1
   201   176   179    1
   202   176   175    1
   203    97    96    2
   204    95    96    1
   205   169   170    1
   206   170   171    1
   207   171   172    2
