@<TRIPOS>MOLECULE
tmp/4lb8A00.pdb
 81 79 0 0 0
SMALL
GASTEIGER

@<TRIPOS>ATOM
      1  N          6.9350   50.8160    4.5250 N.3   172  PHE172     -0.1241
      2  CA         5.8580   51.8000    4.6340 C.3   172  PHE172      0.1605
      3  C          6.0740   52.4820    5.9490 C.2   172  PHE172      0.2264
      4  O          6.1780   51.7990    6.9710 O.2   172  PHE172     -0.2867
      5  CB         4.4760   51.1440    4.5650 C.3   172  PHE172      0.0534
      6  CG         4.0570   50.5230    3.2560 C.ar  172  PHE172     -0.0203
      7  CD1        4.4100   49.2160    2.9420 C.ar  172  PHE172     -0.0042
      8  CD2        3.2170   51.2040    2.3820 C.ar  172  PHE172     -0.0042
      9  CE1        3.9790   48.6190    1.7500 C.ar  172  PHE172     -0.0003
     10  CE2        2.7790   50.5990    1.1840 C.ar  172  PHE172     -0.0003
     11  CZ         3.1600   49.3090    0.8820 C.ar  172  PHE172     -0.0000
     12  N          3.3980   40.9610   -7.8980 N.3   200  PHE200     -0.1227
     13  CA         3.0290   41.5230   -6.6100 C.3   200  PHE200      0.1736
     14  C          2.7820   40.4430   -5.5820 C.2   200  PHE200      0.2595
     15  O          2.1050   39.4440   -5.8690 O.2   200  PHE200     -0.2718
     16  CB         1.7940   42.4050   -6.7570 C.3   200  PHE200      0.0547
     17  CG         1.2580   43.0480   -5.4990 C.ar  200  PHE200     -0.0202
     18  CD1        2.0540   43.9020   -4.7400 C.ar  200  PHE200     -0.0042
     19  CD2       -0.0720   42.8820   -5.1280 C.ar  200  PHE200     -0.0042
     20  CE1        1.5350   44.5410   -3.6160 C.ar  200  PHE200     -0.0003
     21  CE2       -0.5870   43.5180   -3.9950 C.ar  200  PHE200     -0.0003
     22  CZ         0.2160   44.3460   -3.2500 C.ar  200  PHE200     -0.0000
     23  N          3.3220   40.6610   -4.3660 N.am  201  ALA201     -0.1980
     24  CA         3.1370   39.7680   -3.2260 C.3   201  ALA201      0.1597
     25  C          1.8160   40.1270   -2.5800 C.2   201  ALA201      0.2287
     26  O          1.7620   40.9460   -1.6640 O.2   201  ALA201     -0.2864
     27  CB         4.2950   39.8970   -2.2500 C.3   201  ALA201      0.0319
     28  N         -1.4790   39.8870   -0.4130 N.3   203  GLY203     -0.1225
     29  CA        -1.7910   39.4040    0.9330 C.3   203  GLY203      0.1811
     30  C         -2.9100   38.3840    0.9630 C.2   203  GLY203      0.2280
     31  O         -3.5600   38.1670   -0.0600 O.2   203  GLY203     -0.2866
     32  N         -2.9040   49.7630   -3.6560 N.3   222  ILE222     -0.1231
     33  CA        -2.6760   49.1810   -2.3270 C.3   222  ILE222      0.1692
     34  C         -3.3520   50.1270   -1.3230 C.2   222  ILE222      0.2592
     35  O         -3.0290   51.3160   -1.2630 O.2   222  ILE222     -0.2718
     36  CB        -1.1660   48.9660   -2.0190 C.3   222  ILE222      0.0266
     37  CG1       -0.4550   48.1080   -3.0960 C.3   222  ILE222      0.0019
     38  CG2       -0.9430   48.4350   -0.5930 C.3   222  ILE222      0.0020
     39  CD1        1.0630   48.1660   -3.0370 C.3   222  ILE222      0.0001
     40  N         -4.3380   49.6170   -0.6120 N.am  223  ASP223     -0.1960
     41  CA        -5.1070   50.3190    0.4160 C.3   223  ASP223      0.1840
     42  C         -5.0660   49.4180    1.6140 C.2   223  ASP223      0.2622
     43  O         -5.7880   48.4250    1.6570 O.2   223  ASP223     -0.2715
     44  CB        -6.5360   50.6000   -0.0650 C.3   223  ASP223      0.1450
     45  CG        -6.6010   51.4980   -1.2870 C.2   223  ASP223      0.3671
     46  OD1       -5.9850   52.5970   -1.2550 O.co2 223  ASP223     -0.2456
     47  OD2       -7.2810   51.1150   -2.2770 O.co2 223  ASP223     -0.2456
     48  N         -4.1160   49.6460    2.5080 N.am  224  THR224     -0.1951
     49  CA        -3.9590   48.7720    3.6650 C.3   224  THR224      0.1897
     50  C         -5.0350   49.0500    4.7410 C.2   224  THR224      0.2313
     51  O         -5.7980   50.0230    4.6500 O.2   224  THR224     -0.2863
     52  CB        -2.5520   48.9400    4.2810 C.3   224  THR224      0.1794
     53  OG1       -2.5130   50.1310    5.0650 O.3   224  THR224     -0.2208
     54  CG2       -1.4390   48.9660    3.2440 C.3   224  THR224      0.0378
     55  N          7.4430   44.7610    4.3940 N.3   232  LYS232     -0.1231
     56  CA         6.7490   43.7770    3.5680 C.3   232  LYS232      0.1693
     57  C          7.5930   43.2790    2.4080 C.2   232  LYS232      0.2592
     58  O          8.3930   44.0160    1.8550 O.2   232  LYS232     -0.2718
     59  CB         5.4700   44.4300    2.9590 C.3   232  LYS232      0.0285
     60  CG         4.3010   44.6800    3.9020 C.3   232  LYS232      0.0035
     61  CD         3.3040   43.5180    3.9030 C.3   232  LYS232      0.0206
     62  CE         2.0610   43.8580    4.6840 C.3   232  LYS232      0.1093
     63  NZ         1.4870   42.6820    5.3920 N.3   232  LYS232     -0.1314
     64  N          7.3560   42.0520    1.9980 N.am  233  VAL233     -0.1966
     65  CA         7.8240   41.5150    0.7340 C.3   233  VAL233      0.1727
     66  C          6.8570   42.1910   -0.2250 C.2   233  VAL233      0.2616
     67  O          5.6400   42.0050   -0.0890 O.2   233  VAL233     -0.2715
     68  CB         7.7670   39.9620    0.6730 C.3   233  VAL233      0.0290
     69  CG1        7.9780   39.4630   -0.7530 C.3   233  VAL233      0.0023
     70  CG2        8.7760   39.3370    1.6090 C.3   233  VAL233      0.0023
     71  N          7.3610   43.0660   -1.0780 N.am  234  PHE234     -0.1974
     72  CA         6.5130   43.8250   -1.9850 C.3   234  PHE234      0.1639
     73  C          6.1340   42.9890   -3.2220 C.2   234  PHE234      0.2290
     74  O          5.0270   43.0860   -3.7230 O.2   234  PHE234     -0.2864
     75  CB         7.2470   45.1170   -2.3750 C.3   234  PHE234      0.0560
     76  CG         6.4210   46.1560   -3.0820 C.ar  234  PHE234     -0.0200
     77  CD1        5.3860   46.8130   -2.4230 C.ar  234  PHE234     -0.0042
     78  CD2        6.7170   46.5280   -4.3890 C.ar  234  PHE234     -0.0042
     79  CE1        4.6350   47.7960   -3.0740 C.ar  234  PHE234     -0.0003
     80  CE2        5.9830   47.5380   -5.0350 C.ar  234  PHE234     -0.0003
     81  CZ         4.9420   48.1560   -4.3780 C.ar  234  PHE234     -0.0000
@<TRIPOS>BOND
     1    12    13    1
     2    16    13    1
     3    16    17    1
     4    13    14    1
     5    15    14    2
     6    14    23   am
     7    17    19   ar
     8    17    18   ar
     9    19    21   ar
    10    80    78   ar
    11    80    81   ar
    12    18    20   ar
    13    78    76   ar
    14    81    79   ar
    15    23    24    1
    16    21    22   ar
    17    74    73    2
    18    32    33    1
    19    20    22   ar
    20    24    25    1
    21    24    27    1
    22    73    72    1
    23    37    39    1
    24    37    36    1
    25    76    77   ar
    26    76    75    1
    27    79    77   ar
    28    25    26    2
    29    75    72    1
    30    33    36    1
    31    33    34    1
    32    47    45   ar
    33    36    38    1
    34    72    71    1
    35    34    35    2
    36    34    40   am
    37    45    46   ar
    38    45    44    1
    39    71    66   am
    40    69    68    1
    41    40    41    1
    42    28    29    1
    43    66    67    2
    44    66    65    1
    45    44    41    1
    46    31    30    2
    47    41    42    1
    48    68    65    1
    49    68    70    1
    50    65    64    1
    51    11    10   ar
    52    11     9   ar
    53    29    30    1
    54    10     8   ar
    55    42    43    2
    56    42    48   am
    57     9     7   ar
    58    58    57    2
    59    64    57   am
    60     8     6   ar
    61    57    56    1
    62    48    49    1
    63     7     6   ar
    64    59    56    1
    65    59    60    1
    66    54    52    1
    67     6     5    1
    68    56    55    1
    69    49    52    1
    70    49    50    1
    71    60    61    1
    72    61    62    1
    73    52    53    1
    74     1     2    1
    75     5     2    1
    76     2     3    1
    77    51    50    2
    78    62    63    1
    79     3     4    2
