@<TRIPOS>MOLECULE
tmp/4lb9A04.pdb
 169 165 0 0 0
SMALL
GASTEIGER

@<TRIPOS>ATOM
      1  N         47.3630   -8.2620   19.7460 N.3    99  GLU99      -0.1245
      2  CA        46.1650   -8.9750   19.3310 C.3    99  GLU99       0.1567
      3  C         45.6950   -9.8710   20.4660 C.2    99  GLU99       0.2260
      4  O         44.5070   -9.9120   20.7970 O.2    99  GLU99      -0.2867
      5  CB        46.4540   -9.8190   18.0890 C.3    99  GLU99       0.0388
      6  CG        46.7910   -9.0090   16.8630 C.3    99  GLU99       0.1160
      7  CD        45.5580   -8.5090   16.1330 C.2    99  GLU99       0.3649
      8  OE1       44.5460   -9.2410   16.0970 O.co2  99  GLU99      -0.2457
      9  OE2       45.6050   -7.3860   15.5850 O.co2  99  GLU99      -0.2457
     10  N         43.9460   -7.6840   23.0050 N.3   102  LEU102     -0.1231
     11  CA        42.6180   -7.2670   22.5730 C.3   102  LEU102      0.1693
     12  C         41.6080   -8.3960   22.7290 C.2   102  LEU102      0.2591
     13  O         40.4660   -8.1750   23.1230 O.2   102  LEU102     -0.2718
     14  CB        42.6640   -6.7950   21.1230 C.3   102  LEU102      0.0284
     15  CG        42.6520   -5.2880   20.8450 C.3   102  LEU102      0.0019
     16  CD1       42.9080   -4.4540   22.1030 C.3   102  LEU102      0.0001
     17  CD2       43.6670   -4.9650   19.7600 C.3   102  LEU102      0.0001
     18  N         42.0500   -9.6130   22.4350 N.am  103  GLN103     -0.1979
     19  CA        41.2030  -10.7910   22.5530 C.3   103  GLN103      0.1601
     20  C         40.8090  -11.0970   23.9900 C.2   103  GLN103      0.2287
     21  O         39.8810  -11.8640   24.2270 O.2   103  GLN103     -0.2864
     22  CB        41.9090  -12.0060   21.9590 C.3   103  GLN103      0.0394
     23  CG        42.1510  -11.8980   20.4760 C.3   103  GLN103      0.0908
     24  CD        42.7810  -13.1430   19.9010 C.2   103  GLN103      0.2608
     25  OE1       43.7450  -13.6760   20.4530 O.2   103  GLN103     -0.2717
     26  NE2       42.2360  -13.6170   18.7850 N.am  103  GLN103     -0.0878
     27  N         34.0260   -7.3420   28.1300 N.3   107  ASP107     -0.1239
     28  CA        32.8670   -6.4430   28.1740 C.3   107  ASP107      0.1674
     29  C         31.9990   -6.7710   29.3900 C.2   107  ASP107      0.2266
     30  O         31.2150   -5.9400   29.8550 O.2   107  ASP107     -0.2867
     31  CB        32.0420   -6.5480   26.8850 C.3   107  ASP107      0.1410
     32  CG        30.7280   -5.7890   26.9620 C.2   107  ASP107      0.3668
     33  OD1       30.7430   -4.5900   27.3180 O.co2 107  ASP107     -0.2456
     34  OD2       29.6760   -6.3970   26.6700 O.co2 107  ASP107     -0.2456
     35  N         35.0010   -0.3330   33.0530 N.3   144  ARG144     -0.1231
     36  CA        33.6990   -0.9720   32.8710 C.3   144  ARG144      0.1694
     37  C         33.2760   -0.9330   31.4100 C.2   144  ARG144      0.2592
     38  O         32.4790   -1.7500   30.9510 O.2   144  ARG144     -0.2718
     39  CB        32.6390   -0.2860   33.7350 C.3   144  ARG144      0.0321
     40  CG        32.7310   -0.6300   35.1970 C.3   144  ARG144      0.0489
     41  CD        31.9010    0.3170   36.0280 C.3   144  ARG144      0.2205
     42  NE        31.7470   -0.1560   37.3980 N.pl3 144  ARG144     -0.0865
     43  CZ        32.6670   -0.0180   38.3450 C.cat 144  ARG144      0.5346
     44  NH1       32.4360   -0.4810   39.5640 N.pl3 144  ARG144      0.1354
     45  NH2       33.8180    0.5770   38.0700 N.pl3 144  ARG144      0.1354
     46  N         33.8160    0.0300   30.6820 N.am  145  HIS145     -0.1962
     47  CA        33.4920    0.1660   29.2790 C.3   145  HIS145      0.1772
     48  C         34.7720    0.1620   28.4410 C.2   145  HIS145      0.2462
     49  O         35.2020    1.2000   27.9330 O.2   145  HIS145     -0.2730
     50  CB        32.6680    1.4370   29.0510 C.3   145  HIS145      0.0785
     51  CG        31.3950    1.4930   29.8460 C.ar  145  HIS145      0.0821
     52  ND1       30.1890    1.0400   29.3560 N.ar  145  HIS145     -0.2267
     53  CD2       31.1410    1.9540   31.0960 C.ar  145  HIS145      0.1154
     54  CE1       29.2470    1.2220   30.2660 C.ar  145  HIS145      0.1986
     55  NE2       29.7990    1.7760   31.3320 N.ar  145  HIS145     -0.2212
     56  N         35.3840   -1.0290   28.2950 N.am  146  PRO146     -0.2716
     57  CA        36.5180   -1.1200   27.3810 C.3   146  PRO146      0.1536
     58  C         35.9450   -1.0340   25.9770 C.2   146  PRO146      0.2599
     59  O         34.7150   -1.0370   25.8420 O.2   146  PRO146     -0.2715
     60  CB        37.0570   -2.5200   27.6580 C.3   146  PRO146      0.0310
     61  CG        35.8430   -3.3180   28.0340 C.3   146  PRO146      0.0237
     62  CD        34.9720   -2.3590   28.7980 C.3   146  PRO146      0.0939
     63  N         36.7980   -0.9380   24.9630 N.am  147  TYR147     -0.1960
     64  CA        36.3480   -0.7370   23.5760 C.3   147  TYR147      0.1771
     65  C         35.7900    0.6730   23.3210 C.2   147  TYR147      0.2619
     66  O         35.8650    1.1700   22.1970 O.2   147  TYR147     -0.2715
     67  CB        35.3320   -1.8040   23.1340 C.3   147  TYR147      0.0574
     68  CG        35.8170   -3.2350   23.2360 C.ar  147  TYR147     -0.0198
     69  CD1       37.1200   -3.5660   22.9010 C.ar  147  TYR147     -0.0009
     70  CD2       34.9650   -4.2570   23.6610 C.ar  147  TYR147     -0.0009
     71  CE1       37.5640   -4.8600   22.9830 C.ar  147  TYR147      0.0417
     72  CE2       35.4060   -5.5580   23.7490 C.ar  147  TYR147      0.0417
     73  CZ        36.7070   -5.8510   23.4060 C.ar  147  TYR147      0.1957
     74  OH        37.1560   -7.1460   23.4870 O.3   147  TYR147     -0.2866
     75  N         35.2270    1.3010   24.3560 N.am  148  PHE148     -0.1974
     76  CA        34.7730    2.6930   24.2930 C.3   148  PHE148      0.1639
     77  C         35.9460    3.5740   23.9060 C.2   148  PHE148      0.2290
     78  O         36.9360    3.6310   24.6260 O.2   148  PHE148     -0.2864
     79  CB        34.2270    3.1320   25.6560 C.3   148  PHE148      0.0560
     80  CG        33.3610    4.3710   25.6140 C.ar  148  PHE148     -0.0200
     81  CD1       33.8950    5.6040   25.3060 C.ar  148  PHE148     -0.0042
     82  CD2       32.0190    4.3020   25.9310 C.ar  148  PHE148     -0.0042
     83  CE1       33.1050    6.7270   25.2830 C.ar  148  PHE148     -0.0003
     84  CE2       31.2270    5.4300   25.9110 C.ar  148  PHE148     -0.0003
     85  CZ        31.7700    6.6390   25.5850 C.ar  148  PHE148     -0.0000
     86  N         28.3050    5.0440   23.6140 N.3   192  SER192     -0.1202
     87  CA        28.8430    3.6950   23.5350 C.3   192  SER192      0.2020
     88  C         27.9090    2.7880   22.7410 C.2   192  SER192      0.2618
     89  O         28.3350    1.8090   22.1370 O.2   192  SER192     -0.2717
     90  CB        29.0260    3.1470   24.9450 C.3   192  SER192      0.2103
     91  OG        29.9060    2.0380   24.9560 O.3   192  SER192     -0.2182
     92  N         26.6230    3.1080   22.7530 N.am  193  ALA193     -0.1979
     93  CA        25.6510    2.3090   22.0260 C.3   193  ALA193      0.1597
     94  C         25.8280    2.5230   20.5320 C.2   193  ALA193      0.2287
     95  O         25.8300    1.5700   19.7490 O.2   193  ALA193     -0.2864
     96  CB        24.2260    2.6660   22.4690 C.3   193  ALA193      0.0319
     97  N         28.4950    3.4440   18.9880 N.3   195  GLN195     -0.1231
     98  CA        29.7560    2.8520   18.5500 C.3   195  GLN195      0.1698
     99  C         29.5850    1.3470   18.3820 C.2   195  GLN195      0.2592
    100  O         30.0640    0.7530   17.4140 O.2   195  GLN195     -0.2718
    101  CB        30.8910    3.1550   19.5440 C.3   195  GLN195      0.0381
    102  CG        32.2940    2.9800   18.9320 C.3   195  GLN195      0.0905
    103  CD        33.4240    3.1120   19.9460 C.2   195  GLN195      0.2608
    104  OE1       33.3010    3.8100   20.9450 O.2   195  GLN195     -0.2717
    105  NE2       34.5290    2.4330   19.6890 N.am  195  GLN195     -0.0878
    106  N         28.8820    0.7530   19.3380 N.am  196  ARG196     -0.1980
    107  CA        28.6210   -0.6760   19.3770 C.3   196  ARG196      0.1597
    108  C         27.7950   -1.1290   18.1740 C.2   196  ARG196      0.2287
    109  O         28.1150   -2.1260   17.5230 O.2   196  ARG196     -0.2864
    110  CB        27.8990   -0.9990   20.6930 C.3   196  ARG196      0.0334
    111  CG        27.1660   -2.3310   20.7600 C.3   196  ARG196      0.0492
    112  CD        28.0500   -3.4350   21.3090 C.3   196  ARG196      0.2205
    113  NE        27.2740   -4.6250   21.6510 N.pl3 196  ARG196     -0.0865
    114  CZ        26.8660   -5.5320   20.7650 C.cat 196  ARG196      0.5346
    115  NH1       26.1640   -6.5850   21.1700 N.pl3 196  ARG196      0.1354
    116  NH2       27.1550   -5.3930   19.4720 N.pl3 196  ARG196      0.1354
    117  N         29.5630   -1.1370   14.4940 N.3   199  CYS199     -0.1221
    118  CA        30.3910   -2.3020   14.2290 C.3   199  CYS199      0.1808
    119  C         29.5480   -3.5500   14.0160 C.2   199  CYS199      0.2601
    120  O         29.9100   -4.4110   13.2160 O.2   199  CYS199     -0.2717
    121  CB        31.3870   -2.5140   15.3750 C.3   199  CYS199      0.0970
    122  SG        32.5880   -1.1560   15.5450 S.3   199  CYS199     -0.0800
    123  N         28.4410   -3.6480   14.7510 N.am  200  ALA200     -0.1979
    124  CA        27.5290   -4.7790   14.6380 C.3   200  ALA200      0.1597
    125  C         26.8620   -4.8120   13.2740 C.2   200  ALA200      0.2287
    126  O         26.7740   -5.8670   12.6440 O.2   200  ALA200     -0.2864
    127  CB        26.4880   -4.7080   15.7160 C.3   200  ALA200      0.0319
    128  N         29.3620   -5.6610   10.6240 N.3   203  GLN203     -0.1245
    129  CA        29.6920   -7.0820   10.7240 C.3   203  GLN203      0.1566
    130  C         28.5510   -7.9600   10.1840 C.2   203  GLN203      0.2260
    131  O         28.7650   -9.1000    9.7720 O.2   203  GLN203     -0.2867
    132  CB        29.9690   -7.4090   12.1990 C.3   203  GLN203      0.0367
    133  CG        30.6070   -8.7580   12.4830 C.3   203  GLN203      0.0905
    134  CD        31.3100   -8.7950   13.8370 C.2   203  GLN203      0.2608
    135  OE1       31.4070   -7.7800   14.5330 O.2   203  GLN203     -0.2717
    136  NE2       31.8130   -9.9650   14.2090 N.am  203  GLN203     -0.0878
    137  N         35.8460    0.5290    9.6880 N.3   242  THR242     -0.1218
    138  CA        36.2300   -0.8780    9.6450 C.3   242  THR242      0.1862
    139  C         37.4300   -1.1750   10.5420 C.2   242  THR242      0.2287
    140  O         37.3860   -2.0960   11.3630 O.2   242  THR242     -0.2866
    141  CB        36.5570   -1.3180    8.2170 C.3   242  THR242      0.1770
    142  OG1       35.3340   -1.5450    7.5070 O.3   242  THR242     -0.2211
    143  CG2       37.3660   -2.6020    8.2340 C.3   242  THR242      0.0375
    144  N         38.7340    0.9460   12.9080 N.3   244  CYS244     -0.1221
    145  CA        38.3980    1.3530   14.2770 C.3   244  CYS244      0.1808
    146  C         37.6030    0.2820   15.0030 C.2   244  CYS244      0.2601
    147  O         37.5720    0.2450   16.2350 O.2   244  CYS244     -0.2717
    148  CB        37.6270    2.6790   14.2990 C.3   244  CYS244      0.0970
    149  SG        38.6380    4.1550   14.2360 S.3   244  CYS244     -0.0800
    150  N         36.9780   -0.5990   14.2310 N.am  245  CYS245     -0.1956
    151  CA        36.1470   -1.6590   14.7870 C.3   245  CYS245      0.1843
    152  C         36.9610   -2.9040   15.1430 C.2   245  CYS245      0.2625
    153  O         36.4170   -3.8860   15.6410 O.2   245  CYS245     -0.2714
    154  CB        34.9980   -1.9770   13.8240 C.3   245  CYS245      0.0997
    155  SG        33.6940   -0.7480   13.8940 S.3   245  CYS245     -0.0797
    156  N         38.2620   -2.8530   14.8780 N.am  246  HIS246     -0.1959
    157  CA        39.1540   -3.9270   15.2600 C.3   246  HIS246      0.1787
    158  C         39.4340   -3.8300   16.7600 C.2   246  HIS246      0.2620
    159  O         39.7290   -4.8380   17.4030 O.2   246  HIS246     -0.2715
    160  CB        40.4430   -3.8610   14.4400 C.3   246  HIS246      0.0785
    161  CG        41.3140   -5.0630   14.5940 C.ar  246  HIS246      0.0821
    162  ND1       41.0240   -6.0930   15.4550 N.ar  246  HIS246     -0.2267
    163  CD2       42.4820   -5.3980   13.9880 C.ar  246  HIS246      0.1154
    164  CE1       41.9700   -7.0120   15.3830 C.ar  246  HIS246      0.1986
    165  NE2       42.8630   -6.6110   14.4950 N.ar  246  HIS246     -0.2212
    166  N         39.3550   -2.6150   17.3040 N.am  247  GLY247     -0.1954
    167  CA        39.4290   -2.4110   18.7390 C.3   247  GLY247      0.1869
    168  C         40.6850   -1.7610   19.2890 C.2   247  GLY247      0.2309
    169  O         40.7470   -1.4830   20.4810 O.2   247  GLY247     -0.2863
@<TRIPOS>BOND
     1   142   141    1
     2   141   143    1
     3   141   138    1
     4   138   137    1
     5   138   139    1
     6   131   130    2
     7   130   129    1
     8   139   140    2
     9   128   129    1
    10   129   132    1
    11   132   133    1
    12   133   134    1
    13   126   125    2
    14   144   145    1
    15   120   119    2
    16   125   124    1
    17   154   155    1
    18   154   151    1
    19   134   136   am
    20   134   135    2
    21   155   122    1
    22   163   165   ar
    23   163   161   ar
    24   119   118    1
    25   119   123   am
    26   118   117    1
    27   118   121    1
    28   150   151    1
    29   150   146   am
    30   149   148    1
    31   145   148    1
    32   145   146    1
    33   160   161    1
    34   160   157    1
    35   165   164   ar
    36   161   162   ar
    37   124   123    1
    38   124   127    1
    39   151   152    1
    40   156   152   am
    41   156   157    1
    42   146   147    2
    43   152   153    2
    44   157   158    1
    45   121   122    1
    46   164   162   ar
    47     9     7   ar
    48     8     7   ar
    49     7     6    1
    50   158   166   am
    51   158   159    2
    52     6     5    1
    53   166   167    1
    54   100    99    2
    55   109   108    2
    56     5     2    1
    57   108   107    1
    58    99    98    1
    59    99   106   am
    60    98    97    1
    61    98   101    1
    62   167   168    1
    63    26    24   am
    64   102   101    1
    65   102   103    1
    66   168   169    2
    67     2     1    1
    68     2     3    1
    69   106   107    1
    70   107   110    1
    71   116   114    1
    72   105   103   am
    73    95    94    2
    74    17    15    1
    75    24    25    2
    76    24    23    1
    77   103   104    2
    78     3     4    2
    79    23    22    1
    80    94    93    1
    81   110   111    1
    82   111   112    1
    83   114   115    1
    84   114   113    2
    85    15    14    1
    86    15    16    1
    87    14    11    1
    88   112   113    1
    89    22    19    1
    90    93    96    1
    91    93    92    1
    92    89    88    2
    93    66    65    2
    94    18    19    1
    95    18    12   am
    96    19    20    1
    97    11    12    1
    98    11    10    1
    99    12    13    2
   100    88    92   am
   101    88    87    1
   102    69    71   ar
   103    69    68   ar
   104    71    73   ar
   105    67    68    1
   106    67    64    1
   107    68    70   ar
   108    65    64    1
   109    65    75   am
   110    73    74    1
   111    73    72   ar
   112    87    86    1
   113    87    90    1
   114    64    63    1
   115    70    72   ar
   116    77    76    1
   117    77    78    2
   118    20    21    2
   119    76    75    1
   120    76    79    1
   121    90    91    1
   122    63    58   am
   123    83    81   ar
   124    83    85   ar
   125    81    80   ar
   126    85    84   ar
   127    80    79    1
   128    80    82   ar
   129    59    58    2
   130    84    82   ar
   131    58    57    1
   132    34    32   ar
   133    31    32    1
   134    31    28    1
   135    32    33   ar
   136    57    60    1
   137    57    56    1
   138    60    61    1
   139    49    48    2
   140    61    62    1
   141    27    28    1
   142    28    29    1
   143    56    48   am
   144    56    62    1
   145    48    47    1
   146    50    47    1
   147    50    51    1
   148    47    46    1
   149    52    51   ar
   150    52    54   ar
   151    29    30    2
   152    51    53   ar
   153    54    55   ar
   154    46    37   am
   155    38    37    2
   156    53    55   ar
   157    37    36    1
   158    36    35    1
   159    36    39    1
   160    39    40    1
   161    40    41    1
   162    41    42    1
   163    42    43    2
   164    45    43    1
   165    43    44    1
