@<TRIPOS>MOLECULE
tmp/4lbgB01.pdb
 112 100 0 0 0
SMALL
GASTEIGER

@<TRIPOS>ATOM
      1  N         33.4890   33.1150  -13.6250 N.3   207  ASN207     -0.1240
      2  CA        33.9370   32.4730  -12.3890 C.3   207  ASN207      0.1653
      3  C         35.3350   33.0090  -11.9970 C.2   207  ASN207      0.2266
      4  O         35.9230   33.8390  -12.7170 O.2   207  ASN207     -0.2867
      5  CB        33.8740   30.9360  -12.4540 C.3   207  ASN207      0.1155
      6  CG        34.8250   30.3460  -13.4810 C.2   207  ASN207      0.2627
      7  OD1       35.7210   31.0200  -13.9770 O.2   207  ASN207     -0.2716
      8  ND2       34.6340   29.0770  -13.7990 N.am  207  ASN207     -0.0877
      9  N         31.3780   34.2880   -9.8390 N.3   237  THR237     -0.1218
     10  CA        31.0880   33.1130   -9.0170 C.3   237  THR237      0.1862
     11  C         32.3710   32.5430   -8.4480 C.2   237  THR237      0.2287
     12  O         33.4420   32.6700   -9.0580 O.2   237  THR237     -0.2866
     13  CB        30.2930   32.0390   -9.7880 C.3   237  THR237      0.1770
     14  OG1       31.0320   31.6040  -10.9400 O.3   237  THR237     -0.2211
     15  CG2       28.9500   32.6060  -10.2450 C.3   237  THR237      0.0375
     16  N         32.4520   29.2060   -6.8280 N.3   238  SER238     -0.1202
     17  CA        32.1490   27.8150   -6.4970 C.3   238  SER238      0.2020
     18  C         31.5070   27.7030   -5.1060 C.2   238  SER238      0.2618
     19  O         30.5120   28.3820   -4.8290 O.2   238  SER238     -0.2717
     20  CB        33.4060   26.9460   -6.6130 C.3   238  SER238      0.2103
     21  OG        33.9400   26.9870   -7.9250 O.3   238  SER238     -0.2182
     22  N         32.0860   26.8740   -4.2320 N.am  239  GLU239     -0.1979
     23  CA        31.5360   26.6580   -2.8940 C.3   239  GLU239      0.1602
     24  C         31.5400   27.9160   -2.0200 C.2   239  GLU239      0.2287
     25  O         30.8140   27.9880   -1.0140 O.2   239  GLU239     -0.2864
     26  CB        32.2520   25.4890   -2.2000 C.3   239  GLU239      0.0415
     27  CG        33.6550   25.7960   -1.6960 C.3   239  GLU239      0.1163
     28  CD        34.7430   25.6230   -2.7440 C.2   239  GLU239      0.3649
     29  OE1       34.4370   25.5070   -3.9510 O.co2 239  GLU239     -0.2457
     30  OE2       35.9300   25.5940   -2.3500 O.co2 239  GLU239     -0.2457
     31  N         30.3570   30.7780   -3.0080 N.3   241  GLY241     -0.1225
     32  CA        29.2280   31.6270   -3.4280 C.3   241  GLY241      0.1811
     33  C         29.5540   32.5170   -4.6090 C.2   241  GLY241      0.2280
     34  O         30.0490   32.0320   -5.6220 O.2   241  GLY241     -0.2866
     35  N         26.8810   30.3360   -1.1370 N.3   255  ALA255     -0.1231
     36  CA        26.4170   29.1210   -1.7970 C.3   255  ALA255      0.1694
     37  C         25.3480   28.4600   -0.9210 C.2   255  ALA255      0.2591
     38  O         25.4070   28.5580    0.3110 O.2   255  ALA255     -0.2718
     39  CB        27.5720   28.1650   -2.0200 C.3   255  ALA255      0.0304
     40  N         24.3720   27.7930   -1.5390 N.am  256  ILE256     -0.1980
     41  CA        23.3700   27.0490   -0.7600 C.3   256  ILE256      0.1595
     42  C         23.9990   25.7650   -0.2120 C.2   256  ILE256      0.2287
     43  O         25.0340   25.3040   -0.7200 O.2   256  ILE256     -0.2864
     44  CB        22.0720   26.7320   -1.5640 C.3   256  ILE256      0.0276
     45  CG1       22.3300   25.6830   -2.6610 C.3   256  ILE256      0.0022
     46  CG2       21.4370   28.0050   -2.1270 C.3   256  ILE256      0.0022
     47  CD1       21.0720   25.0590   -3.2420 C.3   256  ILE256      0.0001
     48  N         24.2160   21.8470    0.1260 N.3   258  ILE258     -0.1245
     49  CA        23.9320   20.7680   -0.8210 C.3   258  ILE258      0.1561
     50  C         24.1640   19.3870   -0.2060 C.2   258  ILE258      0.2260
     51  O         24.9440   19.2300    0.7440 O.2   258  ILE258     -0.2867
     52  CB        24.7600   20.9020   -2.1240 C.3   258  ILE258      0.0252
     53  CG1       26.2610   20.9180   -1.8120 C.3   258  ILE258      0.0019
     54  CG2       24.3390   22.1380   -2.9160 C.3   258  ILE258      0.0019
     55  CD1       27.1340   20.6370   -3.0150 C.3   258  ILE258      0.0001
     56  N         27.9970   16.9830   -4.3800 N.3   261  VAL261     -0.1245
     57  CA        28.3130   17.4320   -5.7390 C.3   261  VAL261      0.1561
     58  C         28.3140   16.2110   -6.6550 C.2   261  VAL261      0.2260
     59  O         29.2930   15.4470   -6.6970 O.2   261  VAL261     -0.2867
     60  CB        29.6850   18.1490   -5.8290 C.3   261  VAL261      0.0252
     61  CG1       29.9500   18.6040   -7.2550 C.3   261  VAL261      0.0019
     62  CG2       29.7550   19.3360   -4.8780 C.3   261  VAL261      0.0019
     63  N         28.9890   18.9030  -11.6830 N.3   264  THR264     -0.1218
     64  CA        28.9930   20.3670  -11.7330 C.3   264  THR264      0.1862
     65  C         28.5450   20.9560  -13.0790 C.2   264  THR264      0.2287
     66  O         28.4270   22.1820  -13.1880 O.2   264  THR264     -0.2866
     67  CB        30.3730   20.9620  -11.3710 C.3   264  THR264      0.1770
     68  OG1       31.3500   20.5110  -12.3120 O.3   264  THR264     -0.2211
     69  CG2       30.8020   20.5600   -9.9620 C.3   264  THR264      0.0375
     70  N         26.5270   24.5290  -13.7110 N.3   267  ALA267     -0.1231
     71  CA        26.4640   25.3770  -12.5140 C.3   267  ALA267      0.1694
     72  C         26.4850   26.8620  -12.8760 C.2   267  ALA267      0.2592
     73  O         25.6140   27.6260  -12.4550 O.2   267  ALA267     -0.2718
     74  CB        27.6210   25.0570  -11.5820 C.3   267  ALA267      0.0304
     75  N         27.4870   27.2720  -13.6610 N.am  268  GLY268     -0.1957
     76  CA        27.5630   28.6640  -14.0740 C.3   268  GLY268      0.1869
     77  C         26.3720   29.0920  -14.9350 C.2   268  GLY268      0.2309
     78  O         25.8750   30.2210  -14.8150 O.2   268  GLY268     -0.2863
     79  N         23.4950   29.6160  -12.5640 N.3   271  PHE271     -0.1241
     80  CA        23.7010   30.8690  -11.8590 C.3   271  PHE271      0.1605
     81  C         23.2060   32.0500  -12.7170 C.2   271  PHE271      0.2264
     82  O         22.4770   32.9160  -12.2320 O.2   271  PHE271     -0.2867
     83  CB        25.1720   31.0760  -11.4680 C.3   271  PHE271      0.0534
     84  CG        25.4020   32.3660  -10.7360 C.ar  271  PHE271     -0.0203
     85  CD1       25.2290   32.4270   -9.3580 C.ar  271  PHE271     -0.0042
     86  CD2       25.7260   33.5330  -11.4300 C.ar  271  PHE271     -0.0042
     87  CE1       25.3720   33.6320   -8.6870 C.ar  271  PHE271     -0.0003
     88  CE2       25.8850   34.7400  -10.7670 C.ar  271  PHE271     -0.0003
     89  CZ        25.7190   34.7810   -9.3870 C.ar  271  PHE271     -0.0000
     90  N         22.5740   31.5870   -7.0300 N.3   293  CYS293     -0.1235
     91  CA        23.1680   30.5420   -6.1990 C.3   293  CYS293      0.1677
     92  C         22.1890   29.3910   -5.9170 C.2   293  CYS293      0.2270
     93  O         22.5850   28.2170   -5.8530 O.2   293  CYS293     -0.2867
     94  CB        23.7330   31.1110   -4.8880 C.3   293  CYS293      0.0956
     95  SG        25.2140   32.1230   -5.1580 S.3   293  CYS293     -0.0801
     96  N         22.0170   27.3670   -9.3210 N.3   296  ALA296     -0.1231
     97  CA        23.2810   26.6410   -9.5030 C.3   296  ALA296      0.1694
     98  C         23.4340   25.4710   -8.5220 C.2   296  ALA296      0.2592
     99  O         23.8860   24.3830   -8.8800 O.2   296  ALA296     -0.2718
    100  CB        24.4600   27.5900   -9.3640 C.3   296  ALA296      0.0304
    101  N         23.1290   25.7170   -7.2560 N.am  297  GLY297     -0.1957
    102  CA        23.1950   24.6730   -6.2350 C.3   297  GLY297      0.1869
    103  C         22.2830   23.4840   -6.5150 C.2   297  GLY297      0.2309
    104  O         22.6230   22.3470   -6.1950 O.2   297  GLY297     -0.2863
    105  N         23.8210   21.2200   -9.6950 N.3   300  ILE300     -0.1245
    106  CA        25.0000   20.3870   -9.4440 C.3   300  ILE300      0.1561
    107  C         24.7020   19.1120   -8.6370 C.2   300  ILE300      0.2260
    108  O         25.5890   18.2740   -8.4410 O.2   300  ILE300     -0.2867
    109  CB        26.1600   21.1740   -8.8190 C.3   300  ILE300      0.0252
    110  CG1       25.8470   21.5630   -7.3680 C.3   300  ILE300      0.0019
    111  CG2       26.5090   22.3710   -9.6820 C.3   300  ILE300      0.0019
    112  CD1       27.0280   22.2030   -6.6650 C.3   300  ILE300      0.0001
@<TRIPOS>BOND
     1    77    78    2
     2    77    76    1
     3    76    75    1
     4     7     6    2
     5     8     6   am
     6    70    71    1
     7    75    72   am
     8     1     2    1
     9     6     5    1
    10    66    65    2
    11    65    64    1
    12    72    71    1
    13    72    73    2
    14    81    82    2
    15    81    80    1
    16     4     3    2
    17    79    80    1
    18    71    74    1
    19     5     2    1
    20     2     3    1
    21    68    67    1
    22    80    83    1
    23    64    63    1
    24    64    67    1
    25    83    84    1
    26    86    88   ar
    27    86    84   ar
    28    67    69    1
    29    14    13    1
    30    88    89   ar
    31    84    85   ar
    32    15    13    1
    33     9    10    1
    34    13    10    1
    35   105   106    1
    36   111   109    1
    37    97   100    1
    38    97    96    1
    39    97    98    1
    40   106   109    1
    41   106   107    1
    42    89    87   ar
    43    85    87   ar
    44    12    11    2
    45    10    11    1
    46    99    98    2
    47   109   110    1
    48   107   108    2
    49    98   101   am
    50    21    20    1
    51   110   112    1
    52   101   102    1
    53    61    60    1
    54    90    91    1
    55    16    17    1
    56    59    58    2
    57    58    57    1
    58    20    17    1
    59   103   102    1
    60   103   104    2
    61    17    18    1
    62    91    92    1
    63    91    94    1
    64    92    93    2
    65    60    57    1
    66    60    62    1
    67    57    56    1
    68    34    33    2
    69    95    94    1
    70    18    19    2
    71    18    22   am
    72    33    32    1
    73    22    23    1
    74    29    28   ar
    75    32    31    1
    76    47    45    1
    77    55    53    1
    78    54    52    1
    79    23    26    1
    80    23    24    1
    81    28    30   ar
    82    28    27    1
    83    45    44    1
    84    26    27    1
    85    46    44    1
    86    52    53    1
    87    52    49    1
    88    24    25    2
    89    39    36    1
    90    36    35    1
    91    36    37    1
    92    44    41    1
    93    40    37   am
    94    40    41    1
    95    37    38    2
    96    49    50    1
    97    49    48    1
    98    41    42    1
    99    43    42    2
   100    50    51    2
