@<TRIPOS>MOLECULE
tmp/4lbhA00.pdb
 108 105 0 0 0
SMALL
GASTEIGER

@<TRIPOS>ATOM
      1  N         -3.1240   36.2870   -5.8340 N.3    17  ARG17      -0.1245
      2  CA        -3.8360   36.2970   -7.1130 C.3    17  ARG17       0.1563
      3  C         -2.8420   36.3180   -8.2640 C.2    17  ARG17       0.2260
      4  O         -2.9250   35.5040   -9.1930 O.2    17  ARG17      -0.2867
      5  CB        -4.8150   37.4850   -7.1920 C.3    17  ARG17       0.0307
      6  CG        -5.2690   37.8560   -8.6090 C.3    17  ARG17       0.0489
      7  CD        -6.3310   38.9540   -8.5710 C.3    17  ARG17       0.2205
      8  NE        -7.5450   38.3810   -7.9990 N.pl3  17  ARG17      -0.0865
      9  CZ        -8.4970   37.8030   -8.7160 C.cat  17  ARG17       0.5346
     10  NH1       -8.4190   37.7870  -10.0410 N.pl3  17  ARG17       0.1354
     11  NH2       -9.5330   37.2530   -8.1020 N.pl3  17  ARG17       0.1354
     12  N         -2.2160   33.3200  -11.0920 N.3    21  TYR21      -0.1241
     13  CA        -3.0450   33.8140  -12.1860 C.3    21  TYR21       0.1605
     14  C         -2.9070   32.9460  -13.4320 C.2    21  TYR21       0.2264
     15  O         -3.9070   32.5310  -14.0240 O.2    21  TYR21      -0.2867
     16  CB        -2.7240   35.2760  -12.4990 C.3    21  TYR21       0.0534
     17  CG        -3.8560   35.9800  -13.2140 C.ar   21  TYR21      -0.0201
     18  CD1       -5.0790   36.1770  -12.5840 C.ar   21  TYR21      -0.0009
     19  CD2       -3.7100   36.4390  -14.5160 C.ar   21  TYR21      -0.0009
     20  CE1       -6.1270   36.8110  -13.2280 C.ar   21  TYR21       0.0417
     21  CE2       -4.7550   37.0810  -15.1690 C.ar   21  TYR21       0.0417
     22  CZ        -5.9600   37.2600  -14.5190 C.ar   21  TYR21       0.1957
     23  OH        -7.0070   37.8900  -15.1550 O.3    21  TYR21      -0.2866
     24  N         -4.6190   29.7230  -12.9270 N.3    24  HIS24      -0.1226
     25  CA        -6.0650   29.9320  -12.9500 C.3    24  HIS24       0.1752
     26  C         -6.5650   29.9900  -14.3910 C.2    24  HIS24       0.2595
     27  O         -7.5490   29.3410  -14.7420 O.2    24  HIS24      -0.2718
     28  CB        -6.4220   31.2100  -12.1930 C.3    24  HIS24       0.0759
     29  CG        -7.8510   31.6320  -12.3410 C.ar   24  HIS24       0.0818
     30  ND1       -8.8970   30.9510  -11.7530 N.ar   24  HIS24      -0.2268
     31  CD2       -8.4030   32.6740  -13.0050 C.ar   24  HIS24       0.1154
     32  CE1      -10.0330   31.5580  -12.0520 C.ar   24  HIS24       0.1986
     33  NE2       -9.7610   32.6080  -12.8060 N.ar   24  HIS24      -0.2212
     34  N         -5.8700   30.7470  -15.2330 N.am   25  LEU25      -0.1980
     35  CA        -6.2620   30.8680  -16.6350 C.3    25  LEU25       0.1596
     36  C         -6.0880   29.5480  -17.3900 C.2    25  LEU25       0.2287
     37  O         -6.8770   29.2290  -18.2830 O.2    25  LEU25      -0.2864
     38  CB        -5.4950   31.9920  -17.3270 C.3    25  LEU25       0.0297
     39  CG        -6.1140   33.3870  -17.2440 C.3    25  LEU25       0.0022
     40  CD1       -7.5160   33.3790  -17.8350 C.3    25  LEU25       0.0001
     41  CD2       -6.1470   33.8970  -15.8180 C.3    25  LEU25       0.0001
     42  N         -9.1020   27.4530  -16.5930 N.3    28  LEU28      -0.1245
     43  CA       -10.3240   27.9230  -17.2440 C.3    28  LEU28       0.1561
     44  C        -10.3500   27.6340  -18.7410 C.2    28  LEU28       0.2260
     45  O        -11.4210   27.5070  -19.3290 O.2    28  LEU28      -0.2867
     46  CB       -10.5030   29.4280  -17.0320 C.3    28  LEU28       0.0270
     47  CG       -10.7510   29.9590  -15.6200 C.3    28  LEU28       0.0019
     48  CD1      -11.0350   31.4470  -15.6660 C.3    28  LEU28       0.0001
     49  CD2      -11.9020   29.2160  -14.9510 C.3    28  LEU28       0.0001
     50  N        -18.3150   29.2440  -20.1640 N.3    35  ILE35      -0.1245
     51  CA       -18.2890   30.5520  -19.5240 C.3    35  ILE35       0.1561
     52  C        -18.8660   31.6140  -20.4460 C.2    35  ILE35       0.2260
     53  O        -18.3250   31.8650  -21.5160 O.2    35  ILE35      -0.2867
     54  CB       -16.8570   30.9430  -19.1140 C.3    35  ILE35       0.0252
     55  CG1      -16.3290   29.9430  -18.0810 C.3    35  ILE35       0.0019
     56  CG2      -16.8490   32.3640  -18.5630 C.3    35  ILE35       0.0019
     57  CD1      -14.7930   29.9440  -17.8880 C.3    35  ILE35       0.0001
     58  N        -16.9960   36.8130  -18.0270 N.3    38  GLY38      -0.1210
     59  CA       -16.0710   36.5820  -16.9410 C.3    38  GLY38       0.1956
     60  C        -14.9960   37.6430  -16.8860 C.2    38  GLY38       0.2612
     61  O        -14.6040   38.1680  -17.9220 O.2    38  GLY38      -0.2717
     62  N        -14.5220   37.9380  -15.6810 N.am   39  GLY39      -0.1942
     63  CA       -13.4800   38.9360  -15.5070 C.3    39  GLY39       0.1998
     64  C        -13.2980   39.2940  -14.0500 C.2    39  GLY39       0.2480
     65  O        -14.0860   38.8870  -13.1960 O.2    39  GLY39      -0.2729
     66  N        -12.2440   40.0570  -13.7500 N.am   40  PRO40      -0.2726
     67  CA       -11.9540   40.4550  -12.3700 C.3    40  PRO40       0.1402
     68  C        -12.8140   41.6270  -11.8990 C.2    40  PRO40       0.2269
     69  O        -13.1300   42.5500  -12.6720 O.2    40  PRO40      -0.2865
     70  CB       -10.4760   40.8810  -12.4410 C.3    40  PRO40       0.0296
     71  CG       -10.3390   41.4300  -13.8350 C.3    40  PRO40       0.0237
     72  CD       -11.2360   40.5530  -14.7050 C.3    40  PRO40       0.0939
     73  N        -13.0990   37.8050   -8.5340 N.3    56  SER56      -0.1202
     74  CA       -13.3760   37.1400   -9.7940 C.3    56  SER56       0.2020
     75  C        -14.8770   37.0280   -9.9440 C.2    56  SER56       0.2619
     76  O        -15.5520   36.6830   -8.9870 O.2    56  SER56      -0.2717
     77  CB       -12.7870   35.7210   -9.7870 C.3    56  SER56       0.2103
     78  OG       -11.3590   35.7360   -9.7490 O.3    56  SER56      -0.2182
     79  N        -15.3930   37.3330  -11.1300 N.am   57  PHE57      -0.1961
     80  CA       -16.8060   37.1080  -11.3990 C.3    57  PHE57       0.1771
     81  C        -17.0160   36.3780  -12.7260 C.2    57  PHE57       0.2619
     82  O        -16.4050   36.7280  -13.7410 O.2    57  PHE57      -0.2715
     83  CB       -17.5740   38.4290  -11.3990 C.3    57  PHE57       0.0574
     84  CG       -18.9960   38.2620  -11.8150 C.ar   57  PHE57      -0.0200
     85  CD1      -19.9270   37.7910  -10.9100 C.ar   57  PHE57      -0.0042
     86  CD2      -19.3930   38.5170  -13.1210 C.ar   57  PHE57      -0.0042
     87  CE1      -21.2460   37.6030  -11.2930 C.ar   57  PHE57      -0.0003
     88  CE2      -20.7240   38.3210  -13.5070 C.ar   57  PHE57      -0.0003
     89  CZ       -21.6290   37.8630  -12.5930 C.ar   57  PHE57      -0.0000
     90  N        -17.8950   35.3720  -12.7270 N.am   58  LEU58      -0.1977
     91  CA       -18.1320   34.5700  -13.9180 C.3    58  LEU58       0.1596
     92  C        -19.6220   34.2560  -13.9960 C.2    58  LEU58       0.2287
     93  O        -20.2910   34.1500  -12.9680 O.2    58  LEU58      -0.2864
     94  CB       -17.3930   33.2220  -13.8330 C.3    58  LEU58       0.0297
     95  CG       -15.8950   33.0490  -14.0230 C.3    58  LEU58       0.0022
     96  CD1      -15.5270   31.6180  -13.7230 C.3    58  LEU58       0.0001
     97  CD2      -15.5130   33.3870  -15.4370 C.3    58  LEU58       0.0001
     98  N         -7.1470   29.1710   -7.6620 N.3    77  PHE77      -0.1241
     99  CA        -7.4240   30.2970   -6.7710 C.3    77  PHE77       0.1605
    100  C         -8.0360   29.8110   -5.4570 C.2    77  PHE77       0.2264
    101  O         -7.6910   30.2980   -4.3760 O.2    77  PHE77      -0.2867
    102  CB        -8.3830   31.2950   -7.4360 C.3    77  PHE77       0.0534
    103  CG        -7.7170   32.2930   -8.3470 C.ar   77  PHE77      -0.0203
    104  CD1       -6.3370   32.4670   -8.3510 C.ar   77  PHE77      -0.0042
    105  CD2       -8.4910   33.0870   -9.1810 C.ar   77  PHE77      -0.0042
    106  CE1       -5.7420   33.4220   -9.1870 C.ar   77  PHE77      -0.0003
    107  CE2       -7.9070   34.0410  -10.0140 C.ar   77  PHE77      -0.0003
    108  CZ        -6.5280   34.2010  -10.0210 C.ar   77  PHE77      -0.0000
@<TRIPOS>BOND
     1    53    52    2
     2    52    51    1
     3    50    51    1
     4    51    54    1
     5    45    44    2
     6    54    56    1
     7    54    55    1
     8    44    43    1
     9    37    36    2
    10    55    57    1
    11    58    59    1
    12    61    60    2
    13    40    39    1
    14    36    35    1
    15    38    39    1
    16    38    35    1
    17    39    41    1
    18    43    46    1
    19    43    42    1
    20    46    47    1
    21    59    60    1
    22    60    62   am
    23    35    34    1
    24    62    63    1
    25    48    47    1
    26    47    49    1
    27    63    64    1
    28    97    95    1
    29    34    26   am
    30    21    22   ar
    31    21    19   ar
    32    23    22    1
    33    27    26    2
    34    72    71    1
    35    72    66    1
    36    22    20   ar
    37    19    17   ar
    38    26    25    1
    39    64    66   am
    40    64    65    2
    41    15    14    2
    42    95    94    1
    43    95    96    1
    44    92    91    1
    45    92    93    2
    46    91    94    1
    47    91    90    1
    48    71    70    1
    49    66    67    1
    50    82    81    2
    51    88    86   ar
    52    88    89   ar
    53    14    13    1
    54    20    18   ar
    55    17    18   ar
    56    17    16    1
    57    86    84   ar
    58    31    33   ar
    59    31    29   ar
    60    25    24    1
    61    25    28    1
    62    33    32   ar
    63    90    81   am
    64    81    80    1
    65    69    68    2
    66    89    87   ar
    67    16    13    1
    68    70    67    1
    69    67    68    1
    70    29    28    1
    71    29    30   ar
    72    13    12    1
    73    32    30   ar
    74    84    83    1
    75    84    85   ar
    76    83    80    1
    77    80    79    1
    78    87    85   ar
    79    79    75   am
    80    10     9    1
    81   108   107   ar
    82   108   106   ar
    83   107   105   ar
    84    75    74    1
    85    75    76    2
    86    74    77    1
    87    74    73    1
    88    77    78    1
    89     4     3    2
    90   106   104   ar
    91   105   103   ar
    92     9    11    1
    93     9     8    2
    94     6     7    1
    95     6     5    1
    96     7     8    1
    97   104   103   ar
    98   103   102    1
    99     3     2    1
   100    98    99    1
   101   102    99    1
   102     5     2    1
   103     2     1    1
   104    99   100    1
   105   100   101    2
