@<TRIPOS>MOLECULE
tmp/4lbkA00.pdb
 152 139 0 0 0
SMALL
GASTEIGER

@<TRIPOS>ATOM
      1  N          2.2080   36.1110   30.7200 N.3     5  PRO5       -0.2116
      2  CA         2.9520   34.8630   30.7120 C.3     5  PRO5        0.1372
      3  C          2.0440   33.6580   30.7850 C.2     5  PRO5        0.2244
      4  O          0.9930   33.7060   31.4390 O.2     5  PRO5       -0.2868
      5  CB         3.7980   34.9350   31.9920 C.3     5  PRO5        0.0268
      6  CG         3.7680   36.3510   32.4180 C.3     5  PRO5        0.0207
      7  CD         2.4570   36.8840   31.9450 C.3     5  PRO5        0.0892
      8  N         11.9640   41.4600   24.1530 N.3    32  ARG32      -0.1245
      9  CA        12.4210   40.1390   24.5750 C.3    32  ARG32       0.1563
     10  C         11.3310   39.0810   24.4270 C.2    32  ARG32       0.2260
     11  O         10.1290   39.3750   24.3770 O.2    32  ARG32      -0.2867
     12  CB        12.8530   40.1870   26.0460 C.3    32  ARG32       0.0307
     13  CG        11.6790   40.1870   27.0160 C.3    32  ARG32       0.0489
     14  CD        12.1320   40.4120   28.4510 C.3    32  ARG32       0.2205
     15  NE        12.8700   39.2790   29.0140 N.pl3  32  ARG32      -0.0865
     16  CZ        12.3130   38.2200   29.6040 C.cat  32  ARG32       0.5346
     17  NH1       10.9910   38.1110   29.6820 N.pl3  32  ARG32       0.1354
     18  NH2       13.0810   37.2510   30.1050 N.pl3  32  ARG32       0.1354
     19  N         10.9440   34.9380   26.2010 N.3    34  ALA34      -0.1245
     20  CA        11.5920   33.8600   26.9310 C.3    34  ALA34       0.1562
     21  C         10.7360   32.6110   26.9710 C.2    34  ALA34       0.2260
     22  O          9.5500   32.6610   27.2970 O.2    34  ALA34      -0.2867
     23  CB        11.9440   34.2830   28.3510 C.3    34  ALA34       0.0290
     24  N         11.0380   29.2600   29.2270 N.3    36  ASP36      -0.1239
     25  CA        11.7030   28.6680   30.3850 C.3    36  ASP36       0.1674
     26  C         11.1510   27.2730   30.6640 C.2    36  ASP36       0.2266
     27  O         10.0320   27.1200   31.1880 O.2    36  ASP36      -0.2867
     28  CB        11.4740   29.5580   31.5930 C.3    36  ASP36       0.1410
     29  CG        12.1890   30.8800   31.4780 C.2    36  ASP36       0.3668
     30  OD1       13.3890   30.8630   31.1960 O.co2  36  ASP36      -0.2456
     31  OD2       11.5220   31.9330   31.6380 O.co2  36  ASP36      -0.2456
     32  N         11.1480   24.4190   33.0670 N.3    38  GLN38      -0.1245
     33  CA        11.3890   24.5030   34.5110 C.3    38  GLN38       0.1566
     34  C         11.3390   23.1400   35.1700 C.2    38  GLN38       0.2260
     35  O         10.4550   22.3430   34.8700 O.2    38  GLN38      -0.2867
     36  CB        10.3130   25.4010   35.1410 C.3    38  GLN38       0.0367
     37  CG        10.4850   26.8820   34.7970 C.3    38  GLN38       0.0905
     38  CD         9.1730   27.6540   34.6440 C.2    38  GLN38       0.2608
     39  OE1        9.0980   28.8220   35.0130 O.2    38  GLN38      -0.2717
     40  NE2        8.1450   27.0170   34.0910 N.am   38  GLN38      -0.0878
     41  N         15.4420   26.5770   36.2710 N.3    43  VAL43      -0.1245
     42  CA        15.1590   26.6540   34.8420 C.3    43  VAL43       0.1561
     43  C         16.1920   25.7960   34.1270 C.2    43  VAL43       0.2260
     44  O         17.3630   26.1460   34.0690 O.2    43  VAL43      -0.2867
     45  CB        15.2130   28.0950   34.2860 C.3    43  VAL43       0.0252
     46  CG1       14.8990   28.0840   32.7980 C.3    43  VAL43       0.0019
     47  CG2       14.2260   28.9860   35.0100 C.3    43  VAL43       0.0019
     48  N         16.5860   27.9030   29.5190 N.3    46  HIS46      -0.1241
     49  CA        16.1160   29.2670   29.2630 C.3    46  HIS46       0.1621
     50  C         16.5450   29.6320   27.8520 C.2    46  HIS46       0.2264
     51  O         17.7440   29.5740   27.5400 O.2    46  HIS46      -0.2867
     52  CB        16.7930   30.1730   30.3010 C.3    46  HIS46       0.0745
     53  CG        16.6230   31.6570   30.1180 C.ar   46  HIS46       0.0817
     54  ND1       15.4520   32.3230   30.4090 N.ar   46  HIS46      -0.2268
     55  CD2       17.5380   32.6240   29.8350 C.ar   46  HIS46       0.1154
     56  CE1       15.6380   33.6230   30.2660 C.ar   46  HIS46       0.1986
     57  NE2       16.8950   33.8320   29.9390 N.ar   46  HIS46      -0.2212
     58  N         16.1170   32.6990   25.2700 N.3    48  ASN48      -0.1240
     59  CA        15.8220   34.1230   25.4740 C.3    48  ASN48       0.1653
     60  C         16.2800   35.0140   24.3090 C.2    48  ASN48       0.2266
     61  O         17.3500   35.6200   24.3630 O.2    48  ASN48      -0.2867
     62  CB        16.4560   34.5680   26.8120 C.3    48  ASN48       0.1155
     63  CG        16.3390   36.0510   27.1000 C.2    48  ASN48       0.2627
     64  OD1       17.2540   36.6310   27.7120 O.2    48  ASN48      -0.2716
     65  ND2       15.2220   36.6810   26.7080 N.am   48  ASN48      -0.0877
     66  N         16.6760   38.3170   22.5260 N.3    50  ARG50      -0.1245
     67  CA        16.7480   39.7070   22.9200 C.3    50  ARG50       0.1563
     68  C         16.8820   40.5340   21.6500 C.2    50  ARG50       0.2260
     69  O         17.7730   40.2900   20.8470 O.2    50  ARG50      -0.2867
     70  CB        17.9460   39.9490   23.8330 C.3    50  ARG50       0.0307
     71  CG        17.9020   39.1370   25.1260 C.3    50  ARG50       0.0489
     72  CD        19.1500   39.3840   25.9580 C.3    50  ARG50       0.2205
     73  NE        19.1360   38.5740   27.1640 N.pl3  50  ARG50      -0.0865
     74  CZ        20.0510   38.6230   28.1210 C.cat  50  ARG50       0.5346
     75  NH1       21.0770   39.4550   28.0230 N.pl3  50  ARG50       0.1354
     76  NH2       19.9500   37.8240   29.1740 N.pl3  50  ARG50       0.1354
     77  N         19.9660   44.2410   22.5920 N.3    53  GLU53      -0.1245
     78  CA        21.0510   44.2770   23.5310 C.3    53  GLU53       0.1567
     79  C         22.1830   45.0430   22.8800 C.2    53  GLU53       0.2260
     80  O         22.8360   44.5280   21.9910 O.2    53  GLU53      -0.2867
     81  CB        21.5110   42.8690   23.8720 C.3    53  GLU53       0.0388
     82  CG        22.4890   42.8400   25.0310 C.3    53  GLU53       0.1160
     83  CD        23.1320   41.4830   25.2400 C.2    53  GLU53       0.3649
     84  OE1       23.8540   41.0210   24.3290 O.co2  53  GLU53      -0.2457
     85  OE2       22.9360   40.8890   26.3220 O.co2  53  GLU53      -0.2457
     86  N         20.0090   34.3820   23.9050 N.3    60  VAL60      -0.1245
     87  CA        20.7120   33.9560   25.1030 C.3    60  VAL60       0.1561
     88  C         20.0500   32.6830   25.6280 C.2    60  VAL60       0.2260
     89  O         18.8390   32.6450   25.8310 O.2    60  VAL60      -0.2867
     90  CB        20.7260   35.0520   26.1760 C.3    60  VAL60       0.0252
     91  CG1       21.4650   34.5820   27.4110 C.3    60  VAL60       0.0019
     92  CG2       21.3870   36.3150   25.6280 C.3    60  VAL60       0.0019
     93  N         20.5550   29.6080   28.7740 N.3    62  ASN62      -0.1240
     94  CA        21.2130   29.3790   30.0530 C.3    62  ASN62       0.1653
     95  C         20.3550   28.4560   30.9060 C.2    62  ASN62       0.2266
     96  O         19.2940   28.0090   30.4750 O.2    62  ASN62      -0.2867
     97  CB        21.4690   30.7250   30.7790 C.3    62  ASN62       0.1155
     98  CG        22.6610   30.6820   31.7140 C.2    62  ASN62       0.2627
     99  OD1       23.2240   29.6250   32.0260 O.2    62  ASN62      -0.2716
    100  ND2       23.0720   31.8540   32.1660 N.am   62  ASN62      -0.0877
    101  N         19.1820   28.0250   35.2070 N.3    64  LEU64      -0.1245
    102  CA        19.1240   28.6260   36.5320 C.3    64  LEU64       0.1561
    103  C         18.9990   27.5060   37.5430 C.2    64  LEU64       0.2260
    104  O         18.0440   26.7360   37.4890 O.2    64  LEU64      -0.2867
    105  CB        17.9130   29.5490   36.6510 C.3    64  LEU64       0.0270
    106  CG        17.7200   30.3270   37.9470 C.3    64  LEU64       0.0019
    107  CD1       18.6780   31.5170   37.9690 C.3    64  LEU64       0.0001
    108  CD2       16.2880   30.7850   38.1090 C.3    64  LEU64       0.0001
    109  N         22.1530   31.9300   37.8440 N.3    69  TRP69      -0.1241
    110  CA        22.3850   31.6910   36.4190 C.3    69  TRP69       0.1605
    111  C         23.7690   31.1040   36.1560 C.2    69  TRP69       0.2264
    112  O         24.7620   31.4960   36.7890 O.2    69  TRP69      -0.2867
    113  CB        22.1940   32.9730   35.6220 C.3    69  TRP69       0.0550
    114  CG        20.7600   33.3780   35.5130 C.ar   69  TRP69       0.0003
    115  CD1       20.1560   34.4140   36.1510 C.ar   69  TRP69       0.0946
    116  CD2       19.7350   32.7360   34.7410 C.ar   69  TRP69       0.0152
    117  NE1       18.8230   34.4840   35.8160 N.ar   69  TRP69      -0.2442
    118  CE2       18.5370   33.4540   34.9550 C.ar   69  TRP69       0.0810
    119  CE3       19.7130   31.6230   33.8860 C.ar   69  TRP69       0.0012
    120  CZ2       17.3340   33.0980   34.3540 C.ar   69  TRP69       0.0191
    121  CZ3       18.5160   31.2790   33.2830 C.ar   69  TRP69       0.0001
    122  CH2       17.3420   32.0170   33.5230 C.ar   69  TRP69       0.0015
    123  N         26.2250   31.5540   30.0760 N.3    72  GLU72      -0.1245
    124  CA        25.3700   31.7870   28.9300 C.3    72  GLU72       0.1567
    125  C         25.9510   31.1630   27.6680 C.2    72  GLU72       0.2260
    126  O         27.1790   31.1900   27.4390 O.2    72  GLU72      -0.2867
    127  CB        25.1680   33.2980   28.7120 C.3    72  GLU72       0.0388
    128  CG        24.3410   33.9660   29.7930 C.3    72  GLU72       0.1160
    129  CD        24.1490   35.4680   29.6020 C.2    72  GLU72       0.3649
    130  OE1       24.8260   36.0750   28.7300 O.co2  72  GLU72      -0.2457
    131  OE2       23.3080   36.0390   30.3180 O.co2  72  GLU72      -0.2457
    132  N         25.4200   31.7990   23.5960 N.3    74  ARG74      -0.1245
    133  CA        24.8860   32.8640   22.7600 C.3    74  ARG74       0.1563
    134  C         24.8890   32.5300   21.2640 C.2    74  ARG74       0.2260
    135  O         25.8340   31.9560   20.7430 O.2    74  ARG74      -0.2867
    136  CB        25.6290   34.1680   23.0380 C.3    74  ARG74       0.0307
    137  CG        25.1590   34.8280   24.3160 C.3    74  ARG74       0.0489
    138  CD        26.0730   35.9340   24.8190 C.3    74  ARG74       0.2205
    139  NE        25.4590   36.6480   25.9380 N.pl3  74  ARG74      -0.0865
    140  CZ        24.8560   37.8330   25.8400 C.cat  74  ARG74       0.5346
    141  NH1       24.7860   38.4410   24.6570 N.pl3  74  ARG74       0.1354
    142  NH2       24.3200   38.3900   26.9160 N.pl3  74  ARG74       0.1354
    143  N          6.9910   33.7930   28.0980 N.3   125  SER125     -0.1202
    144  CA         6.8630   35.1770   28.5010 C.3   125  SER125      0.2020
    145  C          7.4720   36.0980   27.4310 C.2   125  SER125      0.2619
    146  O          8.1480   35.6320   26.5050 O.2   125  SER125     -0.2717
    147  CB         7.4810   35.4330   29.8790 C.3   125  SER125      0.2103
    148  OG         8.8790   35.2210   29.9170 O.3   125  SER125     -0.2182
    149  N          7.1560   37.3850   27.5260 N.am  126  GLY126     -0.1956
    150  CA         7.7700   38.3680   26.6630 C.3   126  GLY126      0.1869
    151  C          6.7890   38.9860   25.6970 C.2   126  GLY126      0.2309
    152  O          5.5560   38.8950   25.8480 O.2   126  GLY126     -0.2863
@<TRIPOS>BOND
     1   135   134    2
     2    69    68    2
     3   134   133    1
     4    68    67    1
     5    80    79    2
     6    66    67    1
     7    77    78    1
     8   133   136    1
     9   133   132    1
    10    79    78    1
    11    67    70    1
    12   136   137    1
    13    78    81    1
    14    70    71    1
    15    81    82    1
    16    86    87    1
    17     8     9    1
    18    60    61    2
    19    60    59    1
    20   137   138    1
    21    84    83   ar
    22    11    10    2
    23    10     9    1
    24     9    12    1
    25   141   140    1
    26   138   139    1
    27    82    83    1
    28    87    88    1
    29    87    90    1
    30    71    72    1
    31    83    85   ar
    32    58    59    1
    33    59    62    1
    34    88    89    2
    35    92    90    1
    36   151   152    2
    37   151   150    1
    38   140   139    2
    39   140   142    1
    40    72    73    1
    41    12    13    1
    42    90    91    1
    43    19    20    1
    44   146   145    2
    45   150   149    1
    46    65    63   am
    47    62    63    1
    48    20    21    1
    49    20    23    1
    50    21    22    2
    51    13    14    1
    52    63    64    2
    53    73    74    2
    54   145   149   am
    55   145   144    1
    56   126   125    2
    57    51    50    2
    58   125   124    1
    59    50    49    1
    60    75    74    1
    61   143   144    1
    62    74    76    1
    63    14    15    1
    64   144   147    1
    65   127   124    1
    66   127   128    1
    67   130   129   ar
    68    93    94    1
    69   124   123    1
    70    15    16    2
    71    24    25    1
    72    49    48    1
    73    49    52    1
    74   129   128    1
    75   129   131   ar
    76    16    17    1
    77    16    18    1
    78    55    57   ar
    79    55    53   ar
    80   147   148    1
    81    57    56   ar
    82    94    97    1
    83    94    95    1
    84    53    52    1
    85    53    54   ar
    86    56    54   ar
    87    25    26    1
    88    25    28    1
    89    96    95    2
    90    26    27    2
    91     2     1    1
    92     2     3    1
    93     2     5    1
    94     1     7    1
    95    97    98    1
    96     3     4    2
    97    30    29   ar
    98    29    28    1
    99    29    31   ar
   100    98    99    2
   101    98   100   am
   102     7     6    1
   103     5     6    1
   104    46    45    1
   105    32    33    1
   106   121   122   ar
   107   121   119   ar
   108   122   120   ar
   109   119   116   ar
   110    44    43    2
   111    40    38   am
   112    43    42    1
   113    45    42    1
   114    45    47    1
   115   120   118   ar
   116    33    36    1
   117    33    34    1
   118    38    37    1
   119    38    39    2
   120   116   118   ar
   121   116   114   ar
   122    37    36    1
   123    42    41    1
   124    35    34    2
   125   118   117   ar
   126   101   102    1
   127   114   113    1
   128   114   115   ar
   129   113   110    1
   130   117   115   ar
   131   111   110    1
   132   111   112    2
   133   110   109    1
   134   102   105    1
   135   102   103    1
   136   105   106    1
   137   104   103    2
   138   106   107    1
   139   106   108    1
