@<TRIPOS>MOLECULE
tmp/4lblA00.pdb
 98 91 0 0 0
SMALL
GASTEIGER

@<TRIPOS>ATOM
      1  N          6.1720  -12.5670   -7.3110 N.3    32  ARG32      -0.1245
      2  CA         5.7650  -11.2190   -6.8840 C.3    32  ARG32       0.1563
      3  C          6.8230  -10.1490   -7.1030 C.2    32  ARG32       0.2260
      4  O          8.0320  -10.4170   -7.1410 O.2    32  ARG32      -0.2867
      5  CB         5.3660  -11.2350   -5.4080 C.3    32  ARG32       0.0307
      6  CG         6.5150  -11.5760   -4.4670 C.3    32  ARG32       0.0489
      7  CD         6.0720  -11.7320   -3.0100 C.3    32  ARG32       0.2205
      8  NE         5.3770  -10.5560   -2.4900 N.pl3  32  ARG32      -0.0865
      9  CZ         5.9610   -9.5380   -1.8600 C.cat  32  ARG32       0.5346
     10  NH1        7.2720   -9.5110   -1.6810 N.pl3  32  ARG32       0.1354
     11  NH2        5.2160   -8.5560   -1.3750 N.pl3  32  ARG32       0.1354
     12  N          1.6090    0.9200   -1.5510 N.3    46  HIS46      -0.1241
     13  CA         2.0990   -0.4320   -1.8030 C.3    46  HIS46       0.1621
     14  C          1.6510   -0.8230   -3.2040 C.2    46  HIS46       0.2264
     15  O          0.4530   -0.7360   -3.5150 O.2    46  HIS46      -0.2867
     16  CB         1.4770   -1.3690   -0.7610 C.3    46  HIS46       0.0745
     17  CG         1.7260   -2.8270   -0.9890 C.ar   46  HIS46       0.0817
     18  ND1        2.8960   -3.4390   -0.5940 N.ar   46  HIS46      -0.2268
     19  CD2        0.8520   -3.8300   -1.2410 C.ar   46  HIS46       0.1154
     20  CE1        2.7510   -4.7520   -0.6570 C.ar   46  HIS46       0.1986
     21  NE2        1.5170   -5.0150   -1.0410 N.ar   46  HIS46      -0.2212
     22  N          2.0050   -3.8890   -5.8630 N.3    48  ASN48      -0.1240
     23  CA         2.3300   -5.3020   -5.6650 C.3    48  ASN48       0.1653
     24  C          1.8190   -6.1610   -6.8320 C.2    48  ASN48       0.2266
     25  O          0.7360   -6.7620   -6.7420 O.2    48  ASN48      -0.2867
     26  CB         1.7520   -5.7750   -4.3200 C.3    48  ASN48       0.1155
     27  CG         1.8750   -7.2770   -4.0740 C.2    48  ASN48       0.2627
     28  OD1        1.0550   -7.8230   -3.3450 O.2    48  ASN48      -0.2716
     29  ND2        2.9530   -7.9160   -4.5440 N.am   48  ASN48      -0.0877
     30  N          1.3750   -9.4270   -8.7040 N.3    50  ARG50      -0.1245
     31  CA         1.3050  -10.8220   -8.3250 C.3    50  ARG50       0.1563
     32  C          1.1210  -11.6700   -9.5840 C.2    50  ARG50       0.2260
     33  O          0.2080  -11.4290  -10.3680 O.2    50  ARG50      -0.2867
     34  CB         0.1210  -11.0510   -7.3990 C.3    50  ARG50       0.0307
     35  CG         0.1800  -10.2310   -6.1310 C.3    50  ARG50       0.0489
     36  CD        -1.0360  -10.4730   -5.2490 C.3    50  ARG50       0.2205
     37  NE        -0.9380   -9.6470   -4.0450 N.pl3  50  ARG50      -0.0865
     38  CZ        -1.8600   -9.5970   -3.0930 C.cat  50  ARG50       0.5346
     39  NH1       -2.9050  -10.3970   -3.1420 N.pl3  50  ARG50       0.1354
     40  NH2       -1.6940   -8.8050   -2.0520 N.pl3  50  ARG50       0.1354
     41  N         -1.9580  -15.2370   -8.6870 N.3    53  GLU53      -0.1245
     42  CA        -3.0290  -15.2730   -7.7200 C.3    53  GLU53       0.1567
     43  C         -4.1910  -15.9960   -8.3540 C.2    53  GLU53       0.2260
     44  O         -4.8790  -15.4200   -9.2010 O.2    53  GLU53      -0.2867
     45  CB        -3.4460  -13.8610   -7.3050 C.3    53  GLU53       0.0388
     46  CG        -4.3570  -13.8560   -6.0930 C.3    53  GLU53       0.1160
     47  CD        -4.9580  -12.4970   -5.8110 C.2    53  GLU53       0.3649
     48  OE1       -5.7260  -11.9900   -6.6600 O.co2  53  GLU53      -0.2457
     49  OE2       -4.6990  -11.9560   -4.7100 O.co2  53  GLU53      -0.2457
     50  N         -1.9170   -5.4700   -7.1760 N.3    60  VAL60      -0.1245
     51  CA        -2.6320   -5.0490   -5.9970 C.3    60  VAL60       0.1561
     52  C         -1.9470   -3.8170   -5.4360 C.2    60  VAL60       0.2260
     53  O         -0.7360   -3.8240   -5.1830 O.2    60  VAL60      -0.2867
     54  CB        -2.6630   -6.1420   -4.9240 C.3    60  VAL60       0.0252
     55  CG1       -3.3770   -5.6650   -3.6710 C.3    60  VAL60       0.0019
     56  CG2       -3.3400   -7.3860   -5.4640 C.3    60  VAL60       0.0019
     57  N         -2.3250   -0.7800   -2.2650 N.3    62  ASN62      -0.1240
     58  CA        -2.9860   -0.5510   -0.9730 C.3    62  ASN62       0.1653
     59  C         -2.1290    0.3460   -0.0990 C.2    62  ASN62       0.2266
     60  O         -1.0600    0.7830   -0.5250 O.2    62  ASN62      -0.2867
     61  CB        -3.2620   -1.8890   -0.2740 C.3    62  ASN62       0.1155
     62  CG        -4.4850   -1.8470    0.6390 C.2    62  ASN62       0.2627
     63  OD1       -5.0040   -0.7800    0.9710 O.2    62  ASN62      -0.2716
     64  ND2       -4.8560   -3.0190    1.1550 N.am   62  ASN62      -0.0877
     65  N         -4.0210   -3.0870    6.7530 N.3    69  TRP69      -0.1241
     66  CA        -4.2290   -2.8540    5.3350 C.3    69  TRP69       0.1605
     67  C         -5.6150   -2.2770    5.0630 C.2    69  TRP69       0.2264
     68  O         -6.6050   -2.6770    5.6790 O.2    69  TRP69      -0.2867
     69  CB        -4.0290   -4.1460    4.5360 C.3    69  TRP69       0.0550
     70  CG        -2.5790   -4.5280    4.3770 C.ar   69  TRP69       0.0003
     71  CD1       -1.9300   -5.5800    4.9800 C.ar   69  TRP69       0.0946
     72  CD2       -1.5710   -3.8140    3.6360 C.ar   69  TRP69       0.0152
     73  NE1       -0.6120   -5.6140    4.5840 N.ar   69  TRP69      -0.2442
     74  CE2       -0.3550   -4.5220    3.7960 C.ar   69  TRP69       0.0810
     75  CE3       -1.5850   -2.6750    2.8180 C.ar   69  TRP69       0.0012
     76  CZ2        0.8350   -4.1010    3.2130 C.ar   69  TRP69       0.0191
     77  CZ3       -0.4010   -2.2590    2.2370 C.ar   69  TRP69       0.0001
     78  CH2        0.7960   -2.9680    2.4400 C.ar   69  TRP69       0.0015
     79  N         -8.0900   -2.6210   -0.9800 N.3    72  GLU72      -0.1245
     80  CA        -7.2240   -2.8470   -2.1130 C.3    72  GLU72       0.1567
     81  C         -7.7850   -2.2040   -3.3700 C.2    72  GLU72       0.2260
     82  O         -9.0040   -2.2300   -3.6230 O.2    72  GLU72      -0.2867
     83  CB        -7.0150   -4.3430   -2.3520 C.3    72  GLU72       0.0388
     84  CG        -6.1150   -5.0050   -1.3250 C.3    72  GLU72       0.1160
     85  CD        -5.9660   -6.5090   -1.5170 C.2    72  GLU72       0.3649
     86  OE1       -6.7030   -7.0860   -2.3410 O.co2  72  GLU72      -0.2457
     87  OE2       -5.2000   -7.1380   -0.7400 O.co2  72  GLU72      -0.2457
     88  N         -7.3130   -2.8290   -7.4070 N.3    74  ARG74      -0.1245
     89  CA        -6.8060   -3.9190   -8.2400 C.3    74  ARG74       0.1563
     90  C         -6.9100   -3.6040   -9.7140 C.2    74  ARG74       0.2260
     91  O         -7.9230   -3.0710  -10.1640 O.2    74  ARG74      -0.2867
     92  CB        -7.5320   -5.2160   -7.9230 C.3    74  ARG74       0.0307
     93  CG        -6.9990   -5.8810   -6.6700 C.3    74  ARG74       0.0489
     94  CD        -7.9190   -6.9440   -6.1130 C.3    74  ARG74       0.2205
     95  NE        -7.2660   -7.6940   -5.0380 N.pl3  74  ARG74      -0.0865
     96  CZ        -6.6930   -8.8860   -5.1800 C.cat  74  ARG74       0.5346
     97  NH1       -6.6970   -9.4940   -6.3640 N.pl3  74  ARG74       0.1354
     98  NH2       -6.0940   -9.4510   -4.1470 N.pl3  74  ARG74       0.1354
@<TRIPOS>BOND
     1    33    32    2
     2    91    90    2
     3    90    89    1
     4    32    31    1
     5    44    43    2
     6    30    31    1
     7    41    42    1
     8    43    42    1
     9    31    34    1
    10    89    92    1
    11    89    88    1
    12    92    93    1
    13    42    45    1
    14    34    35    1
    15     1     2    1
    16    45    46    1
    17    50    51    1
    18     4     3    2
    19     3     2    1
    20     2     5    1
    21    24    25    2
    22    24    23    1
    23    93    94    1
    24    48    47   ar
    25    97    96    1
    26    35    36    1
    27    94    95    1
    28    46    47    1
    29    51    52    1
    30    51    54    1
    31    22    23    1
    32    47    49   ar
    33    23    26    1
    34    56    54    1
    35    52    53    2
    36     5     6    1
    37    36    37    1
    38    96    95    2
    39    96    98    1
    40    54    55    1
    41    29    27   am
    42     6     7    1
    43    26    27    1
    44    27    28    2
    45    37    38    2
    46    82    81    2
    47    15    14    2
    48    81    80    1
    49    14    13    1
    50    39    38    1
    51    38    40    1
    52     7     8    1
    53     8     9    2
    54    83    80    1
    55    83    84    1
    56    86    85   ar
    57    57    58    1
    58    80    79    1
    59     9    10    1
    60     9    11    1
    61    13    12    1
    62    13    16    1
    63    85    84    1
    64    85    87   ar
    65    19    21   ar
    66    19    17   ar
    67    21    20   ar
    68    17    16    1
    69    17    18   ar
    70    58    61    1
    71    58    59    1
    72    20    18   ar
    73    60    59    2
    74    61    62    1
    75    62    63    2
    76    62    64   am
    77    77    78   ar
    78    77    75   ar
    79    78    76   ar
    80    75    72   ar
    81    76    74   ar
    82    72    74   ar
    83    72    70   ar
    84    74    73   ar
    85    70    69    1
    86    70    71   ar
    87    69    66    1
    88    73    71   ar
    89    67    66    1
    90    67    68    2
    91    66    65    1
