@<TRIPOS>MOLECULE
tmp/4lbmA00.pdb
 142 129 0 0 0
SMALL
GASTEIGER

@<TRIPOS>ATOM
      1  N         12.2520  -12.1790    7.8700 N.3    33  ARG33      -0.1245
      2  CA        12.6640  -10.8250    7.4710 C.3    33  ARG33       0.1563
      3  C         11.5530   -9.8090    7.6040 C.2    33  ARG33       0.2260
      4  O         10.3680  -10.1530    7.5800 O.2    33  ARG33      -0.2867
      5  CB        13.1460  -10.8370    6.0100 C.3    33  ARG33       0.0307
      6  CG        11.9980  -10.9750    5.0150 C.3    33  ARG33       0.0489
      7  CD        12.4430  -11.1900    3.5780 C.3    33  ARG33       0.2205
      8  NE        13.0030   -9.9870    2.9580 N.pl3  33  ARG33      -0.0865
      9  CZ        12.3060   -9.0630    2.2920 C.cat  33  ARG33       0.5346
     10  NH1       10.9870   -9.1700    2.1650 N.pl3  33  ARG33       0.1354
     11  NH2       12.9360   -8.0220    1.7500 N.pl3  33  ARG33       0.1354
     12  N         11.0150   -5.7490    5.8050 N.3    35  ALA35      -0.1245
     13  CA        11.6540   -4.7390    4.9590 C.3    35  ALA35       0.1562
     14  C         10.8120   -3.4880    4.8460 C.2    35  ALA35       0.2260
     15  O          9.6000   -3.5610    4.5900 O.2    35  ALA35      -0.2867
     16  CB        11.9640   -5.2810    3.5760 C.3    35  ALA35       0.0290
     17  N         10.9430   -0.1870    2.4340 N.3    37  ASP37      -0.1239
     18  CA        11.6240    0.3000    1.2250 C.3    37  ASP37       0.1674
     19  C         11.0650    1.6660    0.8320 C.2    37  ASP37       0.2266
     20  O          9.9230    1.7960    0.3520 O.2    37  ASP37      -0.2867
     21  CB        11.4130   -0.6800    0.0840 C.3    37  ASP37       0.1410
     22  CG        12.1850   -1.9480    0.2660 C.2    37  ASP37       0.3668
     23  OD1       13.4030   -1.8540    0.3780 O.co2  37  ASP37      -0.2456
     24  OD2       11.5840   -3.0400    0.3300 O.co2  37  ASP37      -0.2456
     25  N         10.9270    4.3160   -1.7780 N.3    39  GLN39      -0.1245
     26  CA        11.1250    4.2080   -3.2330 C.3    39  GLN39       0.1566
     27  C         11.1600    5.5490   -3.9270 C.2    39  GLN39       0.2260
     28  O         10.3750    6.4460   -3.6000 O.2    39  GLN39      -0.2867
     29  CB         9.9790    3.4150   -3.8760 C.3    39  GLN39       0.0367
     30  CG         9.7520    2.0400   -3.2720 C.3    39  GLN39       0.0905
     31  CD        10.4660    0.9250   -4.0250 C.2    39  GLN39       0.2608
     32  OE1       10.9830    1.1110   -5.1340 O.2    39  GLN39      -0.2717
     33  NE2       10.4650   -0.2590   -3.4310 N.am   39  GLN39      -0.0878
     34  N         15.3740    2.1850   -4.9570 N.3    44  VAL44      -0.1245
     35  CA        15.0860    2.1160   -3.5050 C.3    44  VAL44       0.1561
     36  C         16.0550    3.0560   -2.8350 C.2    44  VAL44       0.2260
     37  O         17.2560    2.7620   -2.7380 O.2    44  VAL44      -0.2867
     38  CB        15.2050    0.6860   -2.9310 C.3    44  VAL44       0.0252
     39  CG1       14.8820    0.7010   -1.4460 C.3    44  VAL44       0.0019
     40  CG2       14.2340   -0.2390   -3.6530 C.3    44  VAL44       0.0019
     41  N         16.4980    1.0750    2.0110 N.3    47  HIS47      -0.1241
     42  CA        16.0020   -0.2750    2.2940 C.3    47  HIS47       0.1621
     43  C         16.4670   -0.5490    3.7100 C.2    47  HIS47       0.2264
     44  O         17.6690   -0.5260    3.9830 O.2    47  HIS47      -0.2867
     45  CB        16.7010   -1.2160    1.3140 C.3    47  HIS47       0.0745
     46  CG        16.5050   -2.6830    1.5510 C.ar   47  HIS47       0.0817
     47  ND1       15.3240   -3.3460    1.2680 N.ar   47  HIS47      -0.2268
     48  CD2       17.3960   -3.6420    1.8980 C.ar   47  HIS47       0.1154
     49  CE1       15.4880   -4.6410    1.4910 C.ar   47  HIS47       0.1986
     50  NE2       16.7380   -4.8480    1.8560 N.ar   47  HIS47      -0.2212
     51  N         16.2510   -3.4520    6.5250 N.3    49  ASN49      -0.1240
     52  CA        15.9520   -4.8840    6.3630 C.3    49  ASN49       0.1653
     53  C         16.4670   -5.7360    7.5310 C.2    49  ASN49       0.2266
     54  O         17.5540   -6.3200    7.4740 O.2    49  ASN49      -0.2867
     55  CB        16.5390   -5.3220    5.0150 C.3    49  ASN49       0.1155
     56  CG        16.4360   -6.8150    4.7280 C.2    49  ASN49       0.2627
     57  OD1       17.3290   -7.3550    4.0570 O.2    49  ASN49      -0.2716
     58  ND2       15.3770   -7.4860    5.1950 N.am   49  ASN49      -0.0877
     59  N         17.0050   -8.9690    9.4010 N.3    51  ARG51      -0.1245
     60  CA        17.0440  -10.3860    9.0080 C.3    51  ARG51       0.1563
     61  C         17.1910  -11.2020   10.2940 C.2    51  ARG51       0.2260
     62  O         18.0940  -10.9490   11.1060 O.2    51  ARG51      -0.2867
     63  CB        18.2190  -10.6690    8.0660 C.3    51  ARG51       0.0307
     64  CG        18.1400   -9.8680    6.7770 C.3    51  ARG51       0.0489
     65  CD        19.3710  -10.0940    5.9270 C.3    51  ARG51       0.2205
     66  NE        19.2580   -9.3110    4.6940 N.pl3  51  ARG51      -0.0865
     67  CZ        20.1560   -9.3140    3.7200 C.cat  51  ARG51       0.5346
     68  NH1       21.2630  -10.0470    3.8270 N.pl3  51  ARG51       0.1354
     69  NH2       19.9570   -8.5600    2.6460 N.pl3  51  ARG51       0.1354
     70  N         20.4120  -14.7360    9.3340 N.3    54  GLU54      -0.1245
     71  CA        21.4770  -14.6930    8.3420 C.3    54  GLU54       0.1567
     72  C         22.6920  -15.4030    8.9190 C.2    54  GLU54       0.2260
     73  O         23.3510  -14.8910    9.8350 O.2    54  GLU54      -0.2867
     74  CB        21.8220  -13.2680    7.9630 C.3    54  GLU54       0.0388
     75  CG        22.6680  -13.2270    6.7040 C.3    54  GLU54       0.1160
     76  CD        23.3580  -11.9050    6.5270 C.2    54  GLU54       0.3649
     77  OE1       24.0660  -11.4710    7.4540 O.co2  54  GLU54      -0.2457
     78  OE2       23.1940  -11.2960    5.4620 O.co2  54  GLU54      -0.2457
     79  N         20.2050   -5.0070    7.8390 N.3    61  VAL61      -0.1245
     80  CA        20.9160   -4.5670    6.6370 C.3    61  VAL61       0.1561
     81  C         20.2340   -3.3230    6.0920 C.2    61  VAL61       0.2260
     82  O         19.0390   -3.3030    5.9240 O.2    61  VAL61      -0.2867
     83  CB        20.9050   -5.6520    5.5420 C.3    61  VAL61       0.0252
     84  CG1       21.5910   -5.1530    4.2780 C.3    61  VAL61       0.0019
     85  CG2       21.5860   -6.9260    6.0480 C.3    61  VAL61       0.0019
     86  N         20.5170   -0.4770    2.7880 N.3    63  ASN63      -0.1240
     87  CA        21.1370   -0.2650    1.4810 C.3    63  ASN63       0.1653
     88  C         20.2700    0.6280    0.5930 C.2    63  ASN63       0.2266
     89  O         19.1710    1.0250    0.9850 O.2    63  ASN63      -0.2867
     90  CB        21.3870   -1.6260    0.8120 C.3    63  ASN63       0.1155
     91  CG        22.5840   -1.6230   -0.1290 C.2    63  ASN63       0.2627
     92  OD1       23.1290   -0.5740   -0.4750 O.2    63  ASN63      -0.2716
     93  ND2       22.9960   -2.8120   -0.5490 N.am   63  ASN63      -0.0877
     94  N         19.1970    0.8990   -3.7250 N.3    65  LYS65      -0.1245
     95  CA        19.2130    0.2350   -5.0320 C.3    65  LYS65       0.1561
     96  C         19.0370    1.2890   -6.1170 C.2    65  LYS65       0.2260
     97  O         18.0380    2.0060   -6.1370 O.2    65  LYS65      -0.2867
     98  CB        18.0820   -0.8020   -5.1200 C.3    65  LYS65       0.0271
     99  CG        18.1380   -1.6310   -6.3960 C.3    65  LYS65       0.0035
    100  CD        17.2130   -2.8360   -6.3400 C.3    65  LYS65       0.0206
    101  CE        15.8170   -2.5020   -6.8120 C.3    65  LYS65       0.1093
    102  NZ        15.1070   -3.7470   -7.2300 N.3    65  LYS65      -0.1314
    103  N         22.1230   -3.0450   -6.2400 N.3    70  TRP70      -0.1241
    104  CA        22.3220   -2.7460   -4.8190 C.3    70  TRP70       0.1605
    105  C         23.7080   -2.1720   -4.5850 C.2    70  TRP70       0.2264
    106  O         24.6860   -2.5700   -5.2410 O.2    70  TRP70      -0.2867
    107  CB        22.1010   -4.0050   -3.9750 C.3    70  TRP70       0.0550
    108  CG        20.6680   -4.4040   -3.8910 C.ar   70  TRP70       0.0003
    109  CD1       20.0690   -5.4630   -4.5130 C.ar   70  TRP70       0.0946
    110  CD2       19.6330   -3.7340   -3.1560 C.ar   70  TRP70       0.0152
    111  NE1       18.7330   -5.5040   -4.2000 N.ar   70  TRP70      -0.2442
    112  CE2       18.4390   -4.4550   -3.3690 C.ar   70  TRP70       0.0810
    113  CE3       19.6040   -2.6030   -2.3180 C.ar   70  TRP70       0.0012
    114  CZ2       17.2210   -4.0760   -2.7980 C.ar   70  TRP70       0.0191
    115  CZ3       18.3860   -2.2350   -1.7450 C.ar   70  TRP70       0.0001
    116  CH2       17.2170   -2.9690   -1.9880 C.ar   70  TRP70       0.0015
    117  N         26.3470   -2.3070    1.4500 N.3    73  GLU73      -0.1245
    118  CA        25.4960   -2.5010    2.6170 C.3    73  GLU73       0.1567
    119  C         26.0660   -1.8360    3.8490 C.2    73  GLU73       0.2260
    120  O         27.2920   -1.8150    4.0640 O.2    73  GLU73      -0.2867
    121  CB        25.3000   -4.0000    2.9020 C.3    73  GLU73       0.0388
    122  CG        24.4790   -4.6990    1.8300 C.3    73  GLU73       0.1160
    123  CD        24.2750   -6.1830    2.0860 C.2    73  GLU73       0.3649
    124  OE1       24.9920   -6.7680    2.9370 O.co2  73  GLU73      -0.2457
    125  OE2       23.4080   -6.7640    1.4090 O.co2  73  GLU73      -0.2457
    126  N         25.5600   -2.4490    7.8840 N.3    75  ARG75      -0.1245
    127  CA        24.9900   -3.4520    8.7770 C.3    75  ARG75       0.1563
    128  C         25.0300   -3.0020   10.2200 C.2    75  ARG75       0.2260
    129  O         25.9870   -2.3500   10.6450 O.2    75  ARG75      -0.2867
    130  CB        25.7390   -4.7770    8.6150 C.3    75  ARG75       0.0307
    131  CG        25.3610   -5.4530    7.3180 C.3    75  ARG75       0.0489
    132  CD        26.2760   -6.5930    6.9390 C.3    75  ARG75       0.2205
    133  NE        25.6920   -7.2860    5.7910 N.pl3  75  ARG75      -0.0865
    134  CZ        25.1410   -8.4910    5.8570 C.cat  75  ARG75       0.5346
    135  NH1       25.1460   -9.1530    7.0110 N.pl3  75  ARG75       0.1354
    136  NH2       24.6170   -9.0480    4.7690 N.pl3  75  ARG75       0.1354
    137  N          6.9870   -4.7500    3.8890 N.3   126  SER126     -0.1217
    138  CA         6.8310   -6.1580    3.5430 C.3   126  SER126      0.1889
    139  C          7.5150   -7.0220    4.5750 C.2   126  SER126      0.2288
    140  O          8.2320   -6.5210    5.4470 O.2   126  SER126     -0.2866
    141  CB         7.3750   -6.4700    2.1450 C.3   126  SER126      0.2089
    142  OG         8.7730   -6.2430    2.0890 O.3   126  SER126     -0.2183
@<TRIPOS>BOND
     1   102   101    1
     2   101   100    1
     3    99   100    1
     4    99    98    1
     5   103   104    1
     6    97    96    2
     7    96    95    1
     8   106   105    2
     9    32    31    2
    10    98    95    1
    11    95    94    1
    12    34    35    1
    13   104   105    1
    14   104   107    1
    15   109   111   ar
    16   109   108   ar
    17   111   112   ar
    18    31    33   am
    19    31    30    1
    20   107   108    1
    21    27    28    2
    22    27    26    1
    23   108   110   ar
    24    29    30    1
    25    29    26    1
    26    40    38    1
    27    35    38    1
    28    35    36    1
    29   112   110   ar
    30   112   114   ar
    31    26    25    1
    32   110   113   ar
    33    38    39    1
    34    36    37    2
    35   114   116   ar
    36   113   115   ar
    37   116   115   ar
    38    93    91   am
    39    92    91    2
    40    91    90    1
    41    21    22    1
    42    21    18    1
    43    22    24   ar
    44    22    23   ar
    45    20    19    2
    46    88    89    2
    47    88    87    1
    48    90    87    1
    49    19    18    1
    50    18    17    1
    51    47    49   ar
    52    47    46   ar
    53    45    46    1
    54    45    42    1
    55   125   123   ar
    56   117   118    1
    57    87    86    1
    58    49    50   ar
    59    46    48   ar
    60    11     9    1
    61   122   123    1
    62   122   121    1
    63    50    48   ar
    64    41    42    1
    65   123   124   ar
    66   142   141    1
    67   141   138    1
    68    10     9    1
    69     9     8    2
    70    42    43    1
    71   118   121    1
    72   118   119    1
    73    69    67    1
    74     8     7    1
    75   138   137    1
    76   138   139    1
    77    16    13    1
    78     7     6    1
    79    43    44    2
    80    67    68    1
    81    67    66    2
    82   119   120    2
    83    57    56    2
    84    84    83    1
    85   139   140    2
    86    15    14    2
    87    66    65    1
    88    56    55    1
    89    56    58   am
    90   136   134    1
    91    14    13    1
    92    13    12    1
    93    55    52    1
    94     6     5    1
    95    78    76   ar
    96    83    85    1
    97    83    80    1
    98   133   134    2
    99   133   132    1
   100   134   135    1
   101    82    81    2
   102    65    64    1
   103     5     2    1
   104    81    80    1
   105    52    51    1
   106    52    53    1
   107    76    75    1
   108    76    77   ar
   109    80    79    1
   110    75    74    1
   111    64    63    1
   112   132   131    1
   113   131   130    1
   114     2     3    1
   115     2     1    1
   116    54    53    2
   117     4     3    2
   118   126   127    1
   119    74    71    1
   120    63    60    1
   121    71    72    1
   122    71    70    1
   123   130   127    1
   124   127   128    1
   125    72    73    2
   126    60    59    1
   127    60    61    1
   128   128   129    2
   129    61    62    2
