@<TRIPOS>MOLECULE
tmp/4lbpA00.pdb
 89 85 0 0 0
SMALL
GASTEIGER

@<TRIPOS>ATOM
      1  N         -3.1090   36.2640   -5.7040 N.3    16  ARG16      -0.1245
      2  CA        -3.7940   36.2810   -6.9950 C.3    16  ARG16       0.1563
      3  C         -2.7760   36.2770   -8.1340 C.2    16  ARG16       0.2260
      4  O         -2.8560   35.4490   -9.0470 O.2    16  ARG16      -0.2867
      5  CB        -4.7230   37.4970   -7.1140 C.3    16  ARG16       0.0307
      6  CG        -5.1950   37.8000   -8.5360 C.3    16  ARG16       0.0489
      7  CD        -6.3340   38.8400   -8.5570 C.3    16  ARG16       0.2205
      8  NE        -7.5470   38.2490   -8.0010 N.pl3  16  ARG16      -0.0865
      9  CZ        -8.4700   37.6220   -8.7210 C.cat  16  ARG16       0.5346
     10  NH1       -8.3520   37.5510  -10.0400 N.pl3  16  ARG16       0.1354
     11  NH2       -9.5170   37.0680   -8.1190 N.pl3  16  ARG16       0.1354
     12  N         -2.2760   33.3570  -10.9720 N.3    20  TYR20      -0.1241
     13  CA        -3.1230   33.8940  -12.0360 C.3    20  TYR20       0.1605
     14  C         -3.0040   33.0580  -13.3020 C.2    20  TYR20       0.2264
     15  O         -4.0080   32.7160  -13.9340 O.2    20  TYR20      -0.2867
     16  CB        -2.7380   35.3510  -12.3040 C.3    20  TYR20       0.0534
     17  CG        -3.6580   36.1270  -13.2270 C.ar   20  TYR20      -0.0201
     18  CD1       -5.0230   35.8480  -13.3000 C.ar   20  TYR20      -0.0009
     19  CD2       -3.1580   37.1490  -14.0190 C.ar   20  TYR20      -0.0009
     20  CE1       -5.8520   36.5650  -14.1440 C.ar   20  TYR20       0.0417
     21  CE2       -3.9800   37.8690  -14.8640 C.ar   20  TYR20       0.0417
     22  CZ        -5.3240   37.5720  -14.9240 C.ar   20  TYR20       0.1957
     23  OH        -6.1360   38.2980  -15.7670 O.3    20  TYR20      -0.2866
     24  N         -4.7500   29.8020  -12.6880 N.3    23  HIS23      -0.1226
     25  CA        -6.1950   30.0170  -12.6940 C.3    23  HIS23       0.1752
     26  C         -6.7110   30.0420  -14.1320 C.2    23  HIS23       0.2595
     27  O         -7.6580   29.3270  -14.4690 O.2    23  HIS23      -0.2718
     28  CB        -6.5270   31.3220  -11.9810 C.3    23  HIS23       0.0759
     29  CG        -7.9680   31.7150  -12.0610 C.ar   23  HIS23       0.0818
     30  ND1       -8.9600   31.0460  -11.3780 N.ar   23  HIS23      -0.2268
     31  CD2       -8.5810   32.7280  -12.7190 C.ar   23  HIS23       0.1154
     32  CE1      -10.1240   31.6250  -11.6170 C.ar   23  HIS23       0.1986
     33  NE2       -9.9230   32.6490  -12.4260 N.ar   23  HIS23      -0.2212
     34  N         -6.0760   30.8470  -14.9810 N.am   24  LEU24      -0.1980
     35  CA        -6.4860   30.9470  -16.3790 C.3    24  LEU24       0.1596
     36  C         -6.3340   29.6170  -17.1260 C.2    24  LEU24       0.2287
     37  O         -7.1340   29.2990  -18.0020 O.2    24  LEU24      -0.2864
     38  CB        -5.7310   32.0560  -17.0980 C.3    24  LEU24       0.0297
     39  CG        -5.8470   33.4820  -16.5620 C.3    24  LEU24       0.0022
     40  CD1       -5.1450   34.4510  -17.5010 C.3    24  LEU24       0.0001
     41  CD2       -7.2950   33.8980  -16.3540 C.3    24  LEU24       0.0001
     42  N         -9.2880   27.5530  -16.2380 N.3    27  LEU27      -0.1245
     43  CA       -10.4900   28.0020  -16.9330 C.3    27  LEU27       0.1561
     44  C        -10.4730   27.6520  -18.4180 C.2    27  LEU27       0.2260
     45  O        -11.5250   27.4920  -19.0290 O.2    27  LEU27      -0.2867
     46  CB       -10.6590   29.5130  -16.7870 C.3    27  LEU27       0.0270
     47  CG       -10.8980   30.0650  -15.3830 C.3    27  LEU27       0.0019
     48  CD1      -11.1860   31.5590  -15.4730 C.3    27  LEU27       0.0001
     49  CD2      -12.0470   29.3310  -14.7040 C.3    27  LEU27       0.0001
     50  N        -16.8730   36.6410  -18.0650 N.3    37  GLY37      -0.1210
     51  CA       -15.8910   36.4060  -17.0210 C.3    37  GLY37       0.1956
     52  C        -14.8920   37.5350  -16.9170 C.2    37  GLY37       0.2612
     53  O        -14.5290   38.1280  -17.9290 O.2    37  GLY37      -0.2717
     54  N        -14.4510   37.8260  -15.6980 N.am   38  GLY38      -0.1942
     55  CA       -13.4610   38.8640  -15.4950 C.3    38  GLY38       0.1998
     56  C        -13.2730   39.1980  -14.0350 C.2    38  GLY38       0.2480
     57  O        -14.0440   38.7580  -13.1710 O.2    38  GLY38      -0.2729
     58  N        -12.2430   39.9950  -13.7440 N.am   39  PRO39      -0.2726
     59  CA       -11.9600   40.3590  -12.3590 C.3    39  PRO39       0.1402
     60  C        -12.7880   41.5520  -11.9050 C.2    39  PRO39       0.2269
     61  O        -13.0820   42.4500  -12.6870 O.2    39  PRO39      -0.2865
     62  CB       -10.4770   40.7610  -12.4140 C.3    39  PRO39       0.0296
     63  CG       -10.3370   41.3680  -13.7890 C.3    39  PRO39       0.0237
     64  CD       -11.2210   40.5070  -14.6790 C.3    39  PRO39       0.0939
     65  N        -12.9540   37.6470   -8.5980 N.3    54  SER54      -0.1217
     66  CA       -13.2730   36.9520   -9.8360 C.3    54  SER54       0.1889
     67  C        -14.7760   36.8560   -9.9550 C.2    54  SER54       0.2288
     68  O        -15.4370   36.4780   -8.9950 O.2    54  SER54      -0.2866
     69  CB       -12.7170   35.5290   -9.7980 C.3    54  SER54       0.2089
     70  OG       -11.3030   35.5080   -9.7810 O.3    54  SER54      -0.2183
     71  N        -17.7740   35.2440  -12.7220 N.3    56  LEU56      -0.1245
     72  CA       -18.0550   34.4570  -13.9210 C.3    56  LEU56       0.1561
     73  C        -19.5530   34.1990  -14.0210 C.2    56  LEU56       0.2260
     74  O        -20.2260   34.0860  -13.0070 O.2    56  LEU56      -0.2867
     75  CB       -17.3880   33.0860  -13.8280 C.3    56  LEU56       0.0270
     76  CG       -15.8850   32.9260  -13.6680 C.3    56  LEU56       0.0019
     77  CD1      -15.5670   31.4710  -13.4430 C.3    56  LEU56       0.0001
     78  CD2      -15.1740   33.4380  -14.9060 C.3    56  LEU56       0.0001
     79  N         -7.1050   29.1530   -7.4320 N.3    74  PHE74      -0.1241
     80  CA        -7.3610   30.2950   -6.5510 C.3    74  PHE74       0.1605
     81  C         -7.9670   29.8280   -5.2310 C.2    74  PHE74       0.2264
     82  O         -7.5840   30.2920   -4.1550 O.2    74  PHE74      -0.2867
     83  CB        -8.3070   31.3010   -7.2250 C.3    74  PHE74       0.0534
     84  CG        -7.6180   32.3040   -8.1110 C.ar   74  PHE74      -0.0203
     85  CD1       -6.2290   32.4460   -8.0970 C.ar   74  PHE74      -0.0042
     86  CD2       -8.3640   33.1340   -8.9350 C.ar   74  PHE74      -0.0042
     87  CE1       -5.6060   33.3860   -8.9070 C.ar   74  PHE74      -0.0003
     88  CE2       -7.7480   34.0780   -9.7410 C.ar   74  PHE74      -0.0003
     89  CZ        -6.3580   34.2030   -9.7260 C.ar   74  PHE74      -0.0000
@<TRIPOS>BOND
     1    45    44    2
     2    44    43    1
     3    50    51    1
     4    37    36    2
     5    53    52    2
     6    40    39    1
     7    36    35    1
     8    38    39    1
     9    38    35    1
    10    51    52    1
    11    43    46    1
    12    43    42    1
    13    52    54   am
    14    46    47    1
    15    39    41    1
    16    35    34    1
    17    23    22    1
    18    54    55    1
    19    55    56    1
    20    48    47    1
    21    47    49    1
    22    34    26   am
    23    22    21   ar
    24    22    20   ar
    25    78    76    1
    26    21    19   ar
    27    64    63    1
    28    64    58    1
    29    27    26    2
    30    20    18   ar
    31    26    25    1
    32    56    58   am
    33    56    57    2
    34    73    72    1
    35    73    74    2
    36    19    17   ar
    37    15    14    2
    38    72    75    1
    39    72    71    1
    40    75    76    1
    41    63    62    1
    42    58    59    1
    43    76    77    1
    44    14    13    1
    45    18    17   ar
    46    17    16    1
    47    31    33   ar
    48    31    29   ar
    49    25    24    1
    50    25    28    1
    51    61    60    2
    52    33    32   ar
    53    62    59    1
    54    59    60    1
    55    16    13    1
    56    29    28    1
    57    29    30   ar
    58    13    12    1
    59    32    30   ar
    60    10     9    1
    61    67    66    1
    62    67    68    2
    63    66    69    1
    64    66    65    1
    65    69    70    1
    66    88    89   ar
    67    88    86   ar
    68    89    87   ar
    69     4     3    2
    70    86    84   ar
    71    87    85   ar
    72     9    11    1
    73     9     8    2
    74     7     6    1
    75     7     8    1
    76     6     5    1
    77     3     2    1
    78    84    85   ar
    79    84    83    1
    80    79    80    1
    81    83    80    1
    82     5     2    1
    83     2     1    1
    84    80    81    1
    85    81    82    2
