@<TRIPOS>MOLECULE
tmp/4lbrA01.pdb
 198 201 0 0 0
SMALL
GASTEIGER

@<TRIPOS>ATOM
      1  N          8.4440   -8.6250   -1.9300 N.3    21  TRP21      -0.1241
      2  CA         7.9690   -9.3360   -0.7430 C.3    21  TRP21       0.1605
      3  C          6.8640  -10.3150   -1.1600 C.2    21  TRP21       0.2264
      4  O          5.9050   -9.9160   -1.8260 O.2    21  TRP21      -0.2867
      5  CB         7.4530   -8.3570    0.3140 C.3    21  TRP21       0.0550
      6  CG         6.8030   -9.0050    1.4980 C.ar   21  TRP21       0.0003
      7  CD1        7.1930  -10.1540    2.1560 C.ar   21  TRP21       0.0946
      8  CD2        5.6170   -8.5470    2.1590 C.ar   21  TRP21       0.0152
      9  NE1        6.2980  -10.4400    3.1660 N.ar   21  TRP21      -0.2442
     10  CE2        5.3260   -9.4690    3.1910 C.ar   21  TRP21       0.0810
     11  CE3        4.7750   -7.4390    1.9780 C.ar   21  TRP21       0.0012
     12  CZ2        4.2220   -9.3180    4.0320 C.ar   21  TRP21       0.0191
     13  CZ3        3.6780   -7.2940    2.8030 C.ar   21  TRP21       0.0001
     14  CH2        3.4090   -8.2270    3.8190 C.ar   21  TRP21       0.0015
     15  N         15.0340   -9.9370    4.7120 N.3    48  VAL48      -0.1231
     16  CA        13.9900  -10.6710    5.4260 C.3    48  VAL48       0.1692
     17  C         13.0070  -11.3500    4.4600 C.2    48  VAL48       0.2592
     18  O         12.2920  -12.2680    4.8480 O.2    48  VAL48      -0.2718
     19  CB        13.2730   -9.7270    6.4260 C.3    48  VAL48       0.0266
     20  CG1       12.3190   -8.7880    5.7140 C.3    48  VAL48       0.0020
     21  CG2       12.5530  -10.4970    7.5300 C.3    48  VAL48       0.0020
     22  N         12.9740  -10.9150    3.1920 N.am   49  TYR49      -0.1962
     23  CA        12.0710  -11.5280    2.2200 C.3    49  TYR49       0.1771
     24  C         12.5310  -12.9350    1.7940 C.2    49  TYR49       0.2619
     25  O         11.7430  -13.6780    1.2030 O.2    49  TYR49      -0.2715
     26  CB        11.8820  -10.6430    0.9760 C.3    49  TYR49       0.0574
     27  CG        11.3090   -9.2690    1.2530 C.ar   49  TYR49      -0.0198
     28  CD1       10.6960   -8.9560    2.4710 C.ar   49  TYR49      -0.0009
     29  CD2       11.3920   -8.2650    0.2850 C.ar   49  TYR49      -0.0009
     30  CE1       10.2100   -7.6720    2.7340 C.ar   49  TYR49       0.0417
     31  CE2       10.8990   -6.9830    0.5260 C.ar   49  TYR49       0.0417
     32  CZ        10.3220   -6.6850    1.7590 C.ar   49  TYR49       0.1957
     33  OH         9.8630   -5.4030    1.9950 O.3    49  TYR49      -0.2866
     34  N         13.7980  -13.2720    2.0690 N.am   50  GLN50      -0.1977
     35  CA        14.3580  -14.6110    1.8660 C.3    50  GLN50       0.1601
     36  C         14.4670  -15.0230    0.4010 C.2    50  GLN50       0.2287
     37  O         14.5550  -16.2050    0.0970 O.2    50  GLN50      -0.2864
     38  CB        13.6050  -15.6960    2.6690 C.3    50  GLN50       0.0394
     39  CG        13.6510  -15.4620    4.1730 C.3    50  GLN50       0.0908
     40  CD        13.0240  -16.5800    5.0080 C.2    50  GLN50       0.2608
     41  OE1       12.2650  -16.3180    5.9380 O.2    50  GLN50      -0.2717
     42  NE2       13.3460  -17.8280    4.6880 N.am   50  GLN50      -0.0878
     43  N         17.6790   -5.6600    8.2110 N.3    80  TRP80      -0.1241
     44  CA        16.6560   -6.2330    9.0670 C.3    80  TRP80       0.1605
     45  C         16.9000   -5.8670   10.5520 C.2    80  TRP80       0.2264
     46  O         18.0030   -5.4950   10.9650 O.2    80  TRP80      -0.2867
     47  CB        16.4690   -7.7520    8.8220 C.3    80  TRP80       0.0550
     48  CG        15.3160   -8.2750    9.6220 C.ar   80  TRP80       0.0003
     49  CD1       15.3750   -9.1370   10.6980 C.ar   80  TRP80       0.0946
     50  CD2       13.9600   -7.8250    9.5450 C.ar   80  TRP80       0.0152
     51  NE1       14.1380   -9.2470   11.2780 N.ar   80  TRP80      -0.2442
     52  CE2       13.2490   -8.4600   10.5910 C.ar   80  TRP80       0.0810
     53  CE3       13.2690   -6.9500    8.6860 C.ar   80  TRP80       0.0012
     54  CZ2       11.8860   -8.2580   10.7940 C.ar   80  TRP80       0.0191
     55  CZ3       11.9120   -6.7520    8.8900 C.ar   80  TRP80       0.0001
     56  CH2       11.2330   -7.4060    9.9380 C.ar   80  TRP80       0.0015
     57  N         15.0480   -1.0370    7.7980 N.3   111  HIS111     -0.1226
     58  CA        13.7460   -1.5980    7.4030 C.3   111  HIS111      0.1752
     59  C         12.6100   -1.1460    8.3330 C.2   111  HIS111      0.2596
     60  O         11.5240   -0.8080    7.8660 O.2   111  HIS111     -0.2718
     61  CB        13.8660   -3.1210    7.3480 C.3   111  HIS111      0.0759
     62  CG        12.8360   -3.8040    6.5070 C.ar  111  HIS111      0.0818
     63  ND1       13.1120   -4.9860    5.8510 N.ar  111  HIS111     -0.2268
     64  CD2       11.5320   -3.4960    6.2600 C.ar  111  HIS111      0.1154
     65  CE1       12.0060   -5.3600    5.2240 C.ar  111  HIS111      0.1986
     66  NE2       11.0370   -4.4830    5.4530 N.ar  111  HIS111     -0.2212
     67  N         12.8820   -1.1840    9.6400 N.am  112  TRP112     -0.1976
     68  CA        11.9640   -0.6980   10.6670 C.3   112  TRP112      0.1640
     69  C         12.8110    0.0120   11.7200 C.2   112  TRP112      0.2290
     70  O         13.9740   -0.3280   11.9170 O.2   112  TRP112     -0.2864
     71  CB        11.1830   -1.8620   11.3490 C.3   112  TRP112      0.0576
     72  CG        10.1870   -2.5200   10.4370 C.ar  112  TRP112      0.0006
     73  CD1       10.4230   -3.5180    9.5240 C.ar  112  TRP112      0.0946
     74  CD2        8.8080   -2.1760   10.3000 C.ar  112  TRP112      0.0152
     75  NE1        9.2660   -3.8120    8.8270 N.ar  112  TRP112     -0.2442
     76  CE2        8.2680   -2.9940    9.2820 C.ar  112  TRP112      0.0810
     77  CE3        7.9730   -1.2510   10.9390 C.ar  112  TRP112      0.0012
     78  CZ2        6.9450   -2.9000    8.8770 C.ar  112  TRP112      0.0191
     79  CZ3        6.6520   -1.1640   10.5380 C.ar  112  TRP112      0.0001
     80  CH2        6.1520   -1.9810    9.5110 C.ar  112  TRP112      0.0015
     81  N         12.8180   -0.2670   14.8520 N.3   114  THR114     -0.1218
     82  CA        13.0260   -1.1180   16.0080 C.3   114  THR114      0.1862
     83  C         14.1680   -2.1260   15.8220 C.2   114  THR114      0.2287
     84  O         14.1560   -2.9090   14.8660 O.2   114  THR114     -0.2866
     85  CB        11.7420   -1.9440   16.2310 C.3   114  THR114      0.1770
     86  OG1       11.4050   -2.6060   15.0090 O.3   114  THR114     -0.2211
     87  CG2       10.5580   -1.0730   16.6070 C.3   114  THR114      0.0375
     88  N         15.9150   -5.5930   17.1770 N.3   116  PHE116     -0.1241
     89  CA        15.5850   -6.8230   17.8770 C.3   116  PHE116      0.1605
     90  C         16.8740   -7.5450   18.2730 C.2   116  PHE116      0.2264
     91  O         17.9230   -7.3630   17.6470 O.2   116  PHE116     -0.2867
     92  CB        14.8100   -7.8140   16.9930 C.3   116  PHE116      0.0534
     93  CG        13.5080   -7.3210   16.3910 C.ar  116  PHE116     -0.0203
     94  CD1       12.8350   -6.1870   16.8160 C.ar  116  PHE116     -0.0042
     95  CD2       12.9510   -8.0740   15.3560 C.ar  116  PHE116     -0.0042
     96  CE1       11.6440   -5.7990   16.1950 C.ar  116  PHE116     -0.0003
     97  CE2       11.7740   -7.6960   14.7410 C.ar  116  PHE116     -0.0003
     98  CZ        11.1180   -6.5610   15.1510 C.ar  116  PHE116     -0.0000
     99  N         12.3260  -12.7790   14.1360 N.3   123  PHE123     -0.1241
    100  CA        11.4260  -12.2250   15.1440 C.3   123  PHE123      0.1605
    101  C         11.6350  -12.9880   16.4550 C.2   123  PHE123      0.2264
    102  O         10.8400  -13.8580   16.8080 O.2   123  PHE123     -0.2867
    103  CB         9.9580  -12.3170   14.7120 C.3   123  PHE123      0.0534
    104  CG         9.5910  -11.3720   13.5940 C.ar  123  PHE123     -0.0203
    105  CD1        9.0660  -10.1110   13.8730 C.ar  123  PHE123     -0.0042
    106  CD2        9.7660  -11.7410   12.2690 C.ar  123  PHE123     -0.0042
    107  CE1        8.7140   -9.2470   12.8440 C.ar  123  PHE123     -0.0003
    108  CE2        9.4120  -10.8780   11.2430 C.ar  123  PHE123     -0.0003
    109  CZ         8.8790   -9.6350   11.5370 C.ar  123  PHE123     -0.0000
    110  N          9.3180    3.0160    7.4750 N.3   161  ASN161     -0.1240
    111  CA         8.3870    2.9260    8.5920 C.3   161  ASN161      0.1653
    112  C          8.7920    3.8020    9.7740 C.2   161  ASN161      0.2266
    113  O          8.5020    3.4680   10.9320 O.2   161  ASN161     -0.2867
    114  CB         8.2030    1.4870    9.0660 C.3   161  ASN161      0.1155
    115  CG         7.7510    0.5860    7.9500 C.2   161  ASN161      0.2627
    116  OD1        6.6290    0.7410    7.4430 O.2   161  ASN161     -0.2716
    117  ND2        8.6130   -0.3260    7.5270 N.am  161  ASN161     -0.0877
    118  N          4.7900    1.9180   -0.3230 N.3   210  TYR210     -0.1241
    119  CA         4.6640    0.4830   -0.4000 C.3   210  TYR210      0.1605
    120  C          3.2090    0.0260   -0.2230 C.2   210  TYR210      0.2264
    121  O          2.3380    0.7900    0.1930 O.2   210  TYR210     -0.2867
    122  CB         5.6370   -0.2210    0.5440 C.3   210  TYR210      0.0534
    123  CG         5.3560   -0.2610    2.0320 C.ar  210  TYR210     -0.0201
    124  CD1        4.2730   -0.9550    2.5610 C.ar  210  TYR210     -0.0009
    125  CD2        6.2810    0.2720    2.9230 C.ar  210  TYR210     -0.0009
    126  CE1        4.1130   -1.1070    3.9360 C.ar  210  TYR210      0.0417
    127  CE2        6.1400    0.1230    4.3040 C.ar  210  TYR210      0.0417
    128  CZ         5.0640   -0.5840    4.8040 C.ar  210  TYR210      0.1957
    129  OH         4.9030   -0.8140    6.1420 O.3   210  TYR210     -0.2866
    130  N         -1.7760  -12.2120    6.4840 N.3   220  TRP220     -0.1241
    131  CA        -2.7240  -11.9890    7.5740 C.3   220  TRP220      0.1605
    132  C         -4.0250  -11.3490    7.1000 C.2   220  TRP220      0.2264
    133  O         -4.8150  -10.8720    7.9130 O.2   220  TRP220     -0.2867
    134  CB        -2.0780  -11.1320    8.6650 C.3   220  TRP220      0.0550
    135  CG        -1.4660   -9.8670    8.1420 C.ar  220  TRP220      0.0003
    136  CD1       -2.1230   -8.7140    7.8260 C.ar  220  TRP220      0.0946
    137  CD2       -0.0720   -9.6250    7.8620 C.ar  220  TRP220      0.0152
    138  NE1       -1.2300   -7.7700    7.3680 N.ar  220  TRP220     -0.2442
    139  CE2        0.0340   -8.3010    7.3880 C.ar  220  TRP220      0.0810
    140  CE3        1.0960  -10.3950    7.9770 C.ar  220  TRP220      0.0012
    141  CZ2        1.2650   -7.7300    7.0220 C.ar  220  TRP220      0.0191
    142  CZ3        2.3150   -9.8260    7.6160 C.ar  220  TRP220      0.0001
    143  CH2        2.3870   -8.5070    7.1460 C.ar  220  TRP220      0.0015
    144  N          0.4130   -3.1340    7.0870 N.3   299  CYS299     -0.1221
    145  CA         1.6030   -3.5120    7.8150 C.3   299  CYS299      0.1808
    146  C          1.5880   -2.9440    9.1990 C.2   299  CYS299      0.2601
    147  O          1.9090   -1.7720    9.4230 O.2   299  CYS299     -0.2717
    148  CB         2.8830   -3.0790    7.1080 C.3   299  CYS299      0.0970
    149  SG         3.4960   -4.2360    5.9720 S.3   299  CYS299     -0.0800
    150  N          1.2030   -3.8230   10.1170 N.am  300  ALA300     -0.1965
    151  CA         1.2040   -3.5970   11.5430 C.3   300  ALA300      0.1728
    152  C          1.4440   -4.9840   12.1260 C.2   300  ALA300      0.2616
    153  O          1.2050   -5.9980   11.4590 O.2   300  ALA300     -0.2715
    154  CB        -0.1250   -3.0400   11.9880 C.3   300  ALA300      0.0334
    155  N          1.9420   -5.0530   13.3480 N.am  301  LEU301     -0.1977
    156  CA         2.2580   -6.3550   13.9040 C.3   301  LEU301      0.1596
    157  C          2.1900   -6.3460   15.4210 C.2   301  LEU301      0.2287
    158  O          3.0210   -5.7320   16.0880 O.2   301  LEU301     -0.2864
    159  CB         3.6290   -6.8180   13.4170 C.3   301  LEU301      0.0297
    160  CG         3.9940   -8.2640   13.7420 C.3   301  LEU301      0.0022
    161  CD1        3.0340   -9.2360   13.0770 C.3   301  LEU301      0.0001
    162  CD2        5.4120   -8.5340   13.2940 C.3   301  LEU301      0.0001
    163  N          5.0990   -6.7910   18.0240 N.3   304  CYS304     -0.1235
    164  CA         6.1120   -5.7480   18.1120 C.3   304  CYS304      0.1677
    165  C          5.6180   -4.4360   18.7340 C.2   304  CYS304      0.2270
    166  O          6.4010   -3.5040   18.9150 O.2   304  CYS304     -0.2867
    167  CB         6.7040   -5.4830   16.7240 C.3   304  CYS304      0.0956
    168  SG         7.6250   -6.8820   16.0580 S.3   304  CYS304     -0.0801
    169  N          8.4010    1.1150   18.3900 N.3   310  TYR310     -0.1228
    170  CA         7.3320    0.7390   17.4580 C.3   310  TYR310      0.1721
    171  C          6.6960    2.0170   16.9000 C.2   310  TYR310      0.2437
    172  O          6.3590    2.9190   17.6620 O.2   310  TYR310     -0.2733
    173  CB         6.2810   -0.1210   18.1480 C.3   310  TYR310      0.0547
    174  CG         5.2360   -0.6730   17.1990 C.ar  310  TYR310     -0.0200
    175  CD1        5.5020   -1.7890   16.4110 C.ar  310  TYR310     -0.0009
    176  CD2        3.9820   -0.0880   17.1010 C.ar  310  TYR310     -0.0009
    177  CE1        4.5440   -2.3110   15.5570 C.ar  310  TYR310      0.0417
    178  CE2        3.0180   -0.6010   16.2440 C.ar  310  TYR310      0.0417
    179  CZ         3.3060   -1.7180   15.4790 C.ar  310  TYR310      0.1957
    180  OH         2.3640   -2.2530   14.6280 O.3   310  TYR310     -0.2866
    181  N          6.5450    2.1150   15.5680 N.am  311  PRO311     -0.2718
    182  CA         6.2600    3.4420   15.0060 C.3   311  PRO311      0.1535
    183  C          4.8010    3.8840   15.0120 C.2   311  PRO311      0.2598
    184  O          4.5640    5.0760   14.8140 O.2   311  PRO311     -0.2715
    185  CB         6.7560    3.3210   13.5530 C.3   311  PRO311      0.0310
    186  CG         6.6380    1.8650   13.2430 C.3   311  PRO311      0.0237
    187  CD         7.0140    1.1710   14.5380 C.3   311  PRO311      0.0939
    188  N          3.8500    2.9750   15.1980 N.am  312  PHE312     -0.1974
    189  CA         2.4640    3.3260   14.9140 C.3   312  PHE312      0.1639
    190  C          1.6080    3.7010   16.1280 C.2   312  PHE312      0.2290
    191  O          0.3840    3.7120   16.0460 O.2   312  PHE312     -0.2864
    192  CB         1.8150    2.2780   13.9940 C.3   312  PHE312      0.0560
    193  CG         2.6360    1.9750   12.7510 C.ar  312  PHE312     -0.0200
    194  CD1        3.2910    2.9920   12.0530 C.ar  312  PHE312     -0.0042
    195  CD2        2.7650    0.6780   12.2930 C.ar  312  PHE312     -0.0042
    196  CE1        4.0550    2.7070   10.9230 C.ar  312  PHE312     -0.0003
    197  CE2        3.5160    0.3910   11.1620 C.ar  312  PHE312     -0.0003
    198  CZ         4.1600    1.4080   10.4810 C.ar  312  PHE312     -0.0000
@<TRIPOS>BOND
     1     1     2    1
     2     4     3    2
     3     3     2    1
     4     2     5    1
     5   119   118    1
     6   119   120    1
     7   119   122    1
     8   120   121    2
     9    37    36    2
    10    29    31   ar
    11    29    27   ar
    12     5     6    1
    13    36    35    1
    14    31    32   ar
    15   122   123    1
    16    26    27    1
    17    26    23    1
    18    25    24    2
    19    27    28   ar
    20     6     7   ar
    21     6     8   ar
    22    32    33    1
    23    32    30   ar
    24    24    34   am
    25    24    23    1
    26    35    34    1
    27    35    38    1
    28    11     8   ar
    29    11    13   ar
    30   123   124   ar
    31   123   125   ar
    32     7     9   ar
    33     8    10   ar
    34    23    22    1
    35    28    30   ar
    36   124   126   ar
    37    38    39    1
    38    13    14   ar
    39   125   127   ar
    40     9    10   ar
    41    10    12   ar
    42    22    17   am
    43    14    12   ar
    44   126   128   ar
    45    39    40    1
    46   127   128   ar
    47    17    18    2
    48    17    16    1
    49    42    40   am
    50    15    16    1
    51   128   129    1
    52    40    41    2
    53    65    66   ar
    54    65    63   ar
    55    16    19    1
    56    66    64   ar
    57    20    19    1
    58    63    62   ar
    59   149   148    1
    60    64    62   ar
    61    19    21    1
    62   130   131    1
    63    62    61    1
    64   141   143   ar
    65   141   139   ar
    66   144   145    1
    67   132   131    1
    68   132   133    2
    69   148   145    1
    70   143   142   ar
    71    61    58    1
    72   138   139   ar
    73   138   136   ar
    74   139   137   ar
    75    58    57    1
    76    58    59    1
    77   116   115    2
    78   110   111    1
    79   117   115   am
    80   131   134    1
    81   142   140   ar
    82   145   146    1
    83   136   135   ar
    84   137   140   ar
    85   137   135   ar
    86    60    59    2
    87   115   114    1
    88   135   134    1
    89    43    44    1
    90    59    67   am
    91   111   114    1
    92   111   112    1
    93    53    55   ar
    94    53    50   ar
    95    47    44    1
    96    47    48    1
    97    75    76   ar
    98    75    73   ar
    99    78    76   ar
   100    78    80   ar
   101    55    56   ar
   102    44    45    1
   103   146   147    2
   104   146   150   am
   105    76    74   ar
   106    80    79   ar
   107    73    72   ar
   108    50    48   ar
   109    50    52   ar
   110    48    49   ar
   111    67    68    1
   112   112   113    2
   113    56    54   ar
   114   150   151    1
   115    74    72   ar
   116    74    77   ar
   117    72    71    1
   118   198   196   ar
   119   198   197   ar
   120    79    77   ar
   121    45    46    2
   122    52    54   ar
   123    52    51   ar
   124    68    71    1
   125    68    69    1
   126    49    51   ar
   127   196   194   ar
   128   197   195   ar
   129   108   109   ar
   130   108   106   ar
   131   153   152    2
   132   109   107   ar
   133   151   154    1
   134   151   152    1
   135    69    70    2
   136   194   193   ar
   137   152   155   am
   138   106   104   ar
   139   195   193   ar
   140   193   192    1
   141   107   105   ar
   142   161   160    1
   143   186   185    1
   144   186   187    1
   145   162   160    1
   146   155   156    1
   147   159   160    1
   148   159   156    1
   149   185   182    1
   150   104   105   ar
   151   104   103    1
   152   156   157    1
   153   192   189    1
   154    99   100    1
   155   187   181    1
   156   180   179    1
   157   103   100    1
   158    97    98   ar
   159    97    95   ar
   160   184   183    2
   161    81    82    1
   162    84    83    2
   163   189   188    1
   164   189   190    1
   165   182   183    1
   166   182   181    1
   167    86    85    1
   168   183   188   am
   169   100   101    1
   170    98    96   ar
   171    95    93   ar
   172   157   158    2
   173   179   177   ar
   174   179   178   ar
   175   177   175   ar
   176   181   171   am
   177    83    82    1
   178    82    85    1
   179   191   190    2
   180   168   167    1
   181    96    94   ar
   182    85    87    1
   183   178   176   ar
   184    93    94   ar
   185    93    92    1
   186   175   174   ar
   187   101   102    2
   188   167   164    1
   189   171   170    1
   190   171   172    2
   191    92    89    1
   192   176   174   ar
   193    88    89    1
   194   174   173    1
   195   170   173    1
   196   170   169    1
   197    91    90    2
   198    89    90    1
   199   163   164    1
   200   164   165    1
   201   165   166    2
