@<TRIPOS>MOLECULE
tmp/4lbtA00.pdb
 84 76 0 0 0
SMALL
GASTEIGER

@<TRIPOS>ATOM
      1  N         24.1760   -6.8630   53.3370 N.3    10  ILE10      -0.1231
      2  CA        23.0950   -7.2700   54.2270 C.3    10  ILE10       0.1692
      3  C         21.7830   -7.5000   53.4880 C.2    10  ILE10       0.2592
      4  O         20.8700   -8.1190   54.0300 O.2    10  ILE10      -0.2718
      5  CB        22.8460   -6.2570   55.3600 C.3    10  ILE10       0.0266
      6  CG1       22.3960   -4.9030   54.8060 C.3    10  ILE10       0.0019
      7  CG2       24.0830   -6.1260   56.2410 C.3    10  ILE10       0.0020
      8  CD1       21.8430   -3.9610   55.8710 C.3    10  ILE10       0.0001
      9  N         21.6890   -7.0000   52.2590 N.am   11  ASP11      -0.1974
     10  CA        20.4540   -7.0810   51.4920 C.3    11  ASP11       0.1709
     11  C         20.7640   -6.9220   50.0080 C.2    11  ASP11       0.2293
     12  O         21.9260   -6.7560   49.6230 O.2    11  ASP11      -0.2864
     13  CB        19.3970   -6.0720   51.9900 C.3    11  ASP11       0.1436
     14  CG        19.8280   -4.6070   51.8620 C.2    11  ASP11       0.3671
     15  OD1       20.6730   -4.2680   51.0060 O.co2  11  ASP11      -0.2456
     16  OD2       19.2930   -3.7750   52.6330 O.co2  11  ASP11      -0.2456
     17  N         20.3280   -4.5920   48.0020 N.3    13  LEU13      -0.1245
     18  CA        20.7140   -3.2550   47.5540 C.3    13  LEU13       0.1561
     19  C         22.1190   -2.8480   47.9760 C.2    13  LEU13       0.2260
     20  O         22.5500   -1.7400   47.6670 O.2    13  LEU13      -0.2867
     21  CB        19.7430   -2.2070   48.0950 C.3    13  LEU13       0.0270
     22  CG        18.2620   -2.3680   47.7560 C.3    13  LEU13       0.0019
     23  CD1       17.4300   -1.2740   48.4120 C.3    13  LEU13       0.0001
     24  CD2       18.0700   -2.3530   46.2530 C.3    13  LEU13       0.0001
     25  N         22.9230   -2.1960   51.0690 N.3    15  ASP15      -0.1225
     26  CA        22.7260   -1.0910   52.0070 C.3    15  ASP15       0.1805
     27  C         23.8640   -0.9770   53.0280 C.2    15  ASP15       0.2597
     28  O         24.1780    0.1160   53.5150 O.2    15  ASP15      -0.2718
     29  CB        21.3690   -1.1970   52.6950 C.3    15  ASP15       0.1424
     30  CG        20.2430   -0.7030   51.8100 C.2    15  ASP15       0.3668
     31  OD1       20.4280    0.3350   51.1400 O.co2  15  ASP15      -0.2456
     32  OD2       19.1730   -1.3530   51.7770 O.co2  15  ASP15      -0.2456
     33  N         24.4760   -2.1120   53.3410 N.am   16  ALA16      -0.1979
     34  CA        25.6380   -2.1580   54.2130 C.3    16  ALA16       0.1597
     35  C         26.2670   -3.5220   54.0320 C.2    16  ALA16       0.2287
     36  O         25.6870   -4.4030   53.3810 O.2    16  ALA16      -0.2864
     37  CB        25.2510   -1.9370   55.6770 C.3    16  ALA16       0.0319
     38  N         29.5120   -4.2290   61.2230 N.3    33  ASP33      -0.1239
     39  CA        29.6250   -3.3120   60.0990 C.3    33  ASP33       0.1674
     40  C         30.9360   -2.5470   60.2590 C.2    33  ASP33       0.2266
     41  O         31.0680   -1.7050   61.1480 O.2    33  ASP33      -0.2867
     42  CB        28.4300   -2.3660   60.1440 C.3    33  ASP33       0.1410
     43  CG        28.3140   -1.4760   58.9280 C.2    33  ASP33       0.3668
     44  OD1       29.2930   -1.3060   58.1680 O.co2  33  ASP33      -0.2456
     45  OD2       27.2030   -0.9170   58.7630 O.co2  33  ASP33      -0.2456
     46  N         17.8300   -2.8060   62.0680 N.3   119  ASP119     -0.1239
     47  CA        18.7960   -3.5160   61.2300 C.3   119  ASP119      0.1674
     48  C         19.1560   -4.8430   61.9080 C.2   119  ASP119      0.2266
     49  O         20.1930   -4.9420   62.5630 O.2   119  ASP119     -0.2867
     50  CB        20.0620   -2.6700   61.0250 C.3   119  ASP119      0.1410
     51  CG        19.8130   -1.3990   60.2120 C.2   119  ASP119      0.3668
     52  OD1       18.7850   -1.3090   59.5050 O.co2 119  ASP119     -0.2456
     53  OD2       20.6580   -0.4780   60.2770 O.co2 119  ASP119     -0.2456
     54  N         22.7690   -6.4210   61.5220 N.3   122  ILE122     -0.1245
     55  CA        23.9730   -5.7470   61.9890 C.3   122  ILE122      0.1561
     56  C         24.0630   -5.8620   63.5100 C.2   122  ILE122      0.2260
     57  O         23.2180   -5.3240   64.2320 O.2   122  ILE122     -0.2867
     58  CB        24.0050   -4.2710   61.5230 C.3   122  ILE122      0.0252
     59  CG1       24.1130   -4.2080   59.9930 C.3   122  ILE122      0.0019
     60  CG2       25.1540   -3.5120   62.1910 C.3   122  ILE122      0.0019
     61  CD1       23.9910   -2.8130   59.4140 C.3   122  ILE122      0.0001
     62  N         26.2630    4.2580   53.0710 N.3   223  THR223     -0.1203
     63  CA        25.7970    3.5330   51.8980 C.3   223  THR223      0.1994
     64  C         26.0940    4.2500   50.5870 C.2   223  THR223      0.2617
     65  O         26.5820    3.6450   49.6290 O.2   223  THR223     -0.2717
     66  CB        24.2720    3.2960   51.9830 C.3   223  THR223      0.1784
     67  OG1       23.9400    2.7730   53.2780 O.3   223  THR223     -0.2211
     68  CG2       23.8140    2.3510   50.8870 C.3   223  THR223      0.0376
     69  N         25.7610    5.5390   50.5510 N.am  224  LEU224     -0.1979
     70  CA        25.7070    6.3050   49.3110 C.3   224  LEU224      0.1596
     71  C         26.9240    7.2090   49.1030 C.2   224  LEU224      0.2287
     72  O         27.8200    7.2990   49.9490 O.2   224  LEU224     -0.2864
     73  CB        24.4180    7.1290   49.2740 C.3   224  LEU224      0.0297
     74  CG        23.1280    6.3230   49.4740 C.3   224  LEU224      0.0022
     75  CD1       21.9110    7.2350   49.3590 C.3   224  LEU224      0.0001
     76  CD2       23.0230    5.1580   48.4830 C.3   224  LEU224      0.0001
     77  N         11.3460    3.4660   45.5940 N.3   283  ILE283     -0.1245
     78  CA        11.3150    4.2240   46.8410 C.3   283  ILE283      0.1561
     79  C         10.4140    3.5580   47.8780 C.2   283  ILE283      0.2260
     80  O         10.6240    3.7060   49.0810 O.2   283  ILE283     -0.2867
     81  CB        10.9090    5.7020   46.6190 C.3   283  ILE283      0.0252
     82  CG1        9.5170    5.8210   45.9870 C.3   283  ILE283      0.0019
     83  CG2       11.9710    6.4220   45.7870 C.3   283  ILE283      0.0019
     84  CD1        9.0020    7.2480   45.8930 C.3   283  ILE283      0.0001
@<TRIPOS>BOND
     1    77    78    1
     2    83    81    1
     3    84    82    1
     4    82    81    1
     5    24    22    1
     6    81    78    1
     7    78    79    1
     8    18    19    1
     9    18    17    1
    10    18    21    1
    11    20    19    2
    12    22    21    1
    13    22    23    1
    14    79    80    2
    15    76    74    1
    16    71    70    1
    17    71    72    2
    18    73    70    1
    19    73    74    1
    20    70    69    1
    21    75    74    1
    22    12    11    2
    23    65    64    2
    24    11    10    1
    25    69    64   am
    26    64    63    1
    27    68    66    1
    28    15    14   ar
    29    25    26    1
    30    31    30   ar
    31    10    13    1
    32    10     9    1
    33    32    30   ar
    34    30    29    1
    35    14    13    1
    36    14    16   ar
    37    63    66    1
    38    63    62    1
    39    66    67    1
    40    26    29    1
    41    26    27    1
    42     9     3   am
    43    27    33   am
    44    27    28    2
    45     1     2    1
    46    33    34    1
    47    36    35    2
    48     3     4    2
    49     3     2    1
    50    35    34    1
    51    34    37    1
    52     2     5    1
    53     6     5    1
    54     6     8    1
    55     5     7    1
    56    44    43   ar
    57    45    43   ar
    58    43    42    1
    59    61    59    1
    60    52    51   ar
    61    59    58    1
    62    39    42    1
    63    39    40    1
    64    39    38    1
    65    51    53   ar
    66    51    50    1
    67    40    41    2
    68    50    47    1
    69    47    48    1
    70    47    46    1
    71    54    55    1
    72    58    55    1
    73    58    60    1
    74    48    49    2
    75    55    56    1
    76    56    57    2
