@<TRIPOS>MOLECULE
tmp/4lbtA02.pdb
 121 115 0 0 0
SMALL
GASTEIGER

@<TRIPOS>ATOM
      1  N         20.3280   -4.5920   48.0020 N.3    13  LEU13      -0.1245
      2  CA        20.7140   -3.2550   47.5540 C.3    13  LEU13       0.1561
      3  C         22.1190   -2.8480   47.9760 C.2    13  LEU13       0.2260
      4  O         22.5500   -1.7400   47.6670 O.2    13  LEU13      -0.2867
      5  CB        19.7430   -2.2070   48.0950 C.3    13  LEU13       0.0270
      6  CG        18.2620   -2.3680   47.7560 C.3    13  LEU13       0.0019
      7  CD1       17.4300   -1.2740   48.4120 C.3    13  LEU13       0.0001
      8  CD2       18.0700   -2.3530   46.2530 C.3    13  LEU13       0.0001
      9  N         22.9230   -2.1960   51.0690 N.3    15  ASP15      -0.1239
     10  CA        22.7260   -1.0910   52.0070 C.3    15  ASP15       0.1674
     11  C         23.8640   -0.9770   53.0280 C.2    15  ASP15       0.2266
     12  O         24.1780    0.1160   53.5150 O.2    15  ASP15      -0.2867
     13  CB        21.3690   -1.1970   52.6950 C.3    15  ASP15       0.1410
     14  CG        20.2430   -0.7030   51.8100 C.2    15  ASP15       0.3668
     15  OD1       20.4280    0.3350   51.1400 O.co2  15  ASP15      -0.2456
     16  OD2       19.1730   -1.3530   51.7770 O.co2  15  ASP15      -0.2456
     17  N         24.0140   11.0110   60.8490 N.3    81  ASP81      -0.1239
     18  CA        22.7160   10.7000   60.2560 C.3    81  ASP81       0.1674
     19  C         21.5850   10.7650   61.2820 C.2    81  ASP81       0.2266
     20  O         20.4160   10.6510   60.9230 O.2    81  ASP81      -0.2867
     21  CB        22.7310    9.3070   59.6300 C.3    81  ASP81       0.1410
     22  CG        22.7540    8.2150   60.6760 C.2    81  ASP81       0.3668
     23  OD1       23.4490    8.4020   61.6990 O.co2  81  ASP81      -0.2456
     24  OD2       22.0620    7.1900   60.4950 O.co2  81  ASP81      -0.2456
     25  N         28.9960    4.2400   55.2780 N.3   222  THR222     -0.1203
     26  CA        27.9180    5.0260   54.6760 C.3   222  THR222      0.1994
     27  C         27.5590    4.3770   53.3450 C.2   222  THR222      0.2619
     28  O         28.4400    3.9670   52.5940 O.2   222  THR222     -0.2717
     29  CB        28.3410    6.4940   54.4780 C.3   222  THR222      0.1784
     30  OG1       28.4200    7.1170   55.7610 O.3   222  THR222     -0.2211
     31  CG2       27.3350    7.2690   53.6180 C.3   222  THR222      0.0376
     32  N         26.2630    4.2580   53.0710 N.am  223  THR223     -0.1938
     33  CA        25.7970    3.5330   51.8980 C.3   223  THR223      0.2028
     34  C         26.0940    4.2500   50.5870 C.2   223  THR223      0.2642
     35  O         26.5820    3.6450   49.6290 O.2   223  THR223     -0.2714
     36  CB        24.2720    3.2960   51.9830 C.3   223  THR223      0.1808
     37  OG1       23.9400    2.7730   53.2780 O.3   223  THR223     -0.2208
     38  CG2       23.8140    2.3510   50.8870 C.3   223  THR223      0.0379
     39  N         25.7610    5.5390   50.5510 N.am  224  LEU224     -0.1977
     40  CA        25.7070    6.3050   49.3110 C.3   224  LEU224      0.1596
     41  C         26.9240    7.2090   49.1030 C.2   224  LEU224      0.2287
     42  O         27.8200    7.2990   49.9490 O.2   224  LEU224     -0.2864
     43  CB        24.4180    7.1290   49.2740 C.3   224  LEU224      0.0297
     44  CG        23.1280    6.3230   49.4740 C.3   224  LEU224      0.0022
     45  CD1       21.9110    7.2350   49.3590 C.3   224  LEU224      0.0001
     46  CD2       23.0230    5.1580   48.4830 C.3   224  LEU224      0.0001
     47  N         27.9330   11.0160   48.6500 N.3   226  TYR226     -0.1241
     48  CA        27.4290   12.3570   48.9420 C.3   226  TYR226      0.1605
     49  C         28.4420   13.3870   48.4780 C.2   226  TYR226      0.2264
     50  O         29.5750   13.4190   48.9710 O.2   226  TYR226     -0.2867
     51  CB        27.1460   12.5340   50.4400 C.3   226  TYR226      0.0534
     52  CG        26.0180   11.6660   50.9390 C.ar  226  TYR226     -0.0201
     53  CD1       24.7050   12.1210   50.9120 C.ar  226  TYR226     -0.0009
     54  CD2       26.2610   10.3890   51.4450 C.ar  226  TYR226     -0.0009
     55  CE1       23.6620   11.3220   51.3620 C.ar  226  TYR226      0.0417
     56  CE2       25.2330    9.5900   51.8910 C.ar  226  TYR226      0.0417
     57  CZ        23.9360   10.0580   51.8520 C.ar  226  TYR226      0.1957
     58  OH        22.9200    9.2510   52.3030 O.3   226  TYR226     -0.2866
     59  N         10.7720   12.5170   49.6350 N.3   248  VAL248     -0.1231
     60  CA        11.5260   11.2730   49.7260 C.3   248  VAL248      0.1692
     61  C         12.8530   11.4890   50.4530 C.2   248  VAL248      0.2592
     62  O         13.3190   10.6140   51.1860 O.2   248  VAL248     -0.2718
     63  CB        11.7460   10.6430   48.3330 C.3   248  VAL248      0.0266
     64  CG1       12.6270    9.4040   48.4290 C.3   248  VAL248      0.0020
     65  CG2       10.4030   10.2960   47.7050 C.3   248  VAL248      0.0020
     66  N         13.4540   12.6590   50.2490 N.am  249  GLY249     -0.1957
     67  CA        14.6970   13.0020   50.9140 C.3   249  GLY249      0.1869
     68  C         15.9340   12.9960   50.0320 C.2   249  GLY249      0.2309
     69  O         17.0510   12.9000   50.5350 O.2   249  GLY249     -0.2863
     70  N         19.2630    2.3990   43.5920 N.3   280  PHE280     -0.1241
     71  CA        18.8590    1.8380   44.8780 C.3   280  PHE280      0.1605
     72  C         17.4050    1.3850   44.9310 C.2   280  PHE280      0.2264
     73  O         16.8610    1.1330   45.9990 O.2   280  PHE280     -0.2867
     74  CB        19.2970    2.7370   46.0400 C.3   280  PHE280      0.0534
     75  CG        20.7320    2.5140   46.3760 C.ar  280  PHE280     -0.0203
     76  CD1       21.7210    3.0060   45.5350 C.ar  280  PHE280     -0.0042
     77  CD2       21.1030    1.7020   47.4420 C.ar  280  PHE280     -0.0042
     78  CE1       23.0480    2.7330   45.7690 C.ar  280  PHE280     -0.0003
     79  CE2       22.4370    1.4250   47.6820 C.ar  280  PHE280     -0.0003
     80  CZ        23.4070    1.9460   46.8490 C.ar  280  PHE280     -0.0000
     81  N         13.1530    0.8130   43.9430 N.3   282  PRO282     -0.2102
     82  CA        11.9190    1.5680   44.1910 C.3   282  PRO282      0.1504
     83  C         11.9030    2.2580   45.5510 C.2   282  PRO282      0.2576
     84  O         12.3490    1.6880   46.5480 O.2   282  PRO282     -0.2718
     85  CB        10.8310    0.4930   44.0980 C.3   282  PRO282      0.0282
     86  CG        11.4090   -0.4890   43.0920 C.3   282  PRO282      0.0208
     87  CD        12.8830   -0.5420   43.4290 C.3   282  PRO282      0.0893
     88  N         11.3460    3.4660   45.5940 N.am  283  ILE283     -0.1966
     89  CA        11.3150    4.2240   46.8410 C.3   283  ILE283      0.1727
     90  C         10.4140    3.5580   47.8780 C.2   283  ILE283      0.2616
     91  O         10.6240    3.7060   49.0810 O.2   283  ILE283     -0.2715
     92  CB        10.9090    5.7020   46.6190 C.3   283  ILE283      0.0290
     93  CG1        9.5170    5.8210   45.9870 C.3   283  ILE283      0.0022
     94  CG2       11.9710    6.4220   45.7870 C.3   283  ILE283      0.0023
     95  CD1        9.0020    7.2480   45.8930 C.3   283  ILE283      0.0001
     96  N          9.4160    2.8220   47.3990 N.am  284  SER284     -0.1950
     97  CA         8.5510    1.9940   48.2290 C.3   284  SER284      0.1924
     98  C          8.1380    0.8230   47.3590 C.2   284  SER284      0.2314
     99  O          8.1990    0.9240   46.1360 O.2   284  SER284     -0.2863
    100  CB         7.3080    2.7590   48.6890 C.3   284  SER284      0.2116
    101  OG         7.6320    3.8160   49.5700 O.3   284  SER284     -0.2180
    102  N         15.2900    5.2590   43.9790 N.3   291  PHE291     -0.1241
    103  CA        16.1500    6.1410   44.7670 C.3   291  PHE291      0.1605
    104  C         17.5710    6.1650   44.2220 C.2   291  PHE291      0.2264
    105  O         18.1460    5.1170   43.9200 O.2   291  PHE291     -0.2867
    106  CB        16.1730    5.7220   46.2390 C.3   291  PHE291      0.0534
    107  CG        16.6880    6.8000   47.1510 C.ar  291  PHE291     -0.0203
    108  CD1       15.9420    7.9470   47.3670 C.ar  291  PHE291     -0.0042
    109  CD2       17.9340    6.7010   47.7510 C.ar  291  PHE291     -0.0042
    110  CE1       16.4030    8.9590   48.1890 C.ar  291  PHE291     -0.0003
    111  CE2       18.3970    7.7170   48.5860 C.ar  291  PHE291     -0.0003
    112  CZ        17.6300    8.8450   48.7930 C.ar  291  PHE291     -0.0000
    113  N         23.9220   11.5600   46.0240 N.3   295  GLN295     -0.1245
    114  CA        23.0620   12.5290   46.6910 C.3   295  GLN295      0.1566
    115  C         23.8850   13.7260   47.1330 C.2   295  GLN295      0.2260
    116  O         25.1110   13.6500   47.2410 O.2   295  GLN295     -0.2867
    117  CB        22.3750   11.8940   47.9080 C.3   295  GLN295      0.0367
    118  CG        21.4380   10.7260   47.5650 C.3   295  GLN295      0.0905
    119  CD        20.2160   11.1520   46.7490 C.2   295  GLN295      0.2608
    120  OE1       19.8900   12.3350   46.6720 O.2   295  GLN295     -0.2717
    121  NE2       19.5170   10.1780   46.1690 N.am  295  GLN295     -0.0878
@<TRIPOS>BOND
     1    86    87    1
     2    86    85    1
     3    87    81    1
     4    70    71    1
     5   105   104    2
     6    81    82    1
     7   102   103    1
     8    85    82    1
     9    82    83    1
    10   104   103    1
    11   103   106    1
    12    71    72    1
    13    71    74    1
    14    72    73    2
    15    76    78   ar
    16    76    75   ar
    17    83    88   am
    18    83    84    2
    19    88    89    1
    20    78    80   ar
    21    94    92    1
    22    95    93    1
    23    93    92    1
    24   113   114    1
    25    74    75    1
    26    99    98    2
    27   121   119   am
    28   106   107    1
    29     8     6    1
    30    75    77   ar
    31    92    89    1
    32   120   119    2
    33   114   115    1
    34   114   117    1
    35   119   118    1
    36    89    90    1
    37    80    79   ar
    38   115   116    2
    39   107   108   ar
    40   107   109   ar
    41    98    97    1
    42   108   110   ar
    43    96    90   am
    44    96    97    1
    45    77    79   ar
    46     2     3    1
    47     2     1    1
    48     2     5    1
    49   118   117    1
    50     4     3    2
    51    65    63    1
    52   109   111   ar
    53     6     5    1
    54     6     7    1
    55    90    91    2
    56   110   112   ar
    57    97   100    1
    58    63    64    1
    59    63    60    1
    60    49    48    1
    61    49    50    2
    62    46    44    1
    63   111   112   ar
    64    47    48    1
    65   100   101    1
    66    48    51    1
    67    41    40    1
    68    41    42    2
    69    43    40    1
    70    43    44    1
    71    40    39    1
    72    45    44    1
    73    35    34    2
    74    59    60    1
    75    60    61    1
    76    68    69    2
    77    68    67    1
    78    66    61   am
    79    66    67    1
    80    51    52    1
    81    61    62    2
    82    39    34   am
    83    34    33    1
    84    38    36    1
    85    53    52   ar
    86    53    55   ar
    87    52    54   ar
    88     9    10    1
    89    15    14   ar
    90    55    57   ar
    91    54    56   ar
    92    16    14   ar
    93    14    13    1
    94    57    56   ar
    95    57    58    1
    96    33    36    1
    97    33    32    1
    98    36    37    1
    99    10    13    1
   100    10    11    1
   101    28    27    2
   102    11    12    2
   103    32    27   am
   104    27    26    1
   105    31    29    1
   106    29    26    1
   107    29    30    1
   108    26    25    1
   109    21    18    1
   110    21    22    1
   111    18    17    1
   112    18    19    1
   113    24    22   ar
   114    22    23   ar
   115    20    19    2
