@<TRIPOS>MOLECULE
tmp/4lbxB01.pdb
 112 100 0 0 0
SMALL
GASTEIGER

@<TRIPOS>ATOM
      1  N         33.6030   33.2000  -13.4570 N.3   207  ASN207     -0.1240
      2  CA        34.0520   32.5370  -12.2390 C.3   207  ASN207      0.1653
      3  C         35.4510   33.0590  -11.8590 C.2   207  ASN207      0.2266
      4  O         36.0330   33.8900  -12.5900 O.2   207  ASN207     -0.2867
      5  CB        33.9990   31.0070  -12.3360 C.3   207  ASN207      0.1155
      6  CG        34.9080   30.4380  -13.4190 C.2   207  ASN207      0.2627
      7  OD1       35.8300   31.0910  -13.8980 O.2   207  ASN207     -0.2716
      8  ND2       34.6560   29.2040  -13.7900 N.am  207  ASN207     -0.0877
      9  N         31.4350   34.3640   -9.6250 N.3   237  THR237     -0.1218
     10  CA        31.1860   33.1840   -8.8090 C.3   237  THR237      0.1862
     11  C         32.4850   32.5770   -8.3050 C.2   237  THR237      0.2287
     12  O         33.5250   32.6440   -8.9750 O.2   237  THR237     -0.2866
     13  CB        30.3770   32.1230   -9.5790 C.3   237  THR237      0.1770
     14  OG1       31.1140   31.6870  -10.7300 O.3   237  THR237     -0.2211
     15  CG2       29.0300   32.7050  -10.0190 C.3   237  THR237      0.0375
     16  N         32.6180   29.1610   -6.8340 N.3   238  SER238     -0.1202
     17  CA        32.2990   27.7610   -6.5150 C.3   238  SER238      0.2020
     18  C         31.6670   27.6220   -5.1230 C.2   238  SER238      0.2618
     19  O         30.6930   28.3130   -4.8180 O.2   238  SER238     -0.2717
     20  CB        33.5320   26.8580   -6.6820 C.3   238  SER238      0.2103
     21  OG        34.0620   26.9700   -7.9980 O.3   238  SER238     -0.2182
     22  N         32.2360   26.7660   -4.2720 N.am  239  GLU239     -0.1979
     23  CA        31.6680   26.5060   -2.9490 C.3   239  GLU239      0.1602
     24  C         31.6400   27.7460   -2.0500 C.2   239  GLU239      0.2287
     25  O         30.9240   27.7680   -1.0330 O.2   239  GLU239     -0.2864
     26  CB        32.4000   25.3450   -2.2520 C.3   239  GLU239      0.0415
     27  CG        33.8170   25.6620   -1.7910 C.3   239  GLU239      0.1163
     28  CD        34.8750   25.3640   -2.8410 C.2   239  GLU239      0.3649
     29  OE1       34.5570   25.3550   -4.0510 O.co2 239  GLU239     -0.2457
     30  OE2       36.0410   25.1370   -2.4520 O.co2 239  GLU239     -0.2457
     31  N         30.5030   30.6960   -2.9420 N.3   241  GLY241     -0.1225
     32  CA        29.3920   31.5640   -3.3150 C.3   241  GLY241      0.1811
     33  C         29.7310   32.5010   -4.4540 C.2   241  GLY241      0.2280
     34  O         30.3290   32.0810   -5.4460 O.2   241  GLY241     -0.2866
     35  N         27.0700   30.3130   -1.0200 N.3   255  ALA255     -0.1231
     36  CA        26.5520   29.1030   -1.6650 C.3   255  ALA255      0.1694
     37  C         25.5110   28.4430   -0.7530 C.2   255  ALA255      0.2591
     38  O         25.6070   28.5520    0.4760 O.2   255  ALA255     -0.2718
     39  CB        27.6830   28.1340   -1.9680 C.3   255  ALA255      0.0304
     40  N         24.5240   27.7650   -1.3480 N.am  256  ILE256     -0.1980
     41  CA        23.5040   27.0480   -0.5580 C.3   256  ILE256      0.1595
     42  C         24.0510   25.7340    0.0270 C.2   256  ILE256      0.2287
     43  O         25.0910   25.2280   -0.4070 O.2   256  ILE256     -0.2864
     44  CB        22.1920   26.7840   -1.3520 C.3   256  ILE256      0.0276
     45  CG1       22.4160   25.7490   -2.4700 C.3   256  ILE256      0.0022
     46  CG2       21.6110   28.0880   -1.9100 C.3   256  ILE256      0.0022
     47  CD1       21.1450   25.1230   -3.0100 C.3   256  ILE256      0.0001
     48  N         24.0890   21.8060    0.3540 N.3   258  ILE258     -0.1245
     49  CA        23.8040   20.7190   -0.5910 C.3   258  ILE258      0.1561
     50  C         24.0200   19.3300    0.0120 C.2   258  ILE258      0.2260
     51  O         24.8500   19.1440    0.9170 O.2   258  ILE258     -0.2867
     52  CB        24.6240   20.8450   -1.8990 C.3   258  ILE258      0.0252
     53  CG1       26.1270   20.9060   -1.6030 C.3   258  ILE258      0.0019
     54  CG2       24.1660   22.0500   -2.7130 C.3   258  ILE258      0.0019
     55  CD1       26.9970   20.6500   -2.8110 C.3   258  ILE258      0.0001
     56  N         27.7850   16.9050   -4.1070 N.3   261  VAL261     -0.1245
     57  CA        28.1420   17.3430   -5.4600 C.3   261  VAL261      0.1561
     58  C         28.1360   16.1330   -6.3900 C.2   261  VAL261      0.2260
     59  O         29.0590   15.3060   -6.3720 O.2   261  VAL261     -0.2867
     60  CB        29.5300   18.0230   -5.5190 C.3   261  VAL261      0.0252
     61  CG1       29.7760   18.6010   -6.9060 C.3   261  VAL261      0.0019
     62  CG2       29.6560   19.1090   -4.4650 C.3   261  VAL261      0.0019
     63  N         28.9420   18.9580  -11.4210 N.3   264  THR264     -0.1218
     64  CA        28.9410   20.4320  -11.4720 C.3   264  THR264      0.1862
     65  C         28.5030   21.0240  -12.8120 C.2   264  THR264      0.2287
     66  O         28.3580   22.2560  -12.9230 O.2   264  THR264     -0.2866
     67  CB        30.3220   21.0310  -11.1350 C.3   264  THR264      0.1770
     68  OG1       31.3160   20.4910  -12.0140 O.3   264  THR264     -0.2211
     69  CG2       30.7020   20.7260   -9.6970 C.3   264  THR264      0.0375
     70  N         26.5740   24.5860  -13.4580 N.3   267  ALA267     -0.1231
     71  CA        26.5150   25.4490  -12.2580 C.3   267  ALA267      0.1694
     72  C         26.5620   26.9330  -12.6110 C.2   267  ALA267      0.2592
     73  O         25.7130   27.7010  -12.1710 O.2   267  ALA267     -0.2718
     74  CB        27.6330   25.1140  -11.2890 C.3   267  ALA267      0.0304
     75  N         27.5350   27.3320  -13.4360 N.am  268  GLY268     -0.1957
     76  CA        27.6130   28.7270  -13.8660 C.3   268  GLY268      0.1869
     77  C         26.4360   29.1490  -14.7410 C.2   268  GLY268      0.2309
     78  O         25.9220   30.2530  -14.6040 O.2   268  GLY268     -0.2863
     79  N         23.5440   29.6580  -12.3530 N.3   271  PHE271     -0.1241
     80  CA        23.7800   30.9130  -11.6450 C.3   271  PHE271      0.1605
     81  C         23.2900   32.1000  -12.4910 C.2   271  PHE271      0.2264
     82  O         22.5630   32.9810  -11.9790 O.2   271  PHE271     -0.2867
     83  CB        25.2450   31.1040  -11.2380 C.3   271  PHE271      0.0534
     84  CG        25.4910   32.4110  -10.5350 C.ar  271  PHE271     -0.0203
     85  CD1       25.3190   32.5180   -9.1560 C.ar  271  PHE271     -0.0042
     86  CD2       25.8230   33.5550  -11.2580 C.ar  271  PHE271     -0.0042
     87  CE1       25.5040   33.7330   -8.5110 C.ar  271  PHE271     -0.0003
     88  CE2       26.0120   34.7790  -10.6220 C.ar  271  PHE271     -0.0003
     89  CZ        25.8490   34.8630   -9.2360 C.ar  271  PHE271     -0.0000
     90  N         22.7030   31.5810   -6.7870 N.3   293  CYS293     -0.1235
     91  CA        23.2860   30.5250   -5.9540 C.3   293  CYS293      0.1677
     92  C         22.2850   29.4050   -5.6730 C.2   293  CYS293      0.2270
     93  O         22.6600   28.2230   -5.5430 O.2   293  CYS293     -0.2867
     94  CB        23.8740   31.1070   -4.6560 C.3   293  CYS293      0.0956
     95  SG        25.3140   32.1540   -4.9870 S.3   293  CYS293     -0.0801
     96  N         22.0690   27.4140   -9.1190 N.3   296  ALA296     -0.1231
     97  CA        23.3290   26.6620   -9.2990 C.3   296  ALA296      0.1694
     98  C         23.4820   25.5140   -8.2880 C.2   296  ALA296      0.2592
     99  O         23.9010   24.4240   -8.6410 O.2   296  ALA296     -0.2718
    100  CB        24.5120   27.5980   -9.1870 C.3   296  ALA296      0.0304
    101  N         23.1770   25.7730   -7.0180 N.am  297  GLY297     -0.1957
    102  CA        23.2460   24.7230   -6.0050 C.3   297  GLY297      0.1869
    103  C         22.3450   23.5290   -6.3040 C.2   297  GLY297      0.2309
    104  O         22.6830   22.3890   -5.9620 O.2   297  GLY297     -0.2863
    105  N         23.8390   21.2410   -9.4530 N.3   300  ILE300     -0.1245
    106  CA        25.0150   20.4090   -9.1760 C.3   300  ILE300      0.1561
    107  C         24.7150   19.1240   -8.3730 C.2   300  ILE300      0.2260
    108  O         25.5880   18.2620   -8.2050 O.2   300  ILE300     -0.2867
    109  CB        26.1520   21.2270   -8.5410 C.3   300  ILE300      0.0252
    110  CG1       25.8140   21.6010   -7.0970 C.3   300  ILE300      0.0019
    111  CG2       26.4530   22.4570   -9.3850 C.3   300  ILE300      0.0019
    112  CD1       27.0200   22.1170   -6.3350 C.3   300  ILE300      0.0001
@<TRIPOS>BOND
     1    77    78    2
     2    77    76    1
     3     7     6    2
     4    76    75    1
     5     8     6   am
     6    70    71    1
     7     1     2    1
     8    75    72   am
     9     6     5    1
    10    66    65    2
    11    65    64    1
    12    72    71    1
    13    72    73    2
    14     4     3    2
    15    81    82    2
    16    81    80    1
    17    79    80    1
    18     5     2    1
    19    71    74    1
    20     2     3    1
    21    68    67    1
    22    80    83    1
    23    64    63    1
    24    64    67    1
    25    86    88   ar
    26    86    84   ar
    27    83    84    1
    28    67    69    1
    29    14    13    1
    30    88    89   ar
    31    84    85   ar
    32    15    13    1
    33     9    10    1
    34    13    10    1
    35   105   106    1
    36   111   109    1
    37    97   100    1
    38    97    96    1
    39    97    98    1
    40    89    87   ar
    41   106   109    1
    42   106   107    1
    43    85    87   ar
    44    12    11    2
    45    10    11    1
    46    99    98    2
    47   109   110    1
    48   107   108    2
    49    98   101   am
    50    21    20    1
    51   110   112    1
    52   101   102    1
    53    61    60    1
    54    16    17    1
    55    90    91    1
    56    20    17    1
    57    17    18    1
    58    58    59    2
    59    58    57    1
    60   103   102    1
    61   103   104    2
    62    91    92    1
    63    91    94    1
    64    92    93    2
    65    60    57    1
    66    60    62    1
    67    57    56    1
    68    34    33    2
    69    18    19    2
    70    18    22   am
    71    95    94    1
    72    33    32    1
    73    22    23    1
    74    29    28   ar
    75    32    31    1
    76    47    45    1
    77    23    26    1
    78    23    24    1
    79    28    30   ar
    80    28    27    1
    81    55    53    1
    82    54    52    1
    83    45    44    1
    84    26    27    1
    85    24    25    2
    86    39    36    1
    87    46    44    1
    88    52    53    1
    89    52    49    1
    90    36    35    1
    91    36    37    1
    92    44    41    1
    93    40    37   am
    94    40    41    1
    95    37    38    2
    96    49    50    1
    97    49    48    1
    98    41    42    1
    99    43    42    2
   100    50    51    2
