@<TRIPOS>MOLECULE
tmp/4lc3A00.pdb
 124 117 0 0 0
SMALL
GASTEIGER

@<TRIPOS>ATOM
      1  N         73.9100   31.2300   -8.4880 N.3    55  SER55      -0.1202
      2  CA        73.5210   30.3780   -7.3590 C.3    55  SER55       0.2020
      3  C         74.6180   29.3650   -7.0970 C.2    55  SER55       0.2619
      4  O         75.5590   29.2600   -7.8800 O.2    55  SER55      -0.2717
      5  CB        72.2290   29.6190   -7.6600 C.3    55  SER55       0.2103
      6  OG        72.4400   28.5260   -8.5540 O.3    55  SER55      -0.2182
      7  N         74.4600   28.6270   -5.9980 N.am   56  GLY56      -0.1942
      8  CA        75.2790   27.4690   -5.6580 C.3    56  GLY56       0.2014
      9  C         74.6460   26.1450   -6.0680 C.2    56  GLY56       0.2639
     10  O         75.0200   25.0820   -5.5370 O.2    56  GLY56      -0.2714
     11  N         73.6780   26.2090   -6.9630 N.am   57  THR57      -0.1950
     12  CA        73.0750   25.0290   -7.5730 C.3    57  THR57       0.1897
     13  C         73.6800   24.7680   -8.9590 C.2    57  THR57       0.2313
     14  O         74.1220   23.6490   -9.2560 O.2    57  THR57      -0.2863
     15  CB        71.5360   25.2010   -7.6810 C.3    57  THR57       0.1794
     16  OG1       70.9810   25.1670   -6.3620 O.3    57  THR57      -0.2208
     17  CG2       70.9070   24.1010   -8.4980 C.3    57  THR57       0.0378
     18  N         77.1020   23.1340   -8.9500 N.3    60  LEU60      -0.1245
     19  CA        77.0740   21.6660   -8.8630 C.3    60  LEU60       0.1561
     20  C         76.9080   21.0180  -10.2250 C.2    60  LEU60       0.2260
     21  O         77.6530   20.1320  -10.6070 O.2    60  LEU60      -0.2867
     22  CB        76.0000   21.1730   -7.9080 C.3    60  LEU60       0.0270
     23  CG        76.1130   21.6040   -6.4590 C.3    60  LEU60       0.0019
     24  CD1       74.8310   21.1710   -5.7840 C.3    60  LEU60       0.0001
     25  CD2       77.2940   20.9470   -5.7620 C.3    60  LEU60       0.0001
     26  N         69.3270   19.4740    0.5560 N.3    82  TRP82      -0.1241
     27  CA        68.4170   20.1730   -0.3170 C.3    82  TRP82       0.1605
     28  C         68.3170   19.4170   -1.6440 C.2    82  TRP82       0.2264
     29  O         69.3020   18.8790   -2.1470 O.2    82  TRP82      -0.2867
     30  CB        68.8960   21.6130   -0.5110 C.3    82  TRP82       0.0550
     31  CG        68.0990   22.4460   -1.5040 C.ar   82  TRP82       0.0003
     32  CD1       68.5800   22.9990   -2.6310 C.ar   82  TRP82       0.0946
     33  CD2       66.7260   22.8720   -1.4090 C.ar   82  TRP82       0.0152
     34  NE1       67.5970   23.7040   -3.2970 N.ar   82  TRP82      -0.2442
     35  CE2       66.4500   23.6470   -2.5590 C.ar   82  TRP82       0.0810
     36  CE3       65.7020   22.6610   -0.4800 C.ar   82  TRP82       0.0012
     37  CZ2       65.2070   24.2140   -2.7910 C.ar   82  TRP82       0.0191
     38  CZ3       64.4490   23.2300   -0.7190 C.ar   82  TRP82       0.0001
     39  CH2       64.2180   23.9890   -1.8640 C.ar   82  TRP82       0.0015
     40  N         68.2770   20.1080   -4.6730 N.3    84  SER84      -0.1202
     41  CA        69.0790   20.4310   -5.8670 C.3    84  SER84       0.2020
     42  C         70.2870   19.5090   -5.9980 C.2    84  SER84       0.2619
     43  O         70.7810   19.2670   -7.1060 O.2    84  SER84      -0.2717
     44  CB        69.4800   21.8920   -5.9000 C.3    84  SER84       0.2103
     45  OG        70.5440   22.1330   -5.0490 O.3    84  SER84      -0.2182
     46  N         70.7400   18.9630   -4.8680 N.am   85  THR85      -0.1952
     47  CA        71.9610   18.1750   -4.8260 C.3    85  THR85       0.1897
     48  C         71.8420   16.9480   -5.7650 C.2    85  THR85       0.2313
     49  O         72.7710   16.5940   -6.4580 O.2    85  THR85      -0.2863
     50  CB        72.2160   17.7450   -3.3780 C.3    85  THR85       0.1794
     51  OG1       72.1060   18.8850   -2.4850 O.3    85  THR85      -0.2208
     52  CG2       73.5430   17.1100   -3.2620 C.3    85  THR85       0.0378
     53  N         79.7150   19.4610   -2.4290 N.3   153  ASP153     -0.1239
     54  CA        78.6470   20.3770   -2.1110 C.3   153  ASP153      0.1674
     55  C         78.9180   21.0860   -0.7720 C.2   153  ASP153      0.2266
     56  O         78.4290   20.7200    0.3070 O.2   153  ASP153     -0.2867
     57  CB        77.2900   19.7150   -2.1490 C.3   153  ASP153      0.1410
     58  CG        76.1400   20.7260   -2.0790 C.2   153  ASP153      0.3668
     59  OD1       76.3910   21.9680   -2.0150 O.co2 153  ASP153     -0.2456
     60  OD2       74.9650   20.2730   -2.1320 O.co2 153  ASP153     -0.2456
     61  N         78.0300   24.1100   -0.2310 N.3   155  ALA155     -0.1231
     62  CA        77.0570   25.2130   -0.2060 C.3   155  ALA155      0.1694
     63  C         77.1170   25.9670    1.1200 C.2   155  ALA155      0.2591
     64  O         77.1180   27.1760    1.1250 O.2   155  ALA155     -0.2718
     65  CB        75.6480   24.6790   -0.3970 C.3   155  ALA155      0.0304
     66  N         77.1080   25.2120    2.2200 N.am  156  GLN156     -0.1979
     67  CA        77.0300   25.7290    3.5880 C.3   156  GLN156      0.1601
     68  C         78.3540   25.9570    4.2870 C.2   156  GLN156      0.2287
     69  O         78.3500   26.3750    5.4350 O.2   156  GLN156     -0.2864
     70  CB        76.2300   24.7470    4.4510 C.3   156  GLN156      0.0394
     71  CG        74.8380   24.4850    3.8940 C.3   156  GLN156      0.0908
     72  CD        74.0180   23.4550    4.6920 C.2   156  GLN156      0.2608
     73  OE1       74.2870   23.1710    5.8530 O.2   156  GLN156     -0.2717
     74  NE2       73.0160   22.9030    4.0610 N.am  156  GLN156     -0.0878
     75  N         77.6840   28.1880   -1.9810 N.3   177  SER177     -0.1217
     76  CA        76.5030   29.0370   -2.1270 C.3   177  SER177      0.1889
     77  C         76.6820   30.3110   -1.3080 C.2   177  SER177      0.2288
     78  O         77.2100   30.2700   -0.1930 O.2   177  SER177     -0.2866
     79  CB        75.2700   28.3420   -1.5930 C.3   177  SER177      0.2089
     80  OG        74.1010   29.1770   -1.5300 O.3   177  SER177     -0.2183
     81  N         73.7030   32.2250   -0.9090 N.3   179  HIS179     -0.1241
     82  CA        72.3110   32.5460   -0.5720 C.3   179  HIS179      0.1621
     83  C         72.2440   33.3860    0.7010 C.2   179  HIS179      0.2264
     84  O         73.1110   33.3140    1.5520 O.2   179  HIS179     -0.2867
     85  CB        71.5290   31.2470   -0.4020 C.3   179  HIS179      0.0745
     86  CG        70.0720   31.4040   -0.1410 C.ar  179  HIS179      0.0817
     87  ND1       69.5370   31.6080    1.1200 N.ar  179  HIS179     -0.2268
     88  CD2       69.0220   31.3320   -0.9840 C.ar  179  HIS179      0.1154
     89  CE1       68.2210   31.6480    1.0340 C.ar  179  HIS179      0.1986
     90  NE2       67.8870   31.4730   -0.2280 N.ar  179  HIS179     -0.2212
     91  N         73.1950   31.8960    4.0470 N.3   182  LYS182     -0.1245
     92  CA        74.5190   31.3160    4.2360 C.3   182  LYS182      0.1561
     93  C         75.4110   32.2200    5.0820 C.2   182  LYS182      0.2260
     94  O         75.0870   33.3790    5.3390 O.2   182  LYS182     -0.2867
     95  CB        75.2020   30.9930    2.8770 C.3   182  LYS182      0.0271
     96  CG        74.4190   30.0440    1.9640 C.3   182  LYS182      0.0035
     97  CD        74.0770   28.7670    2.7360 C.3   182  LYS182      0.0206
     98  CE        73.7300   27.5780    1.8330 C.3   182  LYS182      0.1093
     99  NZ        72.6260   27.8690    0.9150 N.3   182  LYS182     -0.1314
    100  N         71.8110   36.2510   -3.5780 N.3   188  GLU188     -0.1231
    101  CA        71.8300   34.8880   -4.1260 C.3   188  GLU188      0.1699
    102  C         73.1000   34.8290   -4.9390 C.2   188  GLU188      0.2592
    103  O         73.5430   35.8310   -5.5330 O.2   188  GLU188     -0.2718
    104  CB        70.6490   34.5850   -5.0720 C.3   188  GLU188      0.0402
    105  CG        69.2910   34.5600   -4.4190 C.3   188  GLU188      0.1161
    106  CD        68.7580   33.1860   -4.0230 C.2   188  GLU188      0.3649
    107  OE1       69.4250   32.1350   -4.1510 O.co2 188  GLU188     -0.2457
    108  OE2       67.5710   33.1380   -3.6470 O.co2 188  GLU188     -0.2457
    109  N         73.7120   33.6560   -4.9660 N.am  189  GLY189     -0.1957
    110  CA        74.9270   33.4840   -5.7540 C.3   189  GLY189      0.1869
    111  C         75.6400   32.2080   -5.3600 C.2   189  GLY189      0.2309
    112  O         75.2210   31.4780   -4.4800 O.2   189  GLY189     -0.2863
    113  N         67.0340   18.4040    6.4870 N.3   319  TYR319     -0.1241
    114  CA        66.0180   18.4100    5.4300 C.3   319  TYR319      0.1605
    115  C         65.2600   17.1080    5.5080 C.2   319  TYR319      0.2264
    116  O         65.8280   16.1090    5.9320 O.2   319  TYR319     -0.2867
    117  CB        66.6440   18.4510    4.0120 C.3   319  TYR319      0.0534
    118  CG        67.5590   19.6170    3.7660 C.ar  319  TYR319     -0.0201
    119  CD1       68.8840   19.5550    4.1560 C.ar  319  TYR319     -0.0009
    120  CD2       67.0930   20.7850    3.1510 C.ar  319  TYR319     -0.0009
    121  CE1       69.7280   20.5930    3.9430 C.ar  319  TYR319      0.0417
    122  CE2       67.9410   21.8480    2.9410 C.ar  319  TYR319      0.0417
    123  CZ        69.2600   21.7330    3.3560 C.ar  319  TYR319      0.1957
    124  OH        70.1280   22.7380    3.1370 O.3   319  TYR319     -0.2866
@<TRIPOS>BOND
     1    21    20    2
     2    20    19    1
     3    14    13    2
     4    13    12    1
     5    18    19    1
     6    19    22    1
     7     6     5    1
     8    17    15    1
     9     1     2    1
    10    22    23    1
    11     4     3    2
    12    15    12    1
    13    15    16    1
    14     5     2    1
    15    12    11    1
    16     2     3    1
    17    43    42    2
    18     3     7   am
    19    11     9   am
    20    23    24    1
    21    23    25    1
    22    49    48    2
    23     9     8    1
    24     9    10    2
    25     7     8    1
    26    42    41    1
    27    42    46   am
    28    44    41    1
    29    44    45    1
    30    41    40    1
    31    48    47    1
    32   110   111    1
    33   110   109    1
    34   103   102    2
    35   111   112    2
    36   104   105    1
    37   104   101    1
    38   109   102   am
    39   102   101    1
    40    46    47    1
    41    47    50    1
    42   105   106    1
    43   107   106   ar
    44   101   100    1
    45   106   108   ar
    46    50    52    1
    47    50    51    1
    48    34    32   ar
    49    34    35   ar
    50    37    35   ar
    51    37    39   ar
    52    32    31   ar
    53    35    33   ar
    54    53    54    1
    55    57    54    1
    56    57    58    1
    57    29    28    2
    58    60    58   ar
    59    76    75    1
    60    76    79    1
    61    76    77    1
    62    54    55    1
    63    58    59   ar
    64    39    38   ar
    65    28    27    1
    66    79    80    1
    67    31    33   ar
    68    31    30    1
    69    33    36   ar
    70    77    78    2
    71    88    90   ar
    72    88    86   ar
    73    81    82    1
    74    55    56    2
    75    38    36   ar
    76    82    85    1
    77    82    83    1
    78    30    27    1
    79    85    86    1
    80    65    62    1
    81    27    26    1
    82    61    62    1
    83    90    89   ar
    84    62    63    1
    85    86    87   ar
    86    83    84    2
    87    99    98    1
    88    89    87   ar
    89    63    64    2
    90    63    66   am
    91    98    97    1
    92    96    97    1
    93    96    95    1
    94    66    67    1
    95    95    92    1
    96   122   120   ar
    97   122   123   ar
    98   124   123    1
    99   120   118   ar
   100   123   121   ar
   101    67    68    1
   102    67    70    1
   103   118   117    1
   104   118   119   ar
   105    71    70    1
   106    71    72    1
   107   121   119   ar
   108   117   114    1
   109    91    92    1
   110    74    72   am
   111    92    93    1
   112    68    69    2
   113    72    73    2
   114    93    94    2
   115   114   115    1
   116   114   113    1
   117   115   116    2
