@<TRIPOS>MOLECULE
tmp/4lc4A01.pdb
 112 100 0 0 0
SMALL
GASTEIGER

@<TRIPOS>ATOM
      1  N         61.9100    7.9190   44.9000 N.3   207  ASN207     -0.1240
      2  CA        60.5160    7.5020   44.8350 C.3   207  ASN207      0.1653
      3  C         60.3890    6.1150   45.4580 C.2   207  ASN207      0.2266
      4  O         61.3970    5.5380   45.8980 O.2   207  ASN207     -0.2867
      5  CB        59.9370    7.5770   43.4120 C.3   207  ASN207      0.1155
      6  CG        60.6470    6.6690   42.4220 C.2   207  ASN207      0.2627
      7  OD1       61.3560    5.7350   42.7930 O.2   207  ASN207     -0.2716
      8  ND2       60.4490    6.9460   41.1400 N.am  207  ASN207     -0.0877
      9  N         59.0050   10.1420   47.6000 N.3   237  THR237     -0.1218
     10  CA        57.7450   10.3860   46.8900 C.3   237  THR237      0.1862
     11  C         56.9990    9.0940   46.6040 C.2   237  THR237      0.2287
     12  O         57.6160    8.0410   46.4140 O.2   237  THR237     -0.2866
     13  CB        57.9440   11.1710   45.5740 C.3   237  THR237      0.1770
     14  OG1       58.8410   10.4630   44.7170 O.3   237  THR237     -0.2211
     15  CG2       58.5070   12.5630   45.8560 C.3   237  THR237      0.0375
     16  N         54.0660    8.9260   44.2890 N.3   238  SER238     -0.1202
     17  CA        53.1370    9.2060   43.1860 C.3   238  SER238      0.2020
     18  C         51.8580    9.8990   43.6760 C.2   238  SER238      0.2618
     19  O         51.9410   10.9050   44.3820 O.2   238  SER238     -0.2717
     20  CB        52.8380    7.9270   42.3900 C.3   238  SER238      0.2103
     21  OG        54.0430    7.3030   41.9740 O.3   238  SER238     -0.2182
     22  N         50.6920    9.3460   43.3370 N.am  239  GLU239     -0.1979
     23  CA        49.4010    9.9420   43.7100 C.3   239  GLU239      0.1602
     24  C         49.1800    9.9850   45.2260 C.2   239  GLU239      0.2287
     25  O         48.3020   10.7070   45.7040 O.2   239  GLU239     -0.2864
     26  CB        48.2310    9.2210   43.0150 C.3   239  GLU239      0.0415
     27  CG        47.9340    7.8090   43.5270 C.3   239  GLU239      0.1163
     28  CD        48.7970    6.7320   42.8870 C.2   239  GLU239      0.3649
     29  OE1       49.7450    7.0630   42.1460 O.co2 239  GLU239     -0.2457
     30  OE2       48.5220    5.5360   43.1240 O.co2 239  GLU239     -0.2457
     31  N         51.3090   11.1630   47.3420 N.3   241  GLY241     -0.1225
     32  CA        52.0780   12.2800   47.8830 C.3   241  GLY241      0.1811
     33  C         53.5050   11.9150   48.2170 C.2   241  GLY241      0.2280
     34  O         54.2200   11.3590   47.3770 O.2   241  GLY241     -0.2866
     35  N         49.4910   14.5880   47.7300 N.3   255  ALA255     -0.1231
     36  CA        49.5520   15.0520   46.3510 C.3   255  ALA255      0.1694
     37  C         48.4240   16.0600   46.1280 C.2   255  ALA255      0.2591
     38  O         47.3700   15.9680   46.7650 O.2   255  ALA255     -0.2718
     39  CB        49.4210   13.8800   45.3940 C.3   255  ALA255      0.0304
     40  N         48.6500   17.0290   45.2420 N.am  256  ILE256     -0.1980
     41  CA        47.6190   18.0240   44.9190 C.3   256  ILE256      0.1595
     42  C         46.5750   17.3960   43.9930 C.2   256  ILE256      0.2287
     43  O         46.8350   16.3610   43.3700 O.2   256  ILE256     -0.2864
     44  CB        48.2020   19.3170   44.2780 C.3   256  ILE256      0.0276
     45  CG1       48.7080   19.0620   42.8490 C.3   256  ILE256      0.0022
     46  CG2       49.2930   19.9310   45.1580 C.3   256  ILE256      0.0022
     47  CD1       48.9480   20.3270   42.0440 C.3   256  ILE256      0.0001
     48  N         44.6610   17.1650   40.5510 N.3   258  ILE258     -0.1245
     49  CA        45.0570   17.4670   39.1750 C.3   258  ILE258      0.1561
     50  C         43.9180   17.2200   38.1870 C.2   258  ILE258      0.2260
     51  O         43.0550   16.3710   38.4250 O.2   258  ILE258     -0.2867
     52  CB        46.3070   16.6620   38.7430 C.3   258  ILE258      0.0252
     53  CG1       46.0650   15.1530   38.8760 C.3   258  ILE258      0.0019
     54  CG2       47.5360   17.0910   39.5410 C.3   258  ILE258      0.0019
     55  CD1       46.9900   14.3130   38.0240 C.3   258  ILE258      0.0001
     56  N         46.6550   13.4960   34.1930 N.3   261  VAL261     -0.1245
     57  CA        48.0720   13.1990   34.0060 C.3   261  VAL261      0.1561
     58  C         48.3670   13.2190   32.5040 C.2   261  VAL261      0.2260
     59  O         48.0920   12.2460   31.7920 O.2   261  VAL261     -0.2867
     60  CB        48.4710   11.8310   34.6080 C.3   261  VAL261      0.0252
     61  CG1       49.9770   11.6560   34.5740 C.3   261  VAL261      0.0019
     62  CG2       47.9630   11.6860   36.0380 C.3   261  VAL261      0.0019
     63  N         54.0630   12.5430   32.8260 N.3   264  THR264     -0.1218
     64  CA        54.7180   12.5370   34.1460 C.3   264  THR264      0.1862
     65  C         56.1860   12.9840   34.1220 C.2   264  THR264      0.2287
     66  O         56.8180   13.1060   35.1860 O.2   264  THR264     -0.2866
     67  CB        54.6420   11.1460   34.8280 C.3   264  THR264      0.1770
     68  OG1       55.3270   10.1730   34.0310 O.3   264  THR264     -0.2211
     69  CG2       53.1980   10.7050   35.0550 C.3   264  THR264      0.0375
     70  N         58.2580   14.9790   37.0660 N.3   267  ALA267     -0.1231
     71  CA        57.5660   14.9820   38.3730 C.3   267  ALA267      0.1694
     72  C         58.5290   14.9870   39.5680 C.2   267  ALA267      0.2592
     73  O         58.4800   15.8790   40.4260 O.2   267  ALA267     -0.2718
     74  CB        56.6100   13.8100   38.4640 C.3   267  ALA267      0.0304
     75  N         59.4280   14.0090   39.6030 N.am  268  GLY268     -0.1957
     76  CA        60.4080   13.9120   40.6750 C.3   268  GLY268      0.1869
     77  C         61.3610   15.0900   40.6700 C.2   268  GLY268      0.2309
     78  O         61.7330   15.5870   41.7310 O.2   268  GLY268     -0.2863
     79  N         59.4450   18.0090   42.1500 N.3   271  PHE271     -0.1241
     80  CA        59.3170   17.7740   43.6010 C.3   271  PHE271      0.1605
     81  C         60.5700   18.2730   44.3360 C.2   271  PHE271      0.2264
     82  O         60.4650   18.9830   45.3540 O.2   271  PHE271     -0.2867
     83  CB        59.0510   16.3000   43.9340 C.3   271  PHE271      0.0534
     84  CG        58.9570   16.0440   45.4200 C.ar  271  PHE271     -0.0203
     85  CD1       57.7430   16.1900   46.0760 C.ar  271  PHE271     -0.0042
     86  CD2       60.0910   15.7410   46.1630 C.ar  271  PHE271     -0.0042
     87  CE1       57.6570   16.0030   47.4500 C.ar  271  PHE271     -0.0003
     88  CE2       60.0100   15.5350   47.5400 C.ar  271  PHE271     -0.0003
     89  CZ        58.7900   15.6750   48.1750 C.ar  271  PHE271     -0.0000
     90  N         55.2580   18.8900   46.3140 N.3   293  CYS293     -0.1235
     91  CA        54.0720   18.2720   45.7160 C.3   293  CYS293      0.1677
     92  C         53.3490   19.2390   44.7720 C.2   293  CYS293      0.2270
     93  O         52.8360   18.8420   43.7310 O.2   293  CYS293     -0.2867
     94  CB        53.1340   17.7220   46.7850 C.3   293  CYS293      0.0956
     95  SG        53.7740   16.2330   47.5970 S.3   293  CYS293     -0.0801
     96  N         55.5560   19.4780   41.5090 N.3   296  ALA296     -0.1231
     97  CA        55.3910   18.2030   40.8160 C.3   296  ALA296      0.1694
     98  C         54.0130   18.0530   40.1600 C.2   296  ALA296      0.2592
     99  O         53.9200   17.6310   39.0090 O.2   296  ALA296     -0.2718
    100  CB        55.6700   17.0440   41.7650 C.3   296  ALA296      0.0304
    101  N         52.9470   18.3630   40.9030 N.am  297  GLY297     -0.1957
    102  CA        51.5800   18.3270   40.3710 C.3   297  GLY297      0.1869
    103  C         51.3400   19.2140   39.1530 C.2   297  GLY297      0.2309
    104  O         50.5930   18.8510   38.2350 O.2   297  GLY297     -0.2863
    105  N         53.2560   17.7030   35.7760 N.3   300  ILE300     -0.1245
    106  CA        52.6490   16.5240   35.1390 C.3   300  ILE300      0.1561
    107  C         51.3890   16.8160   34.3050 C.2   300  ILE300      0.2260
    108  O         50.8990   15.9350   33.5940 O.2   300  ILE300     -0.2867
    109  CB        52.4110   15.3660   36.1380 C.3   300  ILE300      0.0252
    110  CG1       51.2390   15.6580   37.0900 C.3   300  ILE300      0.0019
    111  CG2       53.6870   15.0600   36.8950 C.3   300  ILE300      0.0019
    112  CD1       50.9740   14.5330   38.0820 C.3   300  ILE300      0.0001
@<TRIPOS>BOND
     1    59    58    2
     2    58    57    1
     3    63    64    1
     4   108   107    2
     5    57    56    1
     6    57    60    1
     7    68    67    1
     8    65    64    1
     9    65    66    2
    10    64    67    1
    11   107   106    1
    12    61    60    1
    13    60    62    1
    14    67    69    1
    15   106   105    1
    16   106   109    1
    17   109   111    1
    18   109   110    1
    19    70    71    1
    20   110   112    1
    21    55    53    1
    22    50    51    2
    23    50    49    1
    24   104   103    2
    25    71    74    1
    26    71    72    1
    27    52    53    1
    28    52    49    1
    29    52    54    1
    30    99    98    2
    31   103   102    1
    32    49    48    1
    33    72    75   am
    34    72    73    2
    35    75    76    1
    36    98    97    1
    37    98   101   am
    38   102   101    1
    39    77    76    1
    40    77    78    2
    41    97    96    1
    42    97   100    1
    43     8     6   am
    44    21    20    1
    45    47    45    1
    46    29    28   ar
    47    79    80    1
    48    20    17    1
    49     6     7    2
    50     6     5    1
    51    45    44    1
    52    28    30   ar
    53    28    27    1
    54    26    27    1
    55    26    23    1
    56    17    18    1
    57    17    16    1
    58    22    18   am
    59    22    23    1
    60    43    42    2
    61     5     2    1
    62    80    83    1
    63    80    81    1
    64    18    19    2
    65    23    24    1
    66    93    92    2
    67    83    84    1
    68    42    41    1
    69    44    41    1
    70    44    46    1
    71    81    82    2
    72    14    13    1
    73    92    91    1
    74     2     1    1
    75     2     3    1
    76    41    40    1
    77    24    25    2
    78    40    37   am
    79    39    36    1
    80    84    85   ar
    81    84    86   ar
    82     3     4    2
    83    13    15    1
    84    13    10    1
    85    91    90    1
    86    91    94    1
    87    85    87   ar
    88    37    36    1
    89    37    38    2
    90    86    88   ar
    91    36    35    1
    92    12    11    2
    93    11    10    1
    94    94    95    1
    95    10     9    1
    96    31    32    1
    97    34    33    2
    98    87    89   ar
    99    88    89   ar
   100    32    33    1
