@<TRIPOS>MOLECULE
tmp/4lc5A00.pdb
 118 116 0 0 0
SMALL
GASTEIGER

@<TRIPOS>ATOM
      1  N         22.0640   37.4340   51.9580 N.3    48  PHE48      -0.1241
      2  CA        23.4580   37.5890   51.4660 C.3    48  PHE48       0.1605
      3  C         23.7140   39.0240   51.2570 C.2    48  PHE48       0.2264
      4  O         22.7890   39.7540   50.7950 O.2    48  PHE48      -0.2867
      5  CB        23.5530   36.9160   50.0780 C.3    48  PHE48       0.0534
      6  CG        23.2790   35.4650   50.1230 C.ar   48  PHE48      -0.0203
      7  CD1       24.2420   34.6020   50.5390 C.ar   48  PHE48      -0.0042
      8  CD2       22.0320   34.9540   49.6980 C.ar   48  PHE48      -0.0042
      9  CE1       23.9840   33.2230   50.5800 C.ar   48  PHE48      -0.0003
     10  CE2       21.7870   33.5830   49.7410 C.ar   48  PHE48      -0.0003
     11  CZ        22.7350   32.7370   50.2290 C.ar   48  PHE48      -0.0000
     12  N         21.5770   40.6360   48.0350 N.3    66  ASN66      -0.1240
     13  CA        20.8880   39.8600   47.0740 C.3    66  ASN66       0.1653
     14  C         19.4760   40.3920   46.8310 C.2    66  ASN66       0.2266
     15  O         18.6860   40.4810   47.7570 O.2    66  ASN66      -0.2867
     16  CB        20.8030   38.4780   47.6210 C.3    66  ASN66       0.1155
     17  CG        20.0470   37.5550   46.6640 C.2    66  ASN66       0.2627
     18  OD1       18.8620   37.7860   46.4000 O.2    66  ASN66      -0.2716
     19  ND2       20.7700   36.6300   46.0170 N.am   66  ASN66      -0.0877
     20  N         22.8640   39.0510   42.6310 N.3    77  HIS77      -0.1226
     21  CA        23.4500   38.5070   43.8380 C.3    77  HIS77       0.1752
     22  C         24.2200   39.6390   44.5210 C.2    77  HIS77       0.2596
     23  O         24.5140   40.6400   43.9010 O.2    77  HIS77      -0.2718
     24  CB        24.4210   37.4080   43.4670 C.3    77  HIS77       0.0759
     25  CG        23.7750   36.1280   43.1090 C.ar   77  HIS77       0.0818
     26  ND1       24.4140   34.9680   43.2170 N.ar   77  HIS77      -0.2268
     27  CD2       22.4690   35.8170   42.6840 C.ar   77  HIS77       0.1154
     28  CE1       23.6180   33.9230   42.8030 C.ar   77  HIS77       0.1986
     29  NE2       22.4110   34.4340   42.5120 N.ar   77  HIS77      -0.2212
     30  N         24.5150   39.4820   45.8030 N.am   78  ALA78      -0.1966
     31  CA        25.1140   40.5600   46.6190 C.3    78  ALA78       0.1728
     32  C         26.4190   41.0350   46.0080 C.2    78  ALA78       0.2616
     33  O         26.6740   42.2440   45.9490 O.2    78  ALA78      -0.2715
     34  CB        25.3550   40.0760   48.0260 C.3    78  ALA78       0.0334
     35  N         27.1950   40.0980   45.4700 N.am   79  GLU79      -0.1977
     36  CA        28.5320   40.3830   45.0360 C.3    79  GLU79       0.1602
     37  C         28.4990   41.1880   43.7250 C.2    79  GLU79       0.2287
     38  O         29.2540   42.1590   43.5670 O.2    79  GLU79      -0.2864
     39  CB        29.3350   39.0860   44.8490 C.3    79  GLU79       0.0415
     40  CG        29.4610   38.2770   46.1140 C.3    79  GLU79       0.1163
     41  CD        28.3390   37.1950   46.1730 C.2    79  GLU79       0.3649
     42  OE1       27.1620   37.5080   46.0620 O.co2  79  GLU79      -0.2457
     43  OE2       28.6860   36.0000   46.2390 O.co2  79  GLU79      -0.2457
     44  N         32.1520   39.4090   51.8390 N.3   107  THR107     -0.1203
     45  CA        30.8560   38.8040   51.3790 C.3   107  THR107      0.1994
     46  C         30.4220   37.9210   52.5390 C.2   107  THR107      0.2619
     47  O         31.2230   37.2160   53.2160 O.2   107  THR107     -0.2717
     48  CB        31.1660   37.7300   49.8150 C.3   107  THR107      0.1784
     49  OG1       32.3880   37.0760   50.1890 O.3   107  THR107     -0.2211
     50  CG2       31.4520   38.5440   48.6410 C.3   107  THR107      0.0376
     51  N         29.1060   37.9240   52.7880 N.am  108  SER108     -0.1937
     52  CA        28.5410   37.1410   53.8890 C.3   108  SER108      0.2055
     53  C         28.6420   35.6020   53.6000 C.2   108  SER108      0.2643
     54  O         28.4650   34.7830   54.5220 O.2   108  SER108     -0.2714
     55  CB        27.0850   37.5530   54.0130 C.3   108  SER108      0.2130
     56  OG        26.3940   37.0330   52.9210 O.3   108  SER108     -0.2179
     57  N         28.9150   35.2150   52.3510 N.am  109  ALA109     -0.1963
     58  CA        28.9940   33.8040   51.9440 C.3   109  ALA109      0.1728
     59  C         30.0060   33.5970   50.7880 C.2   109  ALA109      0.2616
     60  O         30.1880   34.5170   49.9470 O.2   109  ALA109     -0.2715
     61  CB        27.6100   33.2500   51.5430 C.3   109  ALA109      0.0334
     62  N         30.6070   32.3930   50.7020 N.am  110  GLU110     -0.1964
     63  CA        31.4730   32.0690   49.5820 C.3   110  GLU110      0.1718
     64  C         30.7030   32.1900   48.2620 C.2   110  GLU110      0.2458
     65  O         29.4900   31.9680   48.2280 O.2   110  GLU110     -0.2730
     66  CB        32.0030   30.6610   49.7100 C.3   110  GLU110      0.0428
     67  CG        32.9750   30.5550   50.8860 C.3   110  GLU110      0.1163
     68  CD        33.4980   29.1340   51.1020 C.2   110  GLU110      0.3649
     69  OE1       33.0120   28.1530   50.4250 O.co2 110  GLU110     -0.2457
     70  OE2       34.3600   29.0070   52.0080 O.co2 110  GLU110     -0.2457
     71  N         31.4100   32.5970   47.1600 N.am  111  PRO111     -0.2716
     72  CA        30.6420   32.9820   46.0160 C.3   111  PRO111      0.1536
     73  C         30.1510   31.7740   45.2470 C.2   111  PRO111      0.2598
     74  O         30.8550   30.7450   45.2180 O.2   111  PRO111     -0.2715
     75  CB        31.6620   33.7740   45.1730 C.3   111  PRO111      0.0310
     76  CG        32.9980   33.1410   45.5180 C.3   111  PRO111      0.0237
     77  CD        32.8300   32.9790   47.0280 C.3   111  PRO111      0.0939
     78  N         28.9660   31.9040   44.6270 N.am  112  CYS112     -0.1968
     79  CA        28.4610   30.9240   43.6030 C.3   112  CYS112      0.1712
     80  C         29.2940   31.0410   42.3210 C.2   112  CYS112      0.2296
     81  O         30.1920   31.9240   42.1880 O.2   112  CYS112     -0.2864
     82  CB        26.9490   31.1650   43.3590 C.3   112  CYS112      0.0983
     83  SG        26.6990   32.4920   42.1630 S.3   112  CYS112     -0.0798
     84  N         25.6800   27.2780   53.1090 N.3   136  VAL136     -0.1245
     85  CA        24.7170   27.8560   52.1750 C.3   136  VAL136      0.1561
     86  C         23.8090   26.7600   51.5700 C.2   136  VAL136      0.2260
     87  O         22.5720   26.8890   51.5170 O.2   136  VAL136     -0.2867
     88  CB        25.4870   28.6110   51.0720 C.3   136  VAL136      0.0252
     89  CG1       24.5420   29.0970   49.9900 C.3   136  VAL136      0.0019
     90  CG2       26.2730   29.8050   51.6710 C.3   136  VAL136      0.0019
     91  N         20.2480   26.5830   49.1700 N.3   141  PHE141     -0.1227
     92  CA        20.7710   27.2640   48.0140 C.3   141  PHE141      0.1736
     93  C         21.8280   26.4180   47.3450 C.2   141  PHE141      0.2595
     94  O         22.3850   25.5100   47.9120 O.2   141  PHE141     -0.2718
     95  CB        21.3380   28.6220   48.3840 C.3   141  PHE141      0.0547
     96  CG        20.2940   29.6230   48.7560 C.ar  141  PHE141     -0.0202
     97  CD1       19.5770   30.3230   47.7600 C.ar  141  PHE141     -0.0042
     98  CD2       20.0020   29.8650   50.0800 C.ar  141  PHE141     -0.0042
     99  CE1       18.6030   31.2710   48.1140 C.ar  141  PHE141     -0.0003
    100  CE2       19.0240   30.7850   50.4350 C.ar  141  PHE141     -0.0003
    101  CZ        18.2970   31.4760   49.4500 C.ar  141  PHE141     -0.0000
    102  N         22.1000   26.7750   46.1110 N.am  142  ASP142     -0.1960
    103  CA        23.0390   26.0520   45.2480 C.3   142  ASP142      0.1840
    104  C         24.1670   27.0190   44.8770 C.2   142  ASP142      0.2621
    105  O         23.9110   28.1700   44.4980 O.2   142  ASP142     -0.2715
    106  CB        22.2810   25.6430   44.0240 C.3   142  ASP142      0.1450
    107  CG        23.0280   24.6540   43.1170 C.2   142  ASP142      0.3671
    108  OD1       22.3360   24.2580   42.1650 O.co2 142  ASP142     -0.2456
    109  OD2       24.2250   24.2740   43.2690 O.co2 142  ASP142     -0.2456
    110  N         25.4030   26.5550   45.0040 N.am  143  GLU143     -0.1977
    111  CA        26.5710   27.3160   44.5710 C.3   143  GLU143      0.1602
    112  C         26.8800   27.0780   43.0910 C.2   143  GLU143      0.2287
    113  O         27.6390   27.8570   42.4760 O.2   143  GLU143     -0.2864
    114  CB        27.8020   26.9970   45.4390 C.3   143  GLU143      0.0415
    115  CG        27.6010   27.3210   46.9330 C.3   143  GLU143      0.1163
    116  CD        27.8250   28.8000   47.2620 C.2   143  GLU143      0.3649
    117  OE1       28.4820   29.1090   48.2910 O.co2 143  GLU143     -0.2457
    118  OE2       27.3680   29.6730   46.4770 O.co2 143  GLU143     -0.2457
@<TRIPOS>BOND
     1    83    82    1
     2   108   107   ar
     3    81    80    2
     4    80    79    1
     5   113   112    2
     6    29    27   ar
     7    29    28   ar
     8    20    21    1
     9    27    25   ar
    10    28    26   ar
    11   112   111    1
    12    25    26   ar
    13    25    24    1
    14   107   109   ar
    15   107   106    1
    16    82    79    1
    17    24    21    1
    18    38    37    2
    19    79    78    1
    20    37    36    1
    21    21    22    1
    22    23    22    2
    23   106   103    1
    24   105   104    2
    25    22    30   am
    26   111   110    1
    27   111   114    1
    28    78    73   am
    29    39    36    1
    30    39    40    1
    31   104   110   am
    32   104   103    1
    33    36    35    1
    34    75    76    1
    35    75    72    1
    36    74    73    2
    37    73    72    1
    38   103   102    1
    39   114   115    1
    40    35    32   am
    41    76    77    1
    42    30    31    1
    43    33    32    2
    44    32    31    1
    45    72    71    1
    46    19    17   am
    47    42    41   ar
    48   102    93   am
    49    40    41    1
    50    41    43   ar
    51    18    17    2
    52   118   116   ar
    53    31    34    1
    54    17    16    1
    55    14    13    1
    56    14    15    2
    57   115   116    1
    58    77    71    1
    59    13    16    1
    60    13    12    1
    61    71    64   am
    62   116   117   ar
    63    93    94    2
    64    93    92    1
    65    97    99   ar
    66    97    96   ar
    67    92    95    1
    68    92    91    1
    69    99   101   ar
    70    65    64    2
    71    64    63    1
    72    95    96    1
    73    50    48    1
    74    96    98   ar
    75   101   100   ar
    76    63    66    1
    77    63    62    1
    78     8    10   ar
    79     8     6   ar
    80    66    67    1
    81    10    11   ar
    82    48    49    1
    83    48    45    1
    84    60    59    2
    85    89    88    1
    86     5     6    1
    87     5     2    1
    88    98   100   ar
    89     6     7   ar
    90    11     9   ar
    91    69    68   ar
    92     7     9   ar
    93    62    59   am
    94    59    58    1
    95     4     3    2
    96    67    68    1
    97    88    90    1
    98    88    85    1
    99    68    70   ar
   100     3     2    1
   101    45    44    1
   102    45    46    1
   103     2     1    1
   104    87    86    2
   105    61    58    1
   106    86    85    1
   107    58    57    1
   108    85    84    1
   109    57    53   am
   110    46    51   am
   111    46    47    2
   112    51    52    1
   113    56    55    1
   114    53    52    1
   115    53    54    2
   116    52    55    1
