@<TRIPOS>MOLECULE
tmp/4lc7A00.pdb
 161 155 0 0 0
SMALL
GASTEIGER

@<TRIPOS>ATOM
      1  N         32.1820   23.9340   13.0010 N.3    15  GLY15      -0.1210
      2  CA        31.6420   23.5050   11.7160 C.3    15  GLY15       0.1956
      3  C         31.6150   22.0150   11.4380 C.2    15  GLY15       0.2612
      4  O         31.2050   21.5930   10.3510 O.2    15  GLY15      -0.2717
      5  N         32.0630   21.2110   12.4060 N.am   16  GLN16      -0.1965
      6  CA        32.1520   19.7710   12.1920 C.3    16  GLN16       0.1733
      7  C         31.2650   18.9550   13.1420 C.2    16  GLN16       0.2617
      8  O         31.3520   17.7330   13.1480 O.2    16  GLN16      -0.2715
      9  CB        33.6050   19.2950   12.2540 C.3    16  GLN16       0.0408
     10  CG        34.5080   20.0730   11.2870 C.3    16  GLN16       0.0908
     11  CD        35.8500   19.4110   11.0760 C.2    16  GLN16       0.2608
     12  OE1       36.4490   18.8890   12.0150 O.2    16  GLN16      -0.2717
     13  NE2       36.3430   19.4460    9.8350 N.am   16  GLN16      -0.0878
     14  N         30.4040   19.6380   13.8910 N.am   17  GLY17      -0.1940
     15  CA        29.3400   18.9970   14.6660 C.3    17  GLY17       0.2014
     16  C         29.7660   18.8270   16.1070 C.2    17  GLY17       0.2638
     17  O         30.9550   18.7510   16.3940 O.2    17  GLY17      -0.2714
     18  N         28.7810   18.7230   16.9940 N.am   18  TYR18      -0.1973
     19  CA        29.0110   18.4970   18.4070 C.3    18  TYR18       0.1639
     20  C         28.8510   17.0120   18.7130 C.2    18  TYR18       0.2290
     21  O         27.8940   16.3780   18.2640 O.2    18  TYR18      -0.2864
     22  CB        27.9870   19.2940   19.2170 C.3    18  TYR18       0.0560
     23  CG        28.1690   20.8020   19.1280 C.ar   18  TYR18      -0.0198
     24  CD1       27.6730   21.5390   18.0460 C.ar   18  TYR18      -0.0009
     25  CD2       28.8110   21.4880   20.1540 C.ar   18  TYR18      -0.0009
     26  CE1       27.8300   22.9280   17.9880 C.ar   18  TYR18       0.0417
     27  CE2       28.9760   22.8580   20.1100 C.ar   18  TYR18       0.0417
     28  CZ        28.4960   23.5730   19.0330 C.ar   18  TYR18       0.1957
     29  OH        28.6970   24.9300   19.0620 O.3    18  TYR18      -0.2866
     30  N         28.3760   12.0210   17.2230 N.3    34  LEU34      -0.1245
     31  CA        27.6950   13.2550   16.7940 C.3    34  LEU34       0.1561
     32  C         26.2450   13.3310   17.2800 C.2    34  LEU34       0.2260
     33  O         25.4560   12.4160   17.0360 O.2    34  LEU34      -0.2867
     34  CB        27.7040   13.3230   15.2680 C.3    34  LEU34       0.0270
     35  CG        27.0040   14.5530   14.6750 C.3    34  LEU34       0.0019
     36  CD1       27.9160   15.7660   14.7220 C.3    34  LEU34       0.0001
     37  CD2       26.6110   14.2580   13.2460 C.3    34  LEU34       0.0001
     38  N         22.7200   14.4940   16.8380 N.3    36  ASP36      -0.1239
     39  CA        22.0010   14.8810   15.6070 C.3    36  ASP36       0.1674
     40  C         20.4810   14.8750   15.7400 C.2    36  ASP36       0.2266
     41  O         19.8460   13.8370   15.5860 O.2    36  ASP36      -0.2867
     42  CB        22.4270   13.9490   14.4660 C.3    36  ASP36       0.1410
     43  CG        21.9170   14.4110   13.1070 C.2    36  ASP36       0.3668
     44  OD1       21.3980   15.5390   12.9860 O.co2  36  ASP36      -0.2456
     45  OD2       22.0600   13.6270   12.1490 O.co2  36  ASP36      -0.2456
     46  N         18.5630   15.9690   13.6160 N.3    38  GLY38      -0.1210
     47  CA        18.0500   15.9060   12.2300 C.3    38  GLY38       0.1956
     48  C         18.0250   14.5120   11.6150 C.2    38  GLY38       0.2612
     49  O         17.8380   14.3930   10.3960 O.2    38  GLY38      -0.2717
     50  N         18.2220   13.4690   12.4320 N.am   39  SER39      -0.1952
     51  CA        18.1540   12.0540   11.9570 C.3    39  SER39       0.1924
     52  C         17.7880   11.1150   13.0940 C.2    39  SER39       0.2314
     53  O         17.7030   11.5610   14.2360 O.2    39  SER39      -0.2863
     54  CB        19.4780   11.6300   11.3310 C.3    39  SER39       0.2116
     55  OG        20.4650   11.4580   12.3410 O.3    39  SER39      -0.2180
     56  N         22.6950    9.8720    1.7580 N.3    75  TYR75      -0.1227
     57  CA        22.3120   11.2680    1.9350 C.3    75  TYR75       0.1736
     58  C         22.5660   12.0050    0.6160 C.2    75  TYR75       0.2596
     59  O         22.9820   11.3980   -0.3780 O.2    75  TYR75      -0.2718
     60  CB        23.1250   11.9350    3.0500 C.3    75  TYR75       0.0548
     61  CG        23.1870   11.2100    4.3740 C.ar   75  TYR75      -0.0200
     62  CD1       22.0230   10.8990    5.0890 C.ar   75  TYR75      -0.0009
     63  CD2       24.4180   10.8700    4.9370 C.ar   75  TYR75      -0.0009
     64  CE1       22.0880   10.2500    6.3140 C.ar   75  TYR75       0.0417
     65  CE2       24.4960   10.2270    6.1630 C.ar   75  TYR75       0.0417
     66  CZ        23.3270    9.9180    6.8470 C.ar   75  TYR75       0.1957
     67  OH        23.4010    9.2880    8.0690 O.3    75  TYR75      -0.2866
     68  N         22.3260   13.3120    0.6110 N.am   76  THR76      -0.1953
     69  CA        22.6460   14.1500   -0.5440 C.3    76  THR76       0.1897
     70  C         24.1570   14.1820   -0.8160 C.2    76  THR76       0.2313
     71  O         24.5860   14.0370   -1.9650 O.2    76  THR76      -0.2863
     72  CB        22.0950   15.5790   -0.3550 C.3    76  THR76       0.1794
     73  OG1       20.6720   15.5160   -0.2130 O.3    76  THR76      -0.2208
     74  CG2       22.4360   16.4700   -1.5490 C.3    76  THR76       0.0378
     75  N         32.1030    9.7090    2.1530 N.3   111  LYS111     -0.1231
     76  CA        31.8690   11.1340    2.4190 C.3   111  LYS111      0.1693
     77  C         30.9810   11.3530    3.6450 C.2   111  LYS111      0.2592
     78  O         30.2180   12.3130    3.7200 O.2   111  LYS111     -0.2718
     79  CB        31.2850   11.8250    1.1750 C.3   111  LYS111      0.0285
     80  CG        32.2910   12.0060    0.0410 C.3   111  LYS111      0.0035
     81  CD        31.6520   11.9390   -1.3470 C.3   111  LYS111      0.0206
     82  CE        30.7500   13.1270   -1.6650 C.3   111  LYS111      0.1093
     83  NZ        31.3710   14.4460   -1.3480 N.3   111  LYS111     -0.1314
     84  N         31.0970   10.4410    4.6020 N.am  112  PHE112     -0.1976
     85  CA        30.3100   10.4850    5.8260 C.3   112  PHE112      0.1639
     86  C         31.2030   10.9470    6.9800 C.2   112  PHE112      0.2290
     87  O         30.9560   11.9940    7.5850 O.2   112  PHE112     -0.2864
     88  CB        29.6800    9.1090    6.0950 C.3   112  PHE112      0.0560
     89  CG        28.9810    9.0000    7.4240 C.ar  112  PHE112     -0.0200
     90  CD1       27.7600    9.6200    7.6380 C.ar  112  PHE112     -0.0042
     91  CD2       29.5570    8.2890    8.4650 C.ar  112  PHE112     -0.0042
     92  CE1       27.1130    9.5120    8.8580 C.ar  112  PHE112     -0.0003
     93  CE2       28.9220    8.1960    9.6960 C.ar  112  PHE112     -0.0003
     94  CZ        27.6950    8.7990    9.8890 C.ar  112  PHE112     -0.0000
     95  N         34.4120   12.6410    8.7740 N.3   114  ILE114     -0.1245
     96  CA        35.1360   13.8820    8.4700 C.3   114  ILE114      0.1561
     97  C         36.5070   13.8870    9.1280 C.2   114  ILE114      0.2260
     98  O         36.6150   13.6960   10.3460 O.2   114  ILE114     -0.2867
     99  CB        34.3390   15.1110    8.9590 C.3   114  ILE114      0.0252
    100  CG1       33.0080   15.1950    8.2190 C.3   114  ILE114      0.0019
    101  CG2       35.1510   16.3960    8.8030 C.3   114  ILE114      0.0019
    102  CD1       32.0790   16.2530    8.7530 C.3   114  ILE114      0.0001
    103  N         34.7740   12.5430   15.7970 N.3   119  TRP119     -0.1241
    104  CA        33.6420   11.6330   16.0620 C.3   119  TRP119      0.1605
    105  C         33.6300   10.4040   15.1430 C.2   119  TRP119      0.2264
    106  O         34.1050   10.4500   13.9920 O.2   119  TRP119     -0.2867
    107  CB        32.2670   12.3690   16.1140 C.3   119  TRP119      0.0550
    108  CG        31.8650   13.2070   14.9020 C.ar  119  TRP119      0.0003
    109  CD1       31.9280   14.5750   14.8050 C.ar  119  TRP119      0.0946
    110  CD2       31.2840   12.7490   13.6700 C.ar  119  TRP119      0.0152
    111  NE1       31.4390   14.9930   13.5840 N.ar  119  TRP119     -0.2442
    112  CE2       31.0400   13.8970   12.8680 C.ar  119  TRP119      0.0810
    113  CE3       30.9560   11.4850   13.1550 C.ar  119  TRP119      0.0012
    114  CZ2       30.5080   13.8110   11.5780 C.ar  119  TRP119      0.0191
    115  CZ3       30.4170   11.4010   11.8820 C.ar  119  TRP119      0.0001
    116  CH2       30.2010   12.5540   11.1010 C.ar  119  TRP119      0.0015
    117  N         27.0600    8.5040   14.8910 N.3   122  ILE122     -0.1245
    118  CA        25.9960    9.5090   14.8800 C.3   122  ILE122      0.1561
    119  C         24.8690    9.0450   15.7800 C.2   122  ILE122      0.2260
    120  O         24.5090    7.8620   15.7710 O.2   122  ILE122     -0.2867
    121  CB        25.5060    9.7470   13.4270 C.3   122  ILE122      0.0252
    122  CG1       24.4550   10.8570   13.3640 C.3   122  ILE122      0.0019
    123  CG2       25.0190    8.4630   12.7720 C.3   122  ILE122      0.0019
    124  CD1       24.2910   11.3950   11.9390 C.3   122  ILE122      0.0001
    125  N         17.7610   21.4360   13.8720 N.3   232  ASP232     -0.1225
    126  CA        18.7480   20.3890   13.4780 C.3   232  ASP232      0.1805
    127  C         20.1540   20.6300   13.9920 C.2   232  ASP232      0.2598
    128  O         20.9220   21.4000   13.4020 O.2   232  ASP232     -0.2718
    129  CB        18.7750   20.2430   11.9420 C.3   232  ASP232      0.1424
    130  CG        19.6780   19.1000   11.4950 C.2   232  ASP232      0.3668
    131  OD1       20.1380   18.2990   12.3510 O.co2 232  ASP232     -0.2456
    132  OD2       19.9200   18.9820   10.2700 O.co2 232  ASP232     -0.2456
    133  N         20.5120   19.9590   15.0880 N.am  233  SER233     -0.1938
    134  CA        21.8490   20.1150   15.6730 C.3   233  SER233      0.2055
    135  C         22.9470   19.5390   14.7760 C.2   233  SER233      0.2644
    136  O         24.1350   19.7940   15.0000 O.2   233  SER233     -0.2714
    137  CB        21.9040   19.4190   17.0190 C.3   233  SER233      0.2130
    138  OG        21.7750   18.0020   16.8850 O.3   233  SER233     -0.2179
    139  N         22.5370   18.7400   13.8030 N.am  234  GLY234     -0.1939
    140  CA        23.4840   18.1140   12.8660 C.3   234  GLY234      0.2014
    141  C         23.7000   18.8840   11.5720 C.2   234  GLY234      0.2640
    142  O         24.2510   18.3480   10.6100 O.2   234  GLY234     -0.2714
    143  N         23.2800   20.1460   11.5510 N.am  235  THR235     -0.1936
    144  CA        23.5490   21.0690   10.4440 C.3   235  THR235      0.2028
    145  C         24.2570   22.2790   11.0260 C.2   235  THR235      0.2642
    146  O         23.8570   22.7840   12.0840 O.2   235  THR235     -0.2714
    147  CB        22.2520   21.5010    9.7090 C.3   235  THR235      0.1808
    148  OG1       21.7110   20.3950    8.9780 O.3   235  THR235     -0.2208
    149  CG2       22.5120   22.6650    8.7180 C.3   235  THR235      0.0379
    150  N         25.3280   22.7390   10.3700 N.am  236  THR236     -0.1950
    151  CA        26.0520   23.9120   10.8800 C.3   236  THR236      0.1897
    152  C         25.2650   25.1870   10.6160 C.2   236  THR236      0.2313
    153  O         25.0970   26.0340   11.5120 O.2   236  THR236     -0.2863
    154  CB        27.4550   24.0290   10.2400 C.3   236  THR236      0.1794
    155  OG1       28.2170   22.8590   10.5750 O.3   236  THR236     -0.2208
    156  CG2       28.1920   25.2800   10.7370 C.3   236  THR236      0.0378
    157  N         23.2880   24.9800   13.7980 N.3   339  ALA339     -0.1245
    158  CA        24.1000   25.5600   14.8770 C.3   339  ALA339      0.1562
    159  C         24.0820   27.0900   14.8570 C.2   339  ALA339      0.2260
    160  O         24.1040   27.7150   15.9200 O.2   339  ALA339     -0.2867
    161  CB        25.5260   25.0330   14.8010 C.3   339  ALA339      0.0290
@<TRIPOS>BOND
     1    71    70    2
     2    82    83    1
     3    82    81    1
     4    74    72    1
     5    81    80    1
     6    70    69    1
     7    69    72    1
     8    69    68    1
     9    59    58    2
    10    72    73    1
    11    80    79    1
    12    68    58   am
    13    58    57    1
    14    79    76    1
    15    56    57    1
    16    57    60    1
    17    75    76    1
    18    76    77    1
    19    60    61    1
    20    77    78    2
    21    77    84   am
    22    61    63   ar
    23    61    62   ar
    24    84    85    1
    25    63    65   ar
    26    62    64   ar
    27    85    88    1
    28    85    86    1
    29    88    89    1
    30    65    66   ar
    31    64    66   ar
    32    66    67    1
    33    86    87    2
    34    89    90   ar
    35    89    91   ar
    36    90    92   ar
    37   100   102    1
    38   100    99    1
    39    91    93   ar
    40    96    95    1
    41    96    99    1
    42    96    97    1
    43   149   147    1
    44   101    99    1
    45    92    94   ar
    46   148   147    1
    47    97    98    2
    48    93    94   ar
    49   147   144    1
    50    13    11   am
    51   154   155    1
    52   154   156    1
    53   154   151    1
    54   132   130   ar
    55     4     3    2
    56   150   151    1
    57   150   145   am
    58    49    48    2
    59   144   145    1
    60   144   143    1
    61   142   141    2
    62   152   151    1
    63   152   153    2
    64   145   146    2
    65    11    10    1
    66    11    12    2
    67   116   114   ar
    68   116   115   ar
    69    10     9    1
    70    54    51    1
    71    54    55    1
    72     3     2    1
    73     3     5   am
    74   130   129    1
    75   130   131   ar
    76   143   141   am
    77   141   140    1
    78   114   112   ar
    79    48    47    1
    80    48    50   am
    81     2     1    1
    82   115   113   ar
    83   124   122    1
    84   129   126    1
    85    51    50    1
    86    51    52    1
    87    45    43   ar
    88     6     9    1
    89     6     5    1
    90     6     7    1
    91    47    46    1
    92   123   121    1
    93   140   139    1
    94   112   111   ar
    95   112   110   ar
    96    44    43   ar
    97    52    53    2
    98    43    42    1
    99     7     8    2
   100     7    14   am
   101   113   110   ar
   102    37    35    1
   103   122   121    1
   104   128   127    2
   105   121   118    1
   106   126   125    1
   107   126   127    1
   108   111   109   ar
   109   110   108   ar
   110   157   158    1
   111   139   135   am
   112    14    15    1
   113   106   105    2
   114   127   133   am
   115    42    39    1
   116    15    16    1
   117    35    36    1
   118    35    34    1
   119   135   136    2
   120   135   134    1
   121   161   158    1
   122   109   108   ar
   123   159   158    1
   124   159   160    2
   125   118   117    1
   126   118   119    1
   127   108   107    1
   128   133   134    1
   129   105   104    1
   130    34    31    1
   131    41    40    2
   132    39    40    1
   133    39    38    1
   134   134   137    1
   135   120   119    2
   136   103   104    1
   137   104   107    1
   138    16    17    2
   139    16    18   am
   140    31    30    1
   141    31    32    1
   142   138   137    1
   143    18    19    1
   144    33    32    2
   145    26    24   ar
   146    26    28   ar
   147    24    23   ar
   148    21    20    2
   149    19    20    1
   150    19    22    1
   151    28    29    1
   152    28    27   ar
   153    23    22    1
   154    23    25   ar
   155    27    25   ar
