@<TRIPOS>MOLECULE
tmp/4lc9A00.pdb
 160 150 0 0 0
SMALL
GASTEIGER

@<TRIPOS>ATOM
      1  N         36.7420   -9.8980   60.0490 N.3   101  GLY101     -0.1210
      2  CA        36.6140  -10.6220   58.7990 C.3   101  GLY101      0.1956
      3  C         35.8950   -9.8130   57.7430 C.2   101  GLY101      0.2612
      4  O         35.0830   -8.9490   58.0630 O.2   101  GLY101     -0.2717
      5  N         36.1670  -10.1210   56.4790 N.am  102  GLY102     -0.1942
      6  CA        35.4790   -9.4760   55.3770 C.3   102  GLY102      0.2014
      7  C         35.5110   -7.9620   55.4350 C.2   102  GLY102      0.2640
      8  O         36.5600   -7.3720   55.6880 O.2   102  GLY102     -0.2714
      9  N         34.3560   -7.3350   55.2360 N.am  103  THR103     -0.1936
     10  CA        34.2400   -5.8780   55.2390 C.3   103  THR103      0.2028
     11  C         34.6680   -5.2660   56.5690 C.2   103  THR103      0.2642
     12  O         35.2380   -4.1770   56.5830 O.2   103  THR103     -0.2714
     13  CB        32.7860   -5.4430   54.9400 C.3   103  THR103      0.1808
     14  OG1       32.3010   -6.1310   53.7820 O.3   103  THR103     -0.2208
     15  CG2       32.6990   -3.9430   54.7100 C.3   103  THR103      0.0379
     16  N         34.4290   -5.9630   57.6760 N.am  104  SER104     -0.1949
     17  CA        34.8500   -5.4660   58.9900 C.3   104  SER104      0.1924
     18  C         36.3710   -5.3790   58.9840 C.2   104  SER104      0.2314
     19  O         36.9680   -4.4540   59.5330 O.2   104  SER104     -0.2863
     20  CB        34.3570   -6.3630   60.1270 C.3   104  SER104      0.2116
     21  OG        32.9540   -6.2550   60.2870 O.3   104  SER104     -0.2180
     22  N         38.1920   -5.0710   56.1880 N.3   106  ARG106     -0.1245
     23  CA        38.6350   -4.0820   55.2120 C.3   106  ARG106      0.1563
     24  C         38.6500   -2.6630   55.7670 C.2   106  ARG106      0.2260
     25  O         39.4960   -1.8500   55.3910 O.2   106  ARG106     -0.2867
     26  CB        37.7210   -4.1220   53.9900 C.3   106  ARG106      0.0307
     27  CG        37.7120   -5.4350   53.2470 C.3   106  ARG106      0.0489
     28  CD        36.7080   -5.3960   52.1040 C.3   106  ARG106      0.2205
     29  NE        36.6120   -6.6760   51.4040 N.pl3 106  ARG106     -0.0865
     30  CZ        35.6210   -7.5570   51.5360 C.cat 106  ARG106      0.5346
     31  NH1       34.5970   -7.3160   52.3410 N.pl3 106  ARG106      0.1354
     32  NH2       35.6520   -8.6920   50.8460 N.pl3 106  ARG106      0.1354
     33  N         35.4000  -15.4270   52.6060 N.3   144  GLU144     -0.1245
     34  CA        34.6780  -15.4350   53.8760 C.3   144  GLU144      0.1567
     35  C         34.7590  -16.7240   54.6960 C.2   144  GLU144      0.2260
     36  O         34.6440  -16.6860   55.9210 O.2   144  GLU144     -0.2867
     37  CB        33.2190  -15.0890   53.6010 C.3   144  GLU144      0.0388
     38  CG        33.0710  -13.6510   53.1490 C.3   144  GLU144      0.1160
     39  CD        31.7530  -13.3640   52.4810 C.2   144  GLU144      0.3649
     40  OE1       30.8970  -14.2720   52.4040 O.co2 144  GLU144     -0.2457
     41  OE2       31.5790  -12.2150   52.0330 O.co2 144  GLU144     -0.2457
     42  N         37.2050  -17.1800   57.7520 N.3   147  GLU147     -0.1245
     43  CA        36.9150  -16.6940   59.0990 C.3   147  GLU147      0.1567
     44  C         36.3970  -17.7810   60.0280 C.2   147  GLU147      0.2260
     45  O         36.2570  -17.5530   61.2310 O.2   147  GLU147     -0.2867
     46  CB        35.8710  -15.5650   59.0420 C.3   147  GLU147      0.0388
     47  CG        36.4070  -14.2000   58.6260 C.3   147  GLU147      0.1160
     48  CD        36.1010  -13.8300   57.1710 C.2   147  GLU147      0.3649
     49  OE1       34.9050  -13.7140   56.8150 O.co2 147  GLU147     -0.2457
     50  OE2       37.0560  -13.6400   56.3840 O.co2 147  GLU147     -0.2457
     51  N         36.5350   -6.7950   65.5090 N.3   172  ILE172     -0.1231
     52  CA        35.3040   -6.2890   64.9100 C.3   172  ILE172      0.1692
     53  C         34.4880   -7.3880   64.2420 C.2   172  ILE172      0.2593
     54  O         34.9690   -8.0850   63.3460 O.2   172  ILE172     -0.2718
     55  CB        35.6040   -5.1900   63.8660 C.3   172  ILE172      0.0266
     56  CG1       36.4760   -4.0930   64.4870 C.3   172  ILE172      0.0019
     57  CG2       34.3020   -4.5930   63.3180 C.3   172  ILE172      0.0020
     58  CD1       37.1290   -3.1930   63.4740 C.3   172  ILE172      0.0001
     59  N         33.2470   -7.5390   64.6850 N.am  173  SER173     -0.1938
     60  CA        32.3170   -8.4600   64.0480 C.3   173  SER173      0.2055
     61  C         30.9130   -7.9150   64.2380 C.2   173  SER173      0.2643
     62  O         30.3400   -8.0150   65.3240 O.2   173  SER173     -0.2714
     63  CB        32.4280   -9.8750   64.6200 C.3   173  SER173      0.2130
     64  OG        31.5990  -10.7710   63.8950 O.3   173  SER173     -0.2179
     65  N         30.3800   -7.3130   63.1790 N.am  174  VAL174     -0.1963
     66  CA        29.0570   -6.7040   63.2180 C.3   174  VAL174      0.1727
     67  C         28.0210   -7.6580   63.8100 C.2   174  VAL174      0.2616
     68  O         27.2380   -7.2570   64.6710 O.2   174  VAL174     -0.2715
     69  CB        28.5980   -6.2620   61.8030 C.3   174  VAL174      0.0290
     70  CG1       27.1900   -5.6650   61.8360 C.3   174  VAL174      0.0023
     71  CG2       29.5850   -5.2650   61.2020 C.3   174  VAL174      0.0023
     72  N         28.0110   -8.9120   63.3580 N.am  175  GLY175     -0.1955
     73  CA        27.0190   -9.8540   63.8410 C.3   175  GLY175      0.1869
     74  C         27.3990  -10.5520   65.1370 C.2   175  GLY175      0.2309
     75  O         26.6140  -11.3450   65.6600 O.2   175  GLY175     -0.2863
     76  N         32.0160  -14.0650   64.0620 N.3   178  ALA178     -0.1245
     77  CA        33.2620  -14.6160   63.5410 C.3   178  ALA178      0.1562
     78  C         34.1610  -15.2780   64.6000 C.2   178  ALA178      0.2260
     79  O         34.6220  -14.6050   65.5210 O.2   178  ALA178     -0.2867
     80  CB        34.0390  -13.5150   62.8440 C.3   178  ALA178      0.0290
     81  N         21.1150   -8.7490   56.4580 N.3   250  GLY250     -0.1210
     82  CA        22.4170   -9.3500   56.6630 C.3   250  GLY250      0.1956
     83  C         23.5580   -8.7160   55.8910 C.2   250  GLY250      0.2613
     84  O         24.6800   -9.2200   55.9420 O.2   250  GLY250     -0.2717
     85  N         23.3000   -7.6140   55.1900 N.am  251  SER251     -0.1938
     86  CA        24.3510   -6.9670   54.4120 C.3   251  SER251      0.2055
     87  C         25.1710   -6.0730   55.3390 C.2   251  SER251      0.2644
     88  O         25.0850   -4.8480   55.2780 O.2   251  SER251     -0.2714
     89  CB        23.7530   -6.1650   53.2550 C.3   251  SER251      0.2130
     90  OG        24.7570   -5.7510   52.3420 O.3   251  SER251     -0.2179
     91  N         25.9910   -6.7080   56.1720 N.am  252  SER252     -0.1935
     92  CA        26.7940   -6.0350   57.1940 C.3   252  SER252      0.2055
     93  C         27.7470   -4.9930   56.6180 C.2   252  SER252      0.2642
     94  O         28.2310   -4.1200   57.3360 O.2   252  SER252     -0.2714
     95  CB        27.5900   -7.0640   58.0060 C.3   252  SER252      0.2130
     96  OG        26.7500   -8.0910   58.5100 O.3   252  SER252     -0.2179
     97  N         28.0540   -5.1150   55.3340 N.am  253  ARG253     -0.1977
     98  CA        28.9360   -4.1690   54.6670 C.3   253  ARG253      0.1597
     99  C         28.3680   -2.7490   54.5960 C.2   253  ARG253      0.2287
    100  O         29.1250   -1.7830   54.4980 O.2   253  ARG253     -0.2864
    101  CB        29.2330   -4.6610   53.2480 C.3   253  ARG253      0.0334
    102  CG        27.9850   -4.8020   52.3740 C.3   253  ARG253      0.0492
    103  CD        28.3010   -4.5660   50.9160 C.3   253  ARG253      0.2205
    104  NE        27.0930   -4.4640   50.1110 N.pl3 253  ARG253     -0.0865
    105  CZ        27.0860   -4.1640   48.8170 C.cat 253  ARG253      0.5346
    106  NH1       28.2270   -3.9320   48.1770 N.pl3 253  ARG253      0.1354
    107  NH2       25.9340   -4.0930   48.1610 N.pl3 253  ARG253      0.1354
    108  N         29.7900  -12.1610   46.3380 N.3   341  HIS341     -0.1226
    109  CA        29.1500  -13.0280   47.3230 C.3   341  HIS341      0.1752
    110  C         27.7680  -12.5260   47.7430 C.2   341  HIS341      0.2596
    111  O         26.8900  -13.3320   48.0610 O.2   341  HIS341     -0.2718
    112  CB        30.0420  -13.1750   48.5540 C.3   341  HIS341      0.0759
    113  CG        29.9500  -12.0250   49.5030 C.ar  341  HIS341      0.0818
    114  ND1       29.0180  -11.9770   50.5160 N.ar  341  HIS341     -0.2268
    115  CD2       30.6560  -10.8730   49.5830 C.ar  341  HIS341      0.1154
    116  CE1       29.1600  -10.8490   51.1880 C.ar  341  HIS341      0.1986
    117  NE2       30.1490  -10.1620   50.6440 N.ar  341  HIS341     -0.2212
    118  N         27.5800  -11.2090   47.7800 N.am  342  THR342     -0.1953
    119  CA        26.3380  -10.6360   48.2980 C.3   342  THR342      0.1897
    120  C         25.2430  -11.0200   47.3140 C.2   342  THR342      0.2313
    121  O         24.1190  -11.3430   47.7030 O.2   342  THR342     -0.2863
    122  CB        26.3980   -9.1120   48.4660 C.3   342  THR342      0.1794
    123  OG1       27.0200   -8.5290   47.3210 O.3   342  THR342     -0.2208
    124  CG2       27.1980   -8.7430   49.6870 C.3   342  THR342      0.0378
    125  N         29.8850  -19.6830   53.8520 N.3   474  ASN474     -0.1240
    126  CA        30.3950  -19.8960   55.2080 C.3   474  ASN474      0.1653
    127  C         29.2780  -20.1850   56.2120 C.2   474  ASN474      0.2266
    128  O         28.0960  -20.1640   55.8660 O.2   474  ASN474     -0.2867
    129  CB        31.2170  -18.6800   55.6680 C.3   474  ASN474      0.1155
    130  CG        30.3700  -17.4270   55.8660 C.2   474  ASN474      0.2627
    131  OD1       29.2370  -17.3500   55.3950 O.2   474  ASN474     -0.2716
    132  ND2       30.9280  -16.4350   56.5590 N.am  474  ASN474     -0.0877
    133  N         28.1160  -18.5070   58.9250 N.3   476  LYS476     -0.1231
    134  CA        27.1940  -17.4150   59.2320 C.3   476  LYS476      0.1693
    135  C         26.0490  -17.3680   58.2190 C.2   476  LYS476      0.2591
    136  O         24.8830  -17.1950   58.5740 O.2   476  LYS476     -0.2718
    137  CB        27.9370  -16.0770   59.2590 C.3   476  LYS476      0.0285
    138  CG        27.0910  -14.9010   59.7270 C.3   476  LYS476      0.0035
    139  CD        27.9390  -13.6680   59.9840 C.3   476  LYS476      0.0206
    140  CE        28.7070  -13.2550   58.7390 C.3   476  LYS476      0.1093
    141  NZ        28.7200  -11.7800   58.5850 N.3   476  LYS476     -0.1314
    142  N         26.4110  -17.5340   56.9510 N.am  477  LEU477     -0.1980
    143  CA        25.4630  -17.4820   55.8440 C.3   477  LEU477      0.1596
    144  C         24.5550  -18.6980   55.8190 C.2   477  LEU477      0.2287
    145  O         23.4050  -18.6190   55.3890 O.2   477  LEU477     -0.2864
    146  CB        26.2010  -17.3590   54.5090 C.3   477  LEU477      0.0297
    147  CG        26.8480  -16.0000   54.2420 C.3   477  LEU477      0.0022
    148  CD1       27.7120  -16.0640   52.9920 C.3   477  LEU477      0.0001
    149  CD2       25.7980  -14.9060   54.1080 C.3   477  LEU477      0.0001
    150  N         21.9420  -18.0780   58.2280 N.3   480  ARG480     -0.1245
    151  CA        21.1480  -17.0370   57.5900 C.3   480  ARG480      0.1563
    152  C         20.2240  -17.6640   56.5580 C.2   480  ARG480      0.2260
    153  O         19.0580  -17.2930   56.4360 O.2   480  ARG480     -0.2867
    154  CB        22.0450  -15.9870   56.9260 C.3   480  ARG480      0.0307
    155  CG        21.2800  -14.8110   56.3140 C.3   480  ARG480      0.0489
    156  CD        22.2110  -13.8330   55.6090 C.3   480  ARG480      0.2205
    157  NE        23.2630  -13.3460   56.4960 N.pl3 480  ARG480     -0.0865
    158  CZ        24.2630  -12.5570   56.1140 C.cat 480  ARG480      0.5346
    159  NH1       24.3490  -12.1570   54.8490 N.pl3 480  ARG480      0.1354
    160  NH2       25.1770  -12.1680   56.9960 N.pl3 480  ARG480      0.1354
@<TRIPOS>BOND
     1   108   109    1
     2   120   121    2
     3   120   119    1
     4   123   122    1
     5   109   110    1
     6   109   112    1
     7   110   118   am
     8   110   111    2
     9   118   119    1
    10   107   105    1
    11   106   105    1
    12   119   122    1
    13   122   124    1
    14   112   113    1
    15   105   104    2
    16   113   115   ar
    17   113   114   ar
    18   115   117   ar
    19   104   103    1
    20   114   116   ar
    21   117   116   ar
    22    32    30    1
    23   103   102    1
    24    29    30    2
    25    29    28    1
    26    30    31    1
    27    41    39   ar
    28    28    27    1
    29    90    89    1
    30   102   101    1
    31    40    39   ar
    32    39    38    1
    33    33    34    1
    34   148   147    1
    35    38    37    1
    36    27    26    1
    37   101    98    1
    38    89    86    1
    39    37    34    1
    40    14    13    1
    41   125   126    1
    42    34    35    1
    43    26    23    1
    44   149   147    1
    45   147   146    1
    46    86    85    1
    47    86    87    1
    48   100    99    2
    49   146   143    1
    50    99    98    1
    51    98    97    1
    52    35    36    2
    53    15    13    1
    54   159   158    1
    55    13    10    1
    56    85    83   am
    57   126   129    1
    58   126   127    1
    59    23    24    1
    60    23    22    1
    61     9    10    1
    62     9     7   am
    63    10    11    1
    64    88    87    2
    65    97    93   am
    66    87    91   am
    67     6     7    1
    68     6     5    1
    69   145   144    2
    70    25    24    2
    71   131   130    2
    72     7     8    2
    73   156   155    1
    74   156   157    1
    75   129   130    1
    76   144   143    1
    77   143   142    1
    78   128   127    2
    79   130   132   am
    80    83    84    2
    81    83    82    1
    82   158   157    2
    83   158   160    1
    84    91    92    1
    85   155   154    1
    86    50    48   ar
    87   153   152    2
    88    81    82    1
    89     5     3   am
    90   152   151    1
    91    11    12    2
    92    11    16   am
    93    93    92    1
    94    93    94    2
    95    49    48   ar
    96   154   151    1
    97   142   135   am
    98    48    47    1
    99    92    95    1
   100   151   150    1
   101    16    17    1
   102     3     4    2
   103     3     2    1
   104    42    43    1
   105    95    96    1
   106   135   136    2
   107   135   134    1
   108   141   140    1
   109    47    46    1
   110   140   139    1
   111     2     1    1
   112   133   134    1
   113    18    17    1
   114    18    19    2
   115    17    20    1
   116    46    43    1
   117    43    44    1
   118   134   137    1
   119   137   138    1
   120   138   139    1
   121    44    45    2
   122    20    21    1
   123    71    69    1
   124    69    70    1
   125    69    66    1
   126    80    77    1
   127    65    66    1
   128    65    61   am
   129    66    67    1
   130    57    55    1
   131    54    53    2
   132    72    67   am
   133    72    73    1
   134    58    56    1
   135    77    76    1
   136    77    78    1
   137    67    68    2
   138    73    74    1
   139    55    56    1
   140    55    52    1
   141    64    63    1
   142    60    61    1
   143    60    63    1
   144    60    59    1
   145    61    62    2
   146    53    59   am
   147    53    52    1
   148    78    79    2
   149    52    51    1
   150    74    75    2
