@<TRIPOS>MOLECULE
tmp/4lcaB01.pdb
 123 112 0 0 0
SMALL
GASTEIGER

@<TRIPOS>ATOM
      1  N         43.2050   34.5530    4.3880 N.3   207  ASN207     -0.1240
      2  CA        42.3780   34.9550    5.5430 C.3   207  ASN207      0.1653
      3  C         41.7980   36.3540    5.2670 C.2   207  ASN207      0.2266
      4  O         42.0610   36.9680    4.2140 O.2   207  ASN207     -0.2867
      5  CB        43.1450   34.8780    6.8580 C.3   207  ASN207      0.1155
      6  CG        44.2990   35.8630    6.9190 C.2   207  ASN207      0.2627
      7  OD1       44.4430   36.7380    6.0520 O.2   207  ASN207     -0.2716
      8  ND2       45.1290   35.7260    7.9460 N.am  207  ASN207     -0.0877
      9  N         39.3020   32.3050    4.9100 N.3   237  THR237     -0.1218
     10  CA        39.0640   32.0740    6.3400 C.3   237  THR237      0.1862
     11  C         38.7550   33.3470    7.0950 C.2   237  THR237      0.2287
     12  O         39.2390   34.4290    6.7690 O.2   237  THR237     -0.2866
     13  CB        40.2060   31.3170    7.0500 C.3   237  THR237      0.1770
     14  OG1       41.4120   32.0950    6.9760 O.3   237  THR237     -0.2211
     15  CG2       40.4060   29.9290    6.4390 C.3   237  THR237      0.0375
     16  N         38.6580   33.4530   10.8130 N.3   238  SER238     -0.1202
     17  CA        38.9490   33.2090   12.2270 C.3   238  SER238      0.2020
     18  C         37.7390   32.5730   12.9370 C.2   238  SER238      0.2618
     19  O         37.2240   31.5560   12.4700 O.2   238  SER238     -0.2717
     20  CB        39.4350   34.4910   12.9250 C.3   238  SER238      0.2103
     21  OG        40.6180   35.0040   12.3200 O.3   238  SER238     -0.2182
     22  N         37.2780   33.1630   14.0380 N.am  239  GLU239     -0.1979
     23  CA        36.1560   32.5670   14.7750 C.3   239  GLU239      0.1602
     24  C         34.8370   32.5340   13.9970 C.2   239  GLU239      0.2287
     25  O         33.8880   31.8420   14.3960 O.2   239  GLU239     -0.2864
     26  CB        35.9490   33.2580   16.1280 C.3   239  GLU239      0.0415
     27  CG        35.3050   34.6420   16.0610 C.3   239  GLU239      0.1163
     28  CD        36.2810   35.7720   15.7650 C.2   239  GLU239      0.3649
     29  OE1       37.4520   35.5140   15.3930 O.co2 239  GLU239     -0.2457
     30  OE2       35.8650   36.9420   15.9030 O.co2 239  GLU239     -0.2457
     31  N         34.5200   31.3090   11.0140 N.3   241  GLY241     -0.1225
     32  CA        34.5950   30.2000   10.0720 C.3   241  GLY241      0.1811
     33  C         35.2690   30.5770    8.7650 C.2   241  GLY241      0.2280
     34  O         36.3590   31.1540    8.7530 O.2   241  GLY241     -0.2866
     35  N         32.9090   27.9830   12.2220 N.3   255  ALA255     -0.1231
     36  CA        34.0480   27.5930   13.0440 C.3   255  ALA255      0.1694
     37  C         33.6060   26.6550   14.1520 C.2   255  ALA255      0.2592
     38  O         32.4560   26.7000   14.5910 O.2   255  ALA255     -0.2718
     39  CB        34.7170   28.8120   13.6440 C.3   255  ALA255      0.0304
     40  N         34.5310   25.8080   14.5940 N.am  256  ILE256     -0.1966
     41  CA        34.3490   25.0430   15.8160 C.3   256  ILE256      0.1727
     42  C         34.3480   26.0400   16.9790 C.2   256  ILE256      0.2616
     43  O         35.1960   26.9280   17.0460 O.2   256  ILE256     -0.2715
     44  CB        35.4580   23.9650   15.9640 C.3   256  ILE256      0.0290
     45  CG1       35.0320   22.6630   15.2760 C.3   256  ILE256      0.0022
     46  CG2       35.7690   23.6620   17.4230 C.3   256  ILE256      0.0023
     47  CD1       35.1150   22.6790   13.7650 C.3   256  ILE256      0.0001
     48  N         33.3640   25.9290   17.8660 N.am  257  ARG257     -0.1963
     49  CA        33.3500   26.7610   19.0670 C.3   257  ARG257      0.1729
     50  C         34.5050   26.3520   19.9720 C.2   257  ARG257      0.2616
     51  O         34.6920   25.1660   20.2440 O.2   257  ARG257     -0.2715
     52  CB        32.0060   26.6600   19.7900 C.3   257  ARG257      0.0348
     53  CG        31.1200   27.8780   19.5870 C.3   257  ARG257      0.0492
     54  CD        29.8330   27.7610   20.3830 C.3   257  ARG257      0.2205
     55  NE        28.7380   27.2320   19.5730 N.pl3 257  ARG257     -0.0865
     56  CZ        27.5560   26.8630   20.0640 C.cat 257  ARG257      0.5346
     57  NH1       27.3180   26.9520   21.3670 N.pl3 257  ARG257      0.1354
     58  NH2       26.6160   26.3930   19.2500 N.pl3 257  ARG257      0.1354
     59  N         35.2990   27.3300   20.4040 N.am  258  ILE258     -0.1977
     60  CA        36.5740   27.0280   21.0570 C.3   258  ILE258      0.1596
     61  C         36.5810   27.3040   22.5590 C.2   258  ILE258      0.2287
     62  O         36.2340   28.4010   23.0090 O.2   258  ILE258     -0.2864
     63  CB        37.7690   27.7120   20.3380 C.3   258  ILE258      0.0276
     64  CG1       37.9920   27.0930   18.9470 C.3   258  ILE258      0.0022
     65  CG2       39.0480   27.6350   21.1670 C.3   258  ILE258      0.0022
     66  CD1       38.5720   25.6900   18.9410 C.3   258  ILE258      0.0001
     67  N         41.6980   29.3940   23.0940 N.3   261  VAL261     -0.1245
     68  CA        42.7020   29.4450   22.0300 C.3   261  VAL261      0.1561
     69  C         44.0770   29.4310   22.6850 C.2   261  VAL261      0.2260
     70  O         44.5090   30.4310   23.2650 O.2   261  VAL261     -0.2867
     71  CB        42.5440   30.7100   21.1600 C.3   261  VAL261      0.0252
     72  CG1       43.5010   30.6730   19.9830 C.3   261  VAL261      0.0019
     73  CG2       41.1040   30.8580   20.6790 C.3   261  VAL261      0.0019
     74  N         47.5150   30.0450   18.0990 N.3   264  THR264     -0.1218
     75  CA        46.9150   30.0250   16.7640 C.3   264  THR264      0.1862
     76  C         47.8970   29.5740   15.6790 C.2   264  THR264      0.2287
     77  O         47.5100   29.4500   14.5180 O.2   264  THR264     -0.2866
     78  CB        46.4010   31.4080   16.3380 C.3   264  THR264      0.1770
     79  OG1       47.4750   32.3570   16.3850 O.3   264  THR264     -0.2211
     80  CG2       45.2460   31.8770   17.2600 C.3   264  THR264      0.0375
     81  N         46.9740   27.6210   12.1780 N.3   267  ALA267     -0.1231
     82  CA        45.5350   27.5490   11.9180 C.3   267  ALA267      0.1694
     83  C         45.2180   27.5650   10.4120 C.2   267  ALA267      0.2592
     84  O         44.5280   26.6790    9.8960 O.2   267  ALA267     -0.2718
     85  CB        44.8000   28.6540   12.6540 C.3   267  ALA267      0.0304
     86  N         45.7820   28.5520    9.7060 N.am  268  GLY268     -0.1957
     87  CA        45.6110   28.6590    8.2590 C.3   268  GLY268      0.1869
     88  C         46.1950   27.4530    7.5180 C.2   268  GLY268      0.2309
     89  O         45.5780   26.9250    6.5920 O.2   268  GLY268     -0.2863
     90  N         43.8100   24.5210    8.0640 N.3   271  PHE271     -0.1241
     91  CA        42.6350   24.7700    7.2300 C.3   271  PHE271      0.1605
     92  C         42.9050   24.2830    5.8000 C.2   271  PHE271      0.2264
     93  O         42.1340   23.5540    5.1930 O.2   271  PHE271     -0.2867
     94  CB        42.2100   26.2270    7.1940 C.3   271  PHE271      0.0534
     95  CG        40.9890   26.4480    6.3480 C.ar  271  PHE271     -0.0203
     96  CD1       39.6870   26.2930    6.8910 C.ar  271  PHE271     -0.0042
     97  CD2       41.1230   26.7510    5.0070 C.ar  271  PHE271     -0.0042
     98  CE1       38.5920   26.4740    6.0820 C.ar  271  PHE271     -0.0003
     99  CE2       40.0300   26.9370    4.1940 C.ar  271  PHE271     -0.0003
    100  CZ        38.7530   26.7960    4.7330 C.ar  271  PHE271     -0.0000
    101  N         37.9820   23.6150    8.5730 N.3   293  CYS293     -0.1235
    102  CA        37.6720   24.2270    9.8570 C.3   293  CYS293      0.1677
    103  C         37.9090   23.2550   11.0190 C.2   293  CYS293      0.2270
    104  O         38.3490   23.6760   12.0890 O.2   293  CYS293     -0.2867
    105  CB        36.2180   24.7140    9.8760 C.3   293  CYS293      0.0956
    106  SG        35.9600   26.2130    8.9050 S.3   293  CYS293     -0.0801
    107  N         41.7790   23.0680   11.5890 N.3   296  ALA296     -0.1231
    108  CA        42.2510   24.3370   12.1130 C.3   296  ALA296      0.1694
    109  C         41.8910   24.4850   13.5960 C.2   296  ALA296      0.2592
    110  O         42.7020   24.9040   14.4130 O.2   296  ALA296     -0.2718
    111  CB        41.6860   25.4920   11.3180 C.3   296  ALA296      0.0304
    112  N         40.6460   24.1390   13.9260 N.am  297  GLY297     -0.1957
    113  CA        40.1810   24.2230   15.3160 C.3   297  GLY297      0.1869
    114  C         40.9830   23.3270   16.2270 C.2   297  GLY297      0.2309
    115  O         41.2410   23.6870   17.3750 O.2   297  GLY297     -0.2863
    116  N         44.7270   24.8530   16.9160 N.3   300  ILE300     -0.1245
    117  CA        44.8470   26.0550   17.7430 C.3   300  ILE300      0.1561
    118  C         44.6580   25.7730   19.2490 C.2   300  ILE300      0.2260
    119  O         44.8990   26.6570   20.0630 O.2   300  ILE300     -0.2867
    120  CB        43.9600   27.2210   17.2570 C.3   300  ILE300      0.0252
    121  CG1       42.4820   26.9600   17.5770 C.3   300  ILE300      0.0019
    122  CG2       44.1920   27.4790   15.7730 C.3   300  ILE300      0.0019
    123  CD1       41.5990   28.0980   17.1370 C.3   300  ILE300      0.0001
@<TRIPOS>BOND
     1    99   100   ar
     2    99    97   ar
     3     4     3    2
     4     1     2    1
     5   100    98   ar
     6     9    10    1
     7    97    95   ar
     8    93    92    2
     9     3     2    1
    10     2     5    1
    11    92    91    1
    12     7     6    2
    13    98    96   ar
    14    10    13    1
    15    10    11    1
    16    95    96   ar
    17    95    94    1
    18    15    13    1
    19    89    88    2
    20    12    11    2
    21     5     6    1
    22     6     8   am
    23    14    13    1
    24    94    91    1
    25    91    90    1
    26    88    87    1
    27    87    86    1
    28   101   102    1
    29    34    33    2
    30    33    32    1
    31   106   105    1
    32    86    83   am
    33   102   105    1
    34   102   103    1
    35    84    83    2
    36    32    31    1
    37    83    82    1
    38    16    17    1
    39   103   104    2
    40   111   108    1
    41   107   108    1
    42    82    81    1
    43    82    85    1
    44   108   109    1
    45    35    36    1
    46    17    20    1
    47    17    18    1
    48    21    20    1
    49    19    18    2
    50    18    22   am
    51    36    39    1
    52    36    37    1
    53   109   112   am
    54   109   110    2
    55    47    45    1
    56   112   113    1
    57    24    25    2
    58    24    23    1
    59    22    23    1
    60    37    38    2
    61    37    40   am
    62    77    76    2
    63    40    41    1
    64    23    26    1
    65    45    44    1
    66   113   114    1
    67    29    28   ar
    68    76    75    1
    69    28    30   ar
    70    28    27    1
    71   122   120    1
    72    41    44    1
    73    41    42    1
    74    44    46    1
    75    27    26    1
    76   114   115    2
    77    78    79    1
    78    78    75    1
    79    78    80    1
    80    75    74    1
    81   116   117    1
    82    42    43    2
    83    42    48   am
    84   123   121    1
    85   120   121    1
    86   120   117    1
    87   117   118    1
    88    48    49    1
    89    66    64    1
    90    64    63    1
    91    49    52    1
    92    49    50    1
    93   118   119    2
    94    58    56    1
    95    55    56    2
    96    55    54    1
    97    53    52    1
    98    53    54    1
    99    50    51    2
   100    50    59   am
   101    72    71    1
   102    56    57    1
   103    63    60    1
   104    63    65    1
   105    59    60    1
   106    73    71    1
   107    60    61    1
   108    71    68    1
   109    68    69    1
   110    68    67    1
   111    61    62    2
   112    69    70    2
