@<TRIPOS>MOLECULE
tmp/4lccA00.pdb
 175 171 0 0 0
SMALL
GASTEIGER

@<TRIPOS>ATOM
      1  N        -15.7590   12.1210   34.7170 N.3    91  TYR91      -0.1227
      2  CA       -16.5700   12.1620   35.9240 C.3    91  TYR91       0.1736
      3  C        -15.9330   13.0580   36.9800 C.2    91  TYR91       0.2595
      4  O        -14.7560   12.9050   37.3140 O.2    91  TYR91      -0.2718
      5  CB       -16.7610   10.7570   36.4780 C.3    91  TYR91       0.0548
      6  CG       -17.8080    9.9490   35.7480 C.ar   91  TYR91      -0.0200
      7  CD1      -19.1580   10.2570   35.8690 C.ar   91  TYR91      -0.0009
      8  CD2      -17.4510    8.8680   34.9550 C.ar   91  TYR91      -0.0009
      9  CE1      -20.1200    9.5200   35.2130 C.ar   91  TYR91       0.0417
     10  CE2      -18.4080    8.1240   34.2960 C.ar   91  TYR91       0.0417
     11  CZ       -19.7400    8.4540   34.4290 C.ar   91  TYR91       0.1957
     12  OH       -20.6920    7.7130   33.7690 O.3    91  TYR91      -0.2866
     13  N        -16.7220   13.9900   37.5070 N.am   92  PHE92      -0.1962
     14  CA       -16.2100   14.9800   38.4470 C.3    92  PHE92       0.1771
     15  C        -16.8310   14.8790   39.8360 C.2    92  PHE92       0.2619
     16  O        -18.0270   14.6450   39.9810 O.2    92  PHE92      -0.2715
     17  CB       -16.3930   16.3930   37.8870 C.3    92  PHE92       0.0574
     18  CG       -15.4680   16.7140   36.7450 C.ar   92  PHE92      -0.0200
     19  CD1      -15.8170   16.4010   35.4430 C.ar   92  PHE92      -0.0042
     20  CD2      -14.2440   17.3240   36.9750 C.ar   92  PHE92      -0.0042
     21  CE1      -14.9650   16.6890   34.3910 C.ar   92  PHE92      -0.0003
     22  CE2      -13.3890   17.6170   35.9260 C.ar   92  PHE92      -0.0003
     23  CZ       -13.7500   17.2970   34.6340 C.ar   92  PHE92      -0.0000
     24  N        -15.9950   15.0500   40.8540 N.am   93  ARG93      -0.1977
     25  CA       -16.4560   15.1150   42.2330 C.3    93  ARG93       0.1597
     26  C        -16.1040   16.4720   42.8160 C.2    93  ARG93       0.2287
     27  O        -14.9610   16.9110   42.7180 O.2    93  ARG93      -0.2864
     28  CB       -15.7900   14.0300   43.0790 C.3    93  ARG93       0.0334
     29  CG       -16.2540   12.6270   42.7910 C.3    93  ARG93       0.0492
     30  CD       -15.5730   11.6270   43.7070 C.3    93  ARG93       0.2205
     31  NE       -15.9540   10.2570   43.3810 N.pl3  93  ARG93      -0.0865
     32  CZ       -15.4760    9.1720   43.9800 C.cat  93  ARG93       0.5346
     33  NH1      -15.8940    7.9730   43.6020 N.pl3  93  ARG93       0.1354
     34  NH2      -14.5850    9.2820   44.9550 N.pl3  93  ARG93       0.1354
     35  N        -21.6470   15.6730   42.0440 N.3   104  SER104     -0.1217
     36  CA       -21.1040   14.7000   41.1070 C.3   104  SER104      0.1889
     37  C        -21.7960   14.7880   39.7570 C.2   104  SER104      0.2288
     38  O        -23.0100   14.6180   39.6610 O.2   104  SER104     -0.2866
     39  CB       -21.2480   13.2880   41.6610 C.3   104  SER104      0.2089
     40  OG       -21.0790   12.3200   40.6380 O.3   104  SER104     -0.2183
     41  N        -24.9710   12.8220   33.8150 N.3   114  THR114     -0.1218
     42  CA       -25.3850   12.4360   35.1550 C.3   114  THR114      0.1862
     43  C        -25.2000   13.5900   36.1290 C.2   114  THR114      0.2287
     44  O        -24.2280   14.3350   36.0350 O.2   114  THR114     -0.2866
     45  CB       -24.5710   11.2390   35.6590 C.3   114  THR114      0.1770
     46  OG1      -23.2130   11.6380   35.8850 O.3   114  THR114     -0.2211
     47  CG2      -24.6040   10.1030   34.6460 C.3   114  THR114      0.0375
     48  N        -29.6890   10.4990   41.5360 N.3   123  LYS123     -0.1245
     49  CA       -28.9860   10.6000   40.2680 C.3   123  LYS123      0.1561
     50  C        -30.0140   10.8060   39.1660 C.2   123  LYS123      0.2260
     51  O        -30.8310    9.9290   38.8880 O.2   123  LYS123     -0.2867
     52  CB       -28.1410    9.3530   40.0010 C.3   123  LYS123      0.0271
     53  CG       -27.1370    9.5180   38.8670 C.3   123  LYS123      0.0035
     54  CD       -26.1530    8.3560   38.8170 C.3   123  LYS123      0.0206
     55  CE       -24.9970    8.6190   37.8600 C.3   123  LYS123      0.1093
     56  NZ       -24.0460    7.4810   37.6760 N.3   123  LYS123     -0.1314
     57  N        -26.8500    3.9200   41.9010 N.3   142  TYR142     -0.1241
     58  CA       -25.8680    4.9780   41.8390 C.3   142  TYR142      0.1605
     59  C        -26.1610    6.1690   42.7050 C.2   142  TYR142      0.2264
     60  O        -25.3270    7.0400   42.8620 O.2   142  TYR142     -0.2867
     61  CB       -25.6940    5.4060   40.4040 C.3   142  TYR142      0.0534
     62  CG       -24.8620    4.4240   39.6600 C.ar  142  TYR142     -0.0201
     63  CD1      -23.4780    4.4520   39.7670 C.ar  142  TYR142     -0.0009
     64  CD2      -25.4490    3.4400   38.8840 C.ar  142  TYR142     -0.0009
     65  CE1      -22.6970    3.5480   39.0990 C.ar  142  TYR142      0.0417
     66  CE2      -24.6750    2.5260   38.2130 C.ar  142  TYR142      0.0417
     67  CZ       -23.2970    2.5850   38.3210 C.ar  142  TYR142      0.1957
     68  OH       -22.5290    1.6690   37.6450 O.3   142  TYR142     -0.2866
     69  N        -23.1700    6.6890   45.2320 N.3   146  LEU146     -0.1245
     70  CA       -22.8110    8.0970   45.3510 C.3   146  LEU146      0.1561
     71  C        -22.9150    8.6090   46.7790 C.2   146  LEU146      0.2260
     72  O        -22.1350    9.4640   47.1920 O.2   146  LEU146     -0.2867
     73  CB       -23.6680    8.9580   44.4230 C.3   146  LEU146      0.0270
     74  CG       -23.0760    9.3210   43.0600 C.3   146  LEU146      0.0019
     75  CD1      -21.9420   10.2830   43.2690 C.3   146  LEU146      0.0001
     76  CD2      -22.5780    8.1000   42.3120 C.3   146  LEU146      0.0001
     77  N        -19.7080    7.5420   48.2190 N.3   149  TRP149     -0.1241
     78  CA       -18.6010    8.3230   47.6960 C.3   149  TRP149      0.1605
     79  C        -18.6520    9.7490   48.2230 C.2   149  TRP149      0.2264
     80  O        -17.6280   10.4230   48.3130 O.2   149  TRP149     -0.2867
     81  CB       -18.6130    8.2990   46.1700 C.3   149  TRP149      0.0550
     82  CG       -18.3480    6.9310   45.6120 C.ar  149  TRP149      0.0003
     83  CD1      -17.7060    5.8980   46.2370 C.ar  149  TRP149      0.0946
     84  CD2      -18.7280    6.4410   44.3220 C.ar  149  TRP149      0.0152
     85  NE1      -17.6580    4.8010   45.4120 N.ar  149  TRP149     -0.2442
     86  CE2      -18.2800    5.1090   44.2300 C.ar  149  TRP149      0.0810
     87  CE3      -19.3990    7.0030   43.2330 C.ar  149  TRP149      0.0012
     88  CZ2      -18.4830    4.3310   43.0960 C.ar  149  TRP149      0.0191
     89  CZ3      -19.5990    6.2290   42.1090 C.ar  149  TRP149      0.0001
     90  CH2      -19.1430    4.9080   42.0480 C.ar  149  TRP149      0.0015
     91  N        -17.2890    9.4530   51.8050 N.3   152  MET152     -0.1245
     92  CA       -15.8730    9.1260   51.6730 C.3   152  MET152      0.1570
     93  C        -15.0690   10.3640   51.3140 C.2   152  MET152      0.2261
     94  O        -13.9040   10.5020   51.6890 O.2   152  MET152     -0.2867
     95  CB       -15.6980    8.0540   50.5960 C.3   152  MET152      0.0387
     96  CG       -14.2630    7.7100   50.2420 C.3   152  MET152      0.0595
     97  SD       -14.2030    6.4400   48.9600 S.3   152  MET152     -0.1393
     98  CE       -12.4450    6.3610   48.6290 C.3   152  MET152      0.0692
     99  N        -12.1980   15.7110   42.3010 N.3   174  ARG174     -0.1245
    100  CA       -11.6920   14.4810   41.7160 C.3   174  ARG174      0.1563
    101  C        -12.1250   14.3650   40.2630 C.2   174  ARG174      0.2260
    102  O        -13.2620   14.6810   39.9140 O.2   174  ARG174     -0.2867
    103  CB       -12.1880   13.2730   42.5070 C.3   174  ARG174      0.0307
    104  CG       -11.6640   11.9480   41.9980 C.3   174  ARG174      0.0489
    105  CD       -12.2380   10.7900   42.7880 C.3   174  ARG174      0.2205
    106  NE       -11.6910    9.5140   42.3440 N.pl3 174  ARG174     -0.0865
    107  CZ       -12.2720    8.7310   41.4420 C.cat 174  ARG174      0.5346
    108  NH1      -13.4250    9.0910   40.8920 N.pl3 174  ARG174      0.1354
    109  NH2      -11.7030    7.5860   41.0920 N.pl3 174  ARG174      0.1354
    110  N        -11.9290   11.6020   36.9720 N.3   176  ILE176     -0.1245
    111  CA       -11.5870   10.3060   36.4200 C.3   176  ILE176      0.1561
    112  C        -12.2670   10.1360   35.0710 C.2   176  ILE176      0.2260
    113  O        -13.3480   10.6800   34.8360 O.2   176  ILE176     -0.2867
    114  CB       -12.0110    9.1600   37.3540 C.3   176  ILE176      0.0252
    115  CG1      -11.3450    7.8630   36.9120 C.3   176  ILE176      0.0019
    116  CG2      -13.5380    9.0180   37.4000 C.3   176  ILE176      0.0019
    117  CD1      -11.8660    6.6570   37.5910 C.3   176  ILE176      0.0001
    118  N         -5.5220   -2.0550   44.9540 N.3   229  GLU229     -0.1245
    119  CA        -6.4460   -1.0180   44.5310 C.3   229  GLU229      0.1567
    120  C         -6.0490   -0.5340   43.1570 C.2   229  GLU229      0.2260
    121  O         -6.8220   -0.5910   42.2170 O.2   229  GLU229     -0.2867
    122  CB        -6.4550    0.1650   45.4880 C.3   229  GLU229      0.0388
    123  CG        -7.6020    1.1320   45.2050 C.3   229  GLU229      0.1160
    124  CD        -8.9770    0.5520   45.5470 C.2   229  GLU229      0.3649
    125  OE1       -9.9910    1.2280   45.2780 O.co2 229  GLU229     -0.2457
    126  OE2       -9.0490   -0.5680   46.0970 O.co2 229  GLU229     -0.2457
    127  N         -6.8390   -2.4920   40.4230 N.3   232  TYR232     -0.1227
    128  CA        -8.2570   -2.3440   40.1360 C.3   232  TYR232      0.1736
    129  C         -8.5230   -1.0720   39.3310 C.2   232  TYR232      0.2595
    130  O         -9.2810   -1.1030   38.3640 O.2   232  TYR232     -0.2718
    131  CB        -9.0640   -2.3550   41.4370 C.3   232  TYR232      0.0548
    132  CG       -10.2940   -1.4960   41.4000 C.ar  232  TYR232     -0.0200
    133  CD1      -11.5050   -2.0120   40.9620 C.ar  232  TYR232     -0.0009
    134  CD2      -10.2530   -0.1710   41.8090 C.ar  232  TYR232     -0.0009
    135  CE1      -12.6360   -1.2350   40.9240 C.ar  232  TYR232      0.0417
    136  CE2      -11.3820    0.6140   41.7690 C.ar  232  TYR232      0.0417
    137  CZ       -12.5670    0.0760   41.3290 C.ar  232  TYR232      0.1957
    138  OH       -13.6850    0.8600   41.2950 O.3   232  TYR232     -0.2866
    139  N         -7.8990    0.0400   39.7280 N.am  233  GLN233     -0.1979
    140  CA        -8.0480    1.3090   39.0080 C.3   233  GLN233      0.1601
    141  C         -7.6570    1.1580   37.5470 C.2   233  GLN233      0.2287
    142  O         -8.3330    1.6700   36.6600 O.2   233  GLN233     -0.2864
    143  CB        -7.1950    2.4190   39.6350 C.3   233  GLN233      0.0394
    144  CG        -7.5190    2.7530   41.0810 C.3   233  GLN233      0.0908
    145  CD        -8.8500    3.4710   41.2540 C.2   233  GLN233      0.2608
    146  OE1       -9.5720    3.7280   40.2870 O.2   233  GLN233     -0.2717
    147  NE2       -9.1780    3.8000   42.5000 N.am  233  GLN233     -0.0878
    148  N        -10.3630   -0.6490   35.3870 N.3   236  TRP236     -0.1241
    149  CA       -11.5100    0.2060   35.1380 C.3   236  TRP236      0.1605
    150  C        -11.2150    1.1340   33.9720 C.2   236  TRP236      0.2264
    151  O        -11.8290    1.0260   32.9150 O.2   236  TRP236     -0.2867
    152  CB       -11.8830    1.0060   36.3820 C.3   236  TRP236      0.0550
    153  CG       -13.2540    1.6010   36.2850 C.ar  236  TRP236      0.0003
    154  CD1      -14.4390    1.0030   36.6220 C.ar  236  TRP236      0.0946
    155  CD2      -13.5890    2.9040   35.7990 C.ar  236  TRP236      0.0152
    156  NE1      -15.4840    1.8580   36.3860 N.ar  236  TRP236     -0.2442
    157  CE2      -14.9910    3.0320   35.8810 C.ar  236  TRP236      0.0810
    158  CE3      -12.8390    3.9780   35.3090 C.ar  236  TRP236      0.0012
    159  CZ2      -15.6580    4.1910   35.4910 C.ar  236  TRP236      0.0191
    160  CZ3      -13.5010    5.1240   34.9230 C.ar  236  TRP236      0.0001
    161  CH2      -14.8980    5.2240   35.0170 C.ar  236  TRP236      0.0015
    162  N        -18.1680    1.7040   29.0090 N.3   244  TRP244     -0.1241
    163  CA       -19.1680    2.6810   29.4060 C.3   244  TRP244      0.1605
    164  C        -19.2800    3.7880   28.3650 C.2   244  TRP244      0.2264
    165  O        -20.3790    4.1890   27.9870 O.2   244  TRP244     -0.2867
    166  CB       -18.8160    3.2800   30.7670 C.3   244  TRP244      0.0550
    167  CG       -19.1940    2.4240   31.9430 C.ar  244  TRP244      0.0003
    168  CD1      -18.3470    1.7970   32.8060 C.ar  244  TRP244      0.0946
    169  CD2      -20.5210    2.1200   32.3910 C.ar  244  TRP244      0.0152
    170  NE1      -19.0630    1.1150   33.7600 N.ar  244  TRP244     -0.2442
    171  CE2      -20.3980    1.2990   33.5270 C.ar  244  TRP244      0.0810
    172  CE3      -21.7950    2.4580   31.9390 C.ar  244  TRP244      0.0012
    173  CZ2      -21.5060    0.8150   34.2180 C.ar  244  TRP244      0.0191
    174  CZ3      -22.8920    1.9720   32.6260 C.ar  244  TRP244      0.0001
    175  CH2      -22.7400    1.1600   33.7520 C.ar  244  TRP244      0.0015
@<TRIPOS>BOND
     1   165   164    2
     2   164   163    1
     3   162   163    1
     4   163   166    1
     5   166   167    1
     6   172   169   ar
     7   172   174   ar
     8   167   169   ar
     9   167   168   ar
    10   169   171   ar
    11   174   175   ar
    12   168   170   ar
    13   151   150    2
    14   171   170   ar
    15   171   173   ar
    16   175   173   ar
    17    12    11    1
    18    41    42    1
    19   150   149    1
    20    10    11   ar
    21    10     8   ar
    22    21    23   ar
    23    21    19   ar
    24    11     9   ar
    25    23    22   ar
    26    47    45    1
    27     1     2    1
    28   113   112    2
    29   160   161   ar
    30   160   158   ar
    31     8     6   ar
    32   161   159   ar
    33   112   111    1
    34   149   148    1
    35   149   152    1
    36    42    45    1
    37    42    43    1
    38     9     7   ar
    39   158   155   ar
    40    19    18   ar
    41   159   157   ar
    42    45    46    1
    43     6     7   ar
    44     6     5    1
    45   155   157   ar
    46   155   153   ar
    47   157   156   ar
    48     2     5    1
    49     2     3    1
    50    22    20   ar
    51    44    43    2
    52   153   152    1
    53   153   154   ar
    54   156   154   ar
    55   111   110    1
    56   111   114    1
    57   142   141    2
    58    18    20   ar
    59    18    17    1
    60   115   114    1
    61   115   117    1
    62     3     4    2
    63     3    13   am
    64   114   116    1
    65    13    14    1
    66   141   140    1
    67    68    67    1
    68    56    55    1
    69    55    54    1
    70    17    14    1
    71    66    67   ar
    72    66    64   ar
    73    67    65   ar
    74   130   129    2
    75    14    15    1
    76    54    53    1
    77    53    52    1
    78    64    62   ar
    79    51    50    2
    80   140   143    1
    81   140   139    1
    82    65    63   ar
    83    50    49    1
    84   129   139   am
    85   129   128    1
    86   143   144    1
    87    62    63   ar
    88    62    61    1
    89    38    37    2
    90    37    36    1
    91    15    16    2
    92    15    24   am
    93   102   101    2
    94    52    49    1
    95   128   127    1
    96   128   131    1
    97   101   100    1
    98    49    48    1
    99   146   145    2
   100    61    58    1
   101    40    39    1
   102    24    25    1
   103   108   107    1
   104   135   133   ar
   105   135   137   ar
   106   133   132   ar
   107   144   145    1
   108   109   107    1
   109    36    39    1
   110    36    35    1
   111   145   147   am
   112   138   137    1
   113   137   136   ar
   114   132   131    1
   115   132   134   ar
   116   107   106    2
   117   100    99    1
   118   100   103    1
   119   136   134   ar
   120    58    57    1
   121    58    59    1
   122   104   103    1
   123   104   105    1
   124    90    89   ar
   125    90    88   ar
   126    89    87   ar
   127   121   120    2
   128    25    26    1
   129    25    28    1
   130    76    74    1
   131   106   105    1
   132    59    60    2
   133    27    26    2
   134    29    28    1
   135    29    30    1
   136    74    75    1
   137    74    73    1
   138    88    86   ar
   139   120   119    1
   140    87    84   ar
   141    31    30    1
   142    31    32    2
   143    33    32    1
   144    32    34    1
   145    86    84   ar
   146    86    85   ar
   147    84    82   ar
   148    73    70    1
   149   119   118    1
   150   119   122    1
   151   123   122    1
   152   123   124    1
   153    69    70    1
   154   125   124   ar
   155    70    71    1
   156    85    83   ar
   157   124   126   ar
   158    82    81    1
   159    82    83   ar
   160    81    78    1
   161    71    72    2
   162    78    77    1
   163    78    79    1
   164    79    80    2
   165    98    97    1
   166    97    96    1
   167    96    95    1
   168    95    92    1
   169    93    92    1
   170    93    94    2
   171    92    91    1
