@<TRIPOS>MOLECULE
tmp/4lcdB00.pdb
 114 111 0 0 0
SMALL
GASTEIGER

@<TRIPOS>ATOM
      1  N         23.3460    6.5840   14.5900 N.3     9  GLY9       -0.1225
      2  CA        24.6200    7.2150   14.2930 C.3     9  GLY9        0.1811
      3  C         24.4900    8.6200   13.7310 C.2     9  GLY9        0.2280
      4  O         25.3890    9.1170   13.0350 O.2     9  GLY9       -0.2866
      5  N         22.0960   19.5000   14.9990 N.3    13  ARG13      -0.1245
      6  CA        22.9270   20.5430   15.5940 C.3    13  ARG13       0.1563
      7  C         22.7380   21.9030   14.9500 C.2    13  ARG13       0.2260
      8  O         22.1130   22.0290   13.9030 O.2    13  ARG13      -0.2867
      9  CB        24.3950   20.1590   15.5050 C.3    13  ARG13       0.0307
     10  CG        24.9770   19.6740   16.7990 C.3    13  ARG13       0.0489
     11  CD        25.9490   18.5780   16.5230 C.3    13  ARG13       0.2205
     12  NE        27.1730   19.1350   15.9720 N.pl3  13  ARG13      -0.0865
     13  CZ        28.2150   19.4800   16.7160 C.cat  13  ARG13       0.5346
     14  NH1       28.1750   19.2920   18.0290 N.pl3  13  ARG13       0.1354
     15  NH2       29.2980   19.9910   16.1500 N.pl3  13  ARG13       0.1354
     16  N         24.6250   25.5920   13.7590 N.3    15  THR15      -0.1218
     17  CA        25.7670   26.4550   13.5030 C.3    15  THR15       0.1862
     18  C         25.7610   27.6690   14.4500 C.2    15  THR15       0.2287
     19  O         24.7550   27.9700   15.1100 O.2    15  THR15      -0.2866
     20  CB        25.7550   26.9410   12.0500 C.3    15  THR15       0.1770
     21  OG1       24.5350   27.6510   11.7910 O.3    15  THR15      -0.2211
     22  CG2       25.8370   25.7630   11.1080 C.3    15  THR15       0.0375
     23  N         21.5270   27.7480   12.4450 N.3    19  ARG19      -0.1245
     24  CA        20.9630   27.0940   11.2750 C.3    19  ARG19       0.1563
     25  C         21.2650   25.6010   11.2960 C.2    19  ARG19       0.2260
     26  O         22.4290   25.1960   11.3460 O.2    19  ARG19      -0.2867
     27  CB        21.5070   27.7060    9.9890 C.3    19  ARG19       0.0307
     28  CG        21.1120   26.9260    8.7570 C.3    19  ARG19       0.0489
     29  CD        21.9070   27.3660    7.5480 C.3    19  ARG19       0.2205
     30  NE        21.5560   26.5590    6.3820 N.pl3  19  ARG19      -0.0865
     31  CZ        22.1580   26.6350    5.2000 C.cat  19  ARG19       0.5346
     32  NH1       23.1600   27.4870    5.0080 N.pl3  19  ARG19       0.1354
     33  NH2       21.7550   25.8520    4.2080 N.pl3  19  ARG19       0.1354
     34  N         22.1270   21.8230   10.9330 N.3    21  TYR21      -0.1241
     35  CA        22.9440   20.9360   10.1230 C.3    21  TYR21       0.1605
     36  C         22.9950   19.5880   10.8170 C.2    21  TYR21       0.2264
     37  O         22.5860   19.4740   11.9690 O.2    21  TYR21      -0.2867
     38  CB        24.3430   21.5060    9.8850 C.3    21  TYR21       0.0534
     39  CG        25.2890   21.3870   11.0510 C.ar   21  TYR21      -0.0201
     40  CD1       25.1040   22.1480   12.1960 C.ar   21  TYR21      -0.0009
     41  CD2       26.3830   20.5460   10.9990 C.ar   21  TYR21      -0.0009
     42  CE1       25.9730   22.0670   13.2630 C.ar   21  TYR21       0.0417
     43  CE2       27.2550   20.4430   12.0710 C.ar   21  TYR21       0.0417
     44  CZ        27.0440   21.2070   13.2020 C.ar   21  TYR21       0.1957
     45  OH        27.9130   21.1070   14.2670 O.3    21  TYR21      -0.2866
     46  N         24.8920   15.7430   11.8070 N.3    23  VAL23      -0.1231
     47  CA        26.1130   15.0070   12.0570 C.3    23  VAL23       0.1692
     48  C         25.8870   13.5180   11.8470 C.2    23  VAL23       0.2592
     49  O         25.0770   12.8940   12.5340 O.2    23  VAL23      -0.2718
     50  CB        26.6020   15.2480   13.4870 C.3    23  VAL23       0.0266
     51  CG1       27.9130   14.5370   13.7270 C.3    23  VAL23       0.0020
     52  CG2       26.7680   16.7180   13.7140 C.3    23  VAL23       0.0020
     53  N         26.6130   12.9590   10.8890 N.am   24  ASP24      -0.1960
     54  CA        26.5630   11.5300   10.6270 C.3    24  ASP24       0.1840
     55  C         27.7650   10.8250   11.2370 C.2    24  ASP24       0.2622
     56  O         28.8190   10.7330   10.6030 O.2    24  ASP24      -0.2715
     57  CB        26.5250   11.2610    9.1270 C.3    24  ASP24       0.1450
     58  CG        26.2090    9.8280    8.8200 C.2    24  ASP24       0.3671
     59  OD1       25.6450    9.1630    9.7100 O.co2  24  ASP24      -0.2456
     60  OD2       26.5110    9.3650    7.7030 O.co2  24  ASP24      -0.2456
     61  N         27.5940   10.3180   12.4560 N.am   25  HIS25      -0.1973
     62  CA        28.6840    9.6880   13.1860 C.3    25  HIS25       0.1656
     63  C         29.2350    8.4890   12.4230 C.2    25  HIS25       0.2291
     64  O         30.3640    8.0520   12.6520 O.2    25  HIS25      -0.2864
     65  CB        28.2200    9.2520   14.5730 C.3    25  HIS25       0.0771
     66  CG        28.3220   10.3150   15.6080 C.ar   25  HIS25       0.0820
     67  ND1       29.5190   10.9460   15.9200 N.ar   25  HIS25      -0.2267
     68  CD2       27.3980   10.8640   16.4300 C.ar   25  HIS25       0.1154
     69  CE1       29.3160   11.8270   16.8700 C.ar   25  HIS25       0.1986
     70  NE2       28.0300   11.8020   17.2010 N.ar   25  HIS25      -0.2212
     71  N         31.6080    9.7010    9.3060 N.3    28  LYS28      -0.1231
     72  CA        32.5450   10.7180    9.7770 C.3    28  LYS28       0.1693
     73  C         32.4460   11.9580    8.8890 C.2    28  LYS28       0.2593
     74  O         33.4590   12.5080    8.4500 O.2    28  LYS28      -0.2718
     75  CB        33.9820   10.1910    9.7380 C.3    28  LYS28       0.0285
     76  CG        34.2810    9.0300   10.6490 C.3    28  LYS28       0.0035
     77  CD        34.6760    9.5390   12.0070 C.3    28  LYS28       0.0206
     78  CE        35.3730    8.4600   12.8050 C.3    28  LYS28       0.1093
     79  NZ        35.8730    8.9950   14.1010 N.3    28  LYS28      -0.1314
     80  N         31.2190   12.3420    8.5720 N.am   29  THR29      -0.1939
     81  CA        30.9740   13.5300    7.7780 C.3    29  THR29       0.2028
     82  C         29.6240   14.1230    8.1490 C.2    29  THR29       0.2643
     83  O         28.7530   13.4300    8.6870 O.2    29  THR29      -0.2714
     84  CB        31.0020   13.2870    6.2240 C.3    29  THR29       0.1808
     85  OG1       29.9710   12.3710    5.8260 O.3    29  THR29      -0.2208
     86  CG2       32.3670   12.8110    5.7200 C.3    29  THR29       0.0379
     87  N         29.4690   15.4130    7.8430 N.am   30  THR30      -0.1936
     88  CA        28.2610   16.1650    8.1790 C.3    30  THR30       0.2028
     89  C         27.5580   16.7100    6.9380 C.2    30  THR30       0.2643
     90  O         28.1000   16.6470    5.8360 O.2    30  THR30      -0.2714
     91  CB        28.5960   17.3450    9.0820 C.3    30  THR30       0.1808
     92  OG1       29.4180   18.2720    8.3560 O.3    30  THR30      -0.2208
     93  CG2       29.3290   16.8660   10.3360 C.3    30  THR30       0.0379
     94  N         26.3570   17.2540    7.1230 N.am   31  THR31      -0.1936
     95  CA        25.5710   17.7630    5.9980 C.3    31  THR31       0.2028
     96  C         24.4130   18.6660    6.4020 C.2    31  THR31       0.2642
     97  O         24.0110   18.7090    7.5660 O.2    31  THR31      -0.2714
     98  CB        24.9910   16.6120    5.1420 C.3    31  THR31       0.1808
     99  OG1       24.2880   17.1650    4.0260 O.3    31  THR31      -0.2208
    100  CG2       24.0300   15.7620    5.9550 C.3    31  THR31       0.0379
    101  N         23.8720   19.3740    5.4180 N.am   32  TRP32      -0.1973
    102  CA        22.6750   20.1810    5.6320 C.3    32  TRP32       0.1640
    103  C         21.4090   19.3250    5.6000 C.2    32  TRP32       0.2290
    104  O         20.4770   19.5490    6.3820 O.2    32  TRP32      -0.2864
    105  CB        22.5510   21.3020    4.5880 C.3    32  TRP32       0.0576
    106  CG        23.6410   22.3260    4.6320 C.ar   32  TRP32       0.0006
    107  CD1       24.5760   22.5600    3.6710 C.ar   32  TRP32       0.0946
    108  CD2       23.9090   23.2540    5.6800 C.ar   32  TRP32       0.0152
    109  NE1       25.4140   23.5720    4.0570 N.ar   32  TRP32      -0.2442
    110  CE2       25.0210   24.0250    5.3080 C.ar   32  TRP32       0.0810
    111  CE3       23.3180   23.5160    6.9300 C.ar   32  TRP32       0.0012
    112  CZ2       25.5620   25.0300    6.0950 C.ar   32  TRP32       0.0191
    113  CZ3       23.8550   24.5200    7.7260 C.ar   32  TRP32       0.0001
    114  CH2       24.9600   25.2630    7.3040 C.ar   32  TRP32       0.0015
@<TRIPOS>BOND
     1   107   109   ar
     2   107   106   ar
     3    99    98    1
     4   109   110   ar
     5    33    31    1
     6   105   106    1
     7   105   102    1
     8   106   108   ar
     9    32    31    1
    10    98   100    1
    11    98    95    1
    12    31    30    2
    13   110   108   ar
    14   110   112   ar
    15   101   102    1
    16   101    96   am
    17   103   102    1
    18   103   104    2
    19   108   111   ar
    20    86    84    1
    21    85    84    1
    22    90    89    2
    23    95    96    1
    24    95    94    1
    25   112   114   ar
    26    84    81    1
    27    30    29    1
    28    96    97    2
    29   111   113   ar
    30    89    94   am
    31    89    88    1
    32   114   113   ar
    33    29    28    1
    34    60    58   ar
    35    81    82    1
    36    81    80    1
    37    87    82   am
    38    87    88    1
    39    82    83    2
    40    88    91    1
    41    92    91    1
    42    74    73    2
    43    80    73   am
    44    28    27    1
    45    58    57    1
    46    58    59   ar
    47    73    72    1
    48    91    93    1
    49    57    54    1
    50    71    72    1
    51    75    72    1
    52    75    76    1
    53    38    35    1
    54    38    39    1
    55    27    24    1
    56    35    36    1
    57    35    34    1
    58    56    55    2
    59    54    53    1
    60    54    55    1
    61    76    77    1
    62    36    37    2
    63    53    48   am
    64    41    39   ar
    65    41    43   ar
    66    39    40   ar
    67    22    20    1
    68    55    61   am
    69    24    25    1
    70    24    23    1
    71    25    26    2
    72    21    20    1
    73    46    47    1
    74    48    47    1
    75    48    49    2
    76    77    78    1
    77    20    17    1
    78    47    50    1
    79    43    44   ar
    80    40    42   ar
    81    63    64    2
    82    63    62    1
    83    61    62    1
    84    78    79    1
    85     4     3    2
    86    62    65    1
    87    44    42   ar
    88    44    45    1
    89    50    52    1
    90    50    51    1
    91    17    16    1
    92    17    18    1
    93     3     2    1
    94     8     7    2
    95     2     1    1
    96    18    19    2
    97    65    66    1
    98     7     6    1
    99     5     6    1
   100     9     6    1
   101     9    10    1
   102    66    67   ar
   103    66    68   ar
   104    67    69   ar
   105    12    11    1
   106    12    13    2
   107    15    13    1
   108    68    70   ar
   109    11    10    1
   110    13    14    1
   111    69    70   ar
