@<TRIPOS>MOLECULE
tmp/4lceA01.pdb
 105 103 0 0 0
SMALL
GASTEIGER

@<TRIPOS>ATOM
      1  N         19.2630  -22.9620   10.9640 N.3    50  TYR50      -0.1227
      2  CA        20.3780  -22.8080   10.0640 C.3    50  TYR50       0.1736
      3  C         19.9140  -23.0360    8.6360 C.2    50  TYR50       0.2595
      4  O         18.7600  -22.7670    8.2920 O.2    50  TYR50      -0.2718
      5  CB        21.4840  -23.7620   10.4820 C.3    50  TYR50       0.0548
      6  CG        21.9770  -23.4570   11.8820 C.ar   50  TYR50      -0.0200
      7  CD1       22.8360  -22.3930   12.1060 C.ar   50  TYR50      -0.0009
      8  CD2       21.5530  -24.2110   12.9880 C.ar   50  TYR50      -0.0009
      9  CE1       23.2860  -22.0870   13.3830 C.ar   50  TYR50       0.0417
     10  CE2       21.9900  -23.9080   14.2770 C.ar   50  TYR50       0.0417
     11  CZ        22.8580  -22.8420   14.4620 C.ar   50  TYR50       0.1957
     12  OH        23.3240  -22.5420   15.7000 O.3    50  TYR50      -0.2866
     13  N         20.7980  -23.5520    7.8030 N.am   51  HIS51      -0.1975
     14  CA        20.5150  -23.6930    6.3790 C.3    51  HIS51       0.1656
     15  C         20.1730  -25.1300    5.9920 C.2    51  HIS51       0.2291
     16  O         19.8540  -25.3760    4.8280 O.2    51  HIS51      -0.2864
     17  CB        21.7320  -23.2390    5.5740 C.3    51  HIS51       0.0771
     18  CG        22.9440  -24.0770    5.8160 C.ar   51  HIS51       0.0820
     19  ND1       23.6570  -24.0180    6.9920 N.ar   51  HIS51      -0.2267
     20  CD2       23.5470  -25.0190    5.0530 C.ar   51  HIS51       0.1154
     21  CE1       24.6520  -24.8870    6.9410 C.ar   51  HIS51       0.1986
     22  NE2       24.6060  -25.5070    5.7750 N.ar   51  HIS51      -0.2212
     23  N         16.6430  -17.0050   11.1280 N.3    71  ARG71      -0.1231
     24  CA        17.8300  -17.6960   10.6110 C.3    71  ARG71       0.1694
     25  C         19.0780  -17.2620   11.3690 C.2    71  ARG71       0.2592
     26  O         19.3400  -16.0430   11.5080 O.2    71  ARG71      -0.2718
     27  CB        18.0730  -17.3620    9.1450 C.3    71  ARG71       0.0321
     28  CG        17.4500  -18.2920    8.1370 C.3    71  ARG71       0.0489
     29  CD        18.1950  -19.6070    8.0350 C.3    71  ARG71       0.2205
     30  NE        19.3370  -19.6010    7.1180 N.pl3  71  ARG71      -0.0865
     31  CZ        20.6240  -19.6380    7.4770 C.cat  71  ARG71       0.5346
     32  NH1       20.9840  -19.6340    8.7510 N.pl3  71  ARG71       0.1354
     33  NH2       21.5690  -19.6760    6.5350 N.pl3  71  ARG71       0.1354
     34  N         19.8490  -18.2460   11.8310 N.am   72  ILE72      -0.1966
     35  CA        21.1700  -17.9980   12.4210 C.3    72  ILE72       0.1727
     36  C         22.1900  -17.9990   11.2910 C.2    72  ILE72       0.2617
     37  O         22.7750  -19.0280   10.9680 O.2    72  ILE72      -0.2715
     38  CB        21.5280  -19.0480   13.4940 C.3    72  ILE72       0.0290
     39  CG1       20.4440  -19.0600   14.5830 C.3    72  ILE72       0.0022
     40  CG2       22.9010  -18.7550   14.1130 C.3    72  ILE72       0.0023
     41  CD1       20.4200  -20.3340   15.3980 C.3    72  ILE72       0.0001
     42  N         22.3830  -16.8280   10.6840 N.am   73  GLY73      -0.1940
     43  CA        23.1460  -16.7110    9.4400 C.3    73  GLY73       0.2014
     44  C         22.3990  -15.7920    8.4870 C.2    73  GLY73       0.2640
     45  O         21.2870  -15.3400    8.8160 O.2    73  GLY73      -0.2714
     46  N         22.9890  -15.5340    7.3150 N.am   74  SER74      -0.1935
     47  CA        22.4750  -14.5070    6.3970 C.3    74  SER74       0.2055
     48  C         21.5690  -15.0120    5.2760 C.2    74  SER74       0.2643
     49  O         20.5920  -14.3510    4.9420 O.2    74  SER74      -0.2714
     50  CB        23.6150  -13.6960    5.7720 C.3    74  SER74       0.2130
     51  OG        24.5050  -14.5430    5.0820 O.3    74  SER74      -0.2179
     52  N         21.8970  -16.1380    4.6620 N.am   75  GLY75      -0.1954
     53  CA        21.0930  -16.6120    3.5320 C.3    75  GLY75       0.1869
     54  C         19.7720  -17.2050    4.0010 C.2    75  GLY75       0.2309
     55  O         19.7690  -18.0290    4.9190 O.2    75  GLY75      -0.2863
     56  N         31.0330  -19.3540   -3.1040 N.3   238  THR238     -0.1218
     57  CA        30.7770  -19.4260   -1.6560 C.3   238  THR238      0.1862
     58  C         29.4210  -18.8200   -1.3390 C.2   238  THR238      0.2287
     59  O         29.1650  -18.4570   -0.1820 O.2   238  THR238     -0.2866
     60  CB        31.8010  -18.6260   -0.8510 C.3   238  THR238      0.1770
     61  OG1       31.6900  -17.2340   -1.2050 O.3   238  THR238     -0.2211
     62  CG2       33.1720  -19.1280   -1.1060 C.3   238  THR238      0.0375
     63  N         25.5900  -19.7230   -2.9740 N.3   240  ARG240     -0.1245
     64  CA        24.5960  -20.8000   -2.8270 C.3   240  ARG240      0.1563
     65  C         24.7460  -21.8220   -3.9270 C.2   240  ARG240      0.2260
     66  O         24.9780  -21.4720   -5.0740 O.2   240  ARG240     -0.2867
     67  CB        23.1660  -20.2420   -2.8300 C.3   240  ARG240      0.0307
     68  CG        22.7350  -19.6290   -1.4990 C.3   240  ARG240      0.0489
     69  CD        22.5820  -20.7230   -0.4520 C.3   240  ARG240      0.2205
     70  NE        22.2010  -20.2610    0.8790 N.pl3 240  ARG240     -0.0865
     71  CZ        23.0630  -19.9760    1.8610 C.cat 240  ARG240      0.5346
     72  NH1       24.3880  -20.0470    1.6860 N.pl3 240  ARG240      0.1354
     73  NH2       22.5950  -19.6090    3.0270 N.pl3 240  ARG240      0.1354
     74  N         30.4560  -26.2170    3.2090 N.3   289  HIS289     -0.1241
     75  CA        29.7480  -25.0360    3.6640 C.3   289  HIS289      0.1621
     76  C         30.3780  -24.4290    4.9430 C.2   289  HIS289      0.2264
     77  O         29.6840  -24.2160    5.9350 O.2   289  HIS289     -0.2867
     78  CB        28.2850  -25.4000    3.8750 C.3   289  HIS289      0.0745
     79  CG        27.3430  -24.2550    3.6700 C.ar  289  HIS289      0.0817
     80  ND1       26.2180  -24.3550    2.8870 N.ar  289  HIS289     -0.2268
     81  CD2       27.3690  -22.9800    4.1280 C.ar  289  HIS289      0.1154
     82  CE1       25.5790  -23.2000    2.8840 C.ar  289  HIS289      0.1986
     83  NE2       26.2540  -22.3500    3.6360 N.ar  289  HIS289     -0.2212
     84  N         31.7280  -19.3920    6.1800 N.3   292  TRP292     -0.1241
     85  CA        31.2220  -18.5360    7.2430 C.3   292  TRP292      0.1605
     86  C         31.9470  -18.7130    8.5640 C.2   292  TRP292      0.2264
     87  O         31.9910  -17.7880    9.3730 O.2   292  TRP292     -0.2867
     88  CB        29.7450  -18.8050    7.4960 C.3   292  TRP292      0.0550
     89  CG        29.4590  -20.1950    7.9750 C.ar  292  TRP292      0.0003
     90  CD1       29.3270  -21.3130    7.2040 C.ar  292  TRP292      0.0946
     91  CD2       29.2360  -20.6100    9.3170 C.ar  292  TRP292      0.0152
     92  NE1       29.0580  -22.4010    7.9830 N.ar  292  TRP292     -0.2442
     93  CE2       28.9840  -21.9980    9.2880 C.ar  292  TRP292      0.0810
     94  CE3       29.2060  -19.9490   10.5440 C.ar  292  TRP292      0.0012
     95  CZ2       28.7150  -22.7370   10.4410 C.ar  292  TRP292      0.0191
     96  CZ3       28.9570  -20.6900   11.6960 C.ar  292  TRP292      0.0001
     97  CH2       28.7200  -22.0720   11.6330 C.ar  292  TRP292      0.0015
     98  N         26.6620  -14.4960   15.7360 N.3   301  MET301     -0.1245
     99  CA        25.3750  -14.6570   15.0830 C.3   301  MET301      0.1570
    100  C         24.3350  -15.3710   15.9510 C.2   301  MET301      0.2261
    101  O         23.1270  -15.1080   15.8470 O.2   301  MET301     -0.2867
    102  CB        25.5430  -15.3990   13.7620 C.3   301  MET301      0.0387
    103  CG        26.0000  -16.8460   13.8770 C.3   301  MET301      0.0595
    104  SD        25.9230  -17.5750   12.2410 S.3   301  MET301     -0.1393
    105  CE        27.4740  -17.0020   11.5590 C.3   301  MET301      0.0692
@<TRIPOS>BOND
     1    66    65    2
     2    65    64    1
     3    56    57    1
     4    63    64    1
     5    67    64    1
     6    67    68    1
     7    57    58    1
     8    57    60    1
     9    68    69    1
    10    58    59    2
    11    61    60    1
    12    62    60    1
    13    69    70    1
    14    70    71    2
    15    72    71    1
    16    71    73    1
    17    82    80   ar
    18    82    83   ar
    19    80    79   ar
    20    74    75    1
    21    53    54    1
    22    53    52    1
    23    83    81   ar
    24    75    78    1
    25    75    76    1
    26    79    78    1
    27    79    81   ar
    28    54    55    2
    29    52    48   am
    30    16    15    2
    31    49    48    2
    32    76    77    2
    33    20    22   ar
    34    20    18   ar
    35    51    50    1
    36    48    47    1
    37    17    18    1
    38    17    14    1
    39    50    47    1
    40    22    21   ar
    41    18    19   ar
    42    15    14    1
    43    84    85    1
    44    14    13    1
    45    47    46    1
    46    33    31    1
    47    21    19   ar
    48    30    31    2
    49    30    29    1
    50    90    89   ar
    51    90    92   ar
    52    85    88    1
    53    85    86    1
    54    46    44   am
    55    31    32    1
    56    88    89    1
    57    13     3   am
    58    89    91   ar
    59    92    93   ar
    60    29    28    1
    61    28    27    1
    62     4     3    2
    63    44    45    2
    64    44    43    1
    65    86    87    2
    66     3     2    1
    67    27    24    1
    68    93    91   ar
    69    93    95   ar
    70    91    94   ar
    71    43    42    1
    72     2     5    1
    73     2     1    1
    74    95    97   ar
    75     5     6    1
    76    94    96   ar
    77    24    23    1
    78    24    25    1
    79    42    36   am
    80    37    36    2
    81    36    35    1
    82    25    26    2
    83    25    34   am
    84   105   104    1
    85    97    96   ar
    86    34    35    1
    87     6     7   ar
    88     6     8   ar
    89     7     9   ar
    90   104   103    1
    91    35    38    1
    92     8    10   ar
    93     9    11   ar
    94    38    40    1
    95    38    39    1
    96   102   103    1
    97   102    99    1
    98    10    11   ar
    99    11    12    1
   100    39    41    1
   101    99    98    1
   102    99   100    1
   103   101   100    2
