@<TRIPOS>MOLECULE
tmp/4lcfA00.pdb
 209 201 0 0 0
SMALL
GASTEIGER

@<TRIPOS>ATOM
      1  N         24.4680  -11.2330    2.4070 N.3    18  LEU18      -0.1231
      2  CA        25.1400  -12.0770    1.4240 C.3    18  LEU18       0.1693
      3  C         26.6500  -11.8710    1.4680 C.2    18  LEU18       0.2592
      4  O         27.4180  -12.8290    1.5140 O.2    18  LEU18      -0.2718
      5  CB        24.6170  -11.7680    0.0230 C.3    18  LEU18       0.0284
      6  CG        25.4320  -12.3520   -1.1330 C.3    18  LEU18       0.0019
      7  CD1       25.3950  -13.8710   -1.0960 C.3    18  LEU18       0.0001
      8  CD2       24.9320  -11.8220   -2.4700 C.3    18  LEU18       0.0001
      9  N         27.0700  -10.6120    1.4530 N.am   19  HIS19      -0.1976
     10  CA        28.4890  -10.2890    1.4270 C.3    19  HIS19       0.1656
     11  C         29.1390  -10.5150    2.7840 C.2    19  HIS19       0.2291
     12  O         30.2500  -11.0380    2.8710 O.2    19  HIS19      -0.2864
     13  CB        28.6950   -8.8400    0.9780 C.3    19  HIS19       0.0771
     14  CG        28.2130   -8.5680   -0.4130 C.ar   19  HIS19       0.0820
     15  ND1       27.8480   -7.3100   -0.8410 N.ar   19  HIS19      -0.2267
     16  CD2       28.0370   -9.3920   -1.4730 C.ar   19  HIS19       0.1154
     17  CE1       27.4660   -7.3710   -2.1050 C.ar   19  HIS19       0.1986
     18  NE2       27.5720   -8.6230   -2.5120 N.ar   19  HIS19      -0.2212
     19  N         29.5660   -5.5480   -6.8070 N.3    62  MET62      -0.1230
     20  CA        28.7990   -6.7660   -6.5600 C.3    62  MET62       0.1702
     21  C         27.3080   -6.4540   -6.4780 C.2    62  MET62       0.2593
     22  O         26.4750   -7.1070   -7.1190 O.2    62  MET62      -0.2718
     23  CB        29.2710   -7.4430   -5.2710 C.3    62  MET62       0.0401
     24  CG        30.7650   -7.7300   -5.2330 C.3    62  MET62       0.0596
     25  SD        31.2920   -8.8960   -6.5050 S.3    62  MET62      -0.1393
     26  CE        33.0720   -8.7130   -6.4170 C.3    62  MET62       0.0692
     27  N         26.9820   -5.4460   -5.6810 N.am   63  SER63      -0.1952
     28  CA        25.6060   -5.0200   -5.5050 C.3    63  SER63       0.1924
     29  C         25.5480   -3.5050   -5.5770 C.2    63  SER63       0.2314
     30  O         26.5740   -2.8420   -5.7140 O.2    63  SER63      -0.2863
     31  CB        25.0780   -5.4870   -4.1500 C.3    63  SER63       0.2116
     32  OG        25.7290   -4.8060   -3.0910 O.3    63  SER63      -0.2180
     33  N         19.2680   -3.6390   -3.9830 N.3    77  GLU77      -0.1231
     34  CA        18.5620   -3.8180   -5.2560 C.3    77  GLU77       0.1699
     35  C         17.3310   -4.7380   -5.2490 C.2    77  GLU77       0.2592
     36  O         16.3570   -4.4690   -5.9460 O.2    77  GLU77      -0.2718
     37  CB        19.5320   -4.2490   -6.3640 C.3    77  GLU77       0.0402
     38  CG        20.2450   -5.5650   -6.1030 C.3    77  GLU77       0.1161
     39  CD        21.6170   -5.3850   -5.4880 C.2    77  GLU77       0.3649
     40  OE1       21.8470   -4.3620   -4.8080 O.co2  77  GLU77      -0.2457
     41  OE2       22.4700   -6.2740   -5.6930 O.co2  77  GLU77      -0.2457
     42  N         17.3750   -5.8260   -4.4890 N.am   78  HIS78      -0.1976
     43  CA        16.2560   -6.7640   -4.5070 C.3    78  HIS78       0.1656
     44  C         15.0620   -6.2220   -3.7270 C.2    78  HIS78       0.2291
     45  O         13.9200   -6.3480   -4.1640 O.2    78  HIS78      -0.2864
     46  CB        16.6820   -8.1460   -4.0000 C.3    78  HIS78       0.0771
     47  CG        17.8400   -8.7290   -4.7540 C.ar   78  HIS78       0.0820
     48  ND1       18.6460   -9.7160   -4.2320 N.ar   78  HIS78      -0.2267
     49  CD2       18.3270   -8.4610   -5.9900 C.ar   78  HIS78       0.1154
     50  CE1       19.5840  -10.0280   -5.1100 C.ar   78  HIS78       0.1986
     51  NE2       19.4150   -9.2790   -6.1860 N.ar   78  HIS78      -0.2212
     52  N         26.3770  -15.2360  -21.9880 N.3   160  PHE160     -0.1241
     53  CA        27.3590  -16.1660  -21.4460 C.3   160  PHE160      0.1605
     54  C         27.6680  -17.2850  -22.4340 C.2   160  PHE160      0.2264
     55  O         26.7690  -17.8230  -23.0820 O.2   160  PHE160     -0.2867
     56  CB        26.8660  -16.7500  -20.1210 C.3   160  PHE160      0.0534
     57  CG        26.6890  -15.7260  -19.0440 C.ar  160  PHE160     -0.0203
     58  CD1       27.7940  -15.1110  -18.4690 C.ar  160  PHE160     -0.0042
     59  CD2       25.4250  -15.3700  -18.6090 C.ar  160  PHE160     -0.0042
     60  CE1       27.6380  -14.1640  -17.4790 C.ar  160  PHE160     -0.0003
     61  CE2       25.2650  -14.4240  -17.6120 C.ar  160  PHE160     -0.0003
     62  CZ        26.3740  -13.8230  -17.0490 C.ar  160  PHE160     -0.0000
     63  N         19.0470  -14.5980   -7.4100 N.3   190  THR190     -0.1203
     64  CA        20.3790  -14.2270   -7.8670 C.3   190  THR190      0.1994
     65  C         21.1680  -15.4780   -8.2440 C.2   190  THR190      0.2618
     66  O         20.8180  -16.5940   -7.8540 O.2   190  THR190     -0.2717
     67  CB        21.1530  -13.4170   -6.8160 C.3   190  THR190      0.1784
     68  OG1       22.3230  -12.8530   -7.4200 O.3   190  THR190     -0.2211
     69  CG2       21.5560  -14.3050   -5.6230 C.3   190  THR190      0.0376
     70  N         22.2150  -15.2940   -9.0320 N.am  191  PHE191     -0.1961
     71  CA        23.0230  -16.4210   -9.4610 C.3   191  PHE191      0.1771
     72  C         24.4940  -16.0740   -9.3920 C.2   191  PHE191      0.2620
     73  O         24.8720  -14.9030   -9.4030 O.2   191  PHE191     -0.2715
     74  CB        22.6390  -16.8640  -10.8760 C.3   191  PHE191      0.0574
     75  CG        22.8580  -15.8090  -11.9260 C.ar  191  PHE191     -0.0200
     76  CD1       21.8900  -14.8490  -12.1740 C.ar  191  PHE191     -0.0042
     77  CD2       24.0230  -15.7920  -12.6730 C.ar  191  PHE191     -0.0042
     78  CE1       22.0850  -13.8800  -13.1430 C.ar  191  PHE191     -0.0003
     79  CE2       24.2270  -14.8260  -13.6480 C.ar  191  PHE191     -0.0003
     80  CZ        23.2570  -13.8670  -13.8790 C.ar  191  PHE191     -0.0000
     81  N         25.3240  -17.1030   -9.3140 N.am  192  GLY192     -0.1940
     82  CA        26.7530  -16.9100   -9.2650 C.3   192  GLY192      0.2014
     83  C         27.4850  -18.0490   -9.9310 C.2   192  GLY192      0.2638
     84  O         27.0190  -19.1910   -9.9350 O.2   192  GLY192     -0.2714
     85  N         28.6340  -17.7360  -10.5160 N.am  193  PHE193     -0.1973
     86  CA        29.4800  -18.7570  -11.1040 C.3   193  PHE193      0.1639
     87  C         30.3940  -19.3070  -10.0340 C.2   193  PHE193      0.2290
     88  O         30.9580  -18.5530   -9.2420 O.2   193  PHE193     -0.2864
     89  CB        30.2920  -18.1810  -12.2560 C.3   193  PHE193      0.0560
     90  CG        29.4490  -17.6720  -13.3760 C.ar  193  PHE193     -0.0200
     91  CD1       28.9970  -18.5320  -14.3570 C.ar  193  PHE193     -0.0042
     92  CD2       29.0840  -16.3390  -13.4340 C.ar  193  PHE193     -0.0042
     93  CE1       28.2100  -18.0700  -15.3860 C.ar  193  PHE193     -0.0003
     94  CE2       28.2970  -15.8700  -14.4650 C.ar  193  PHE193     -0.0003
     95  CZ        27.8590  -16.7390  -15.4380 C.ar  193  PHE193     -0.0000
     96  N         33.8310  -17.8090   -9.4770 N.3   196  ASP196     -0.1225
     97  CA        33.7790  -16.4660   -8.9040 C.3   196  ASP196      0.1805
     98  C         33.4410  -16.5060   -7.4220 C.2   196  ASP196      0.2597
     99  O         33.9840  -15.7340   -6.6280 O.2   196  ASP196     -0.2718
    100  CB        32.7530  -15.6030   -9.6420 C.3   196  ASP196      0.1424
    101  CG        33.1630  -15.2960  -11.0670 C.2   196  ASP196      0.3668
    102  OD1       34.3770  -15.3280  -11.3700 O.co2 196  ASP196     -0.2456
    103  OD2       32.2610  -15.0150  -11.8860 O.co2 196  ASP196     -0.2456
    104  N         32.5300  -17.4010   -7.0490 N.am  197  ILE197     -0.1980
    105  CA        32.1400  -17.5350   -5.6550 C.3   197  ILE197      0.1595
    106  C         33.3140  -18.0580   -4.8410 C.2   197  ILE197      0.2287
    107  O         33.5600  -17.5960   -3.7270 O.2   197  ILE197     -0.2864
    108  CB        30.9340  -18.4750   -5.5100 C.3   197  ILE197      0.0276
    109  CG1       29.6970  -17.8370   -6.1440 C.3   197  ILE197      0.0022
    110  CG2       30.6720  -18.8020   -4.0460 C.3   197  ILE197      0.0022
    111  CD1       28.5860  -18.8180   -6.4080 C.3   197  ILE197      0.0001
    112  N         35.6570  -15.1930   -4.1440 N.3   200  LEU200     -0.1231
    113  CA        35.1210  -14.3430   -3.0880 C.3   200  LEU200      0.1693
    114  C         35.3260  -14.9950   -1.7210 C.2   200  LEU200      0.2591
    115  O         35.8700  -14.3750   -0.8030 O.2   200  LEU200     -0.2718
    116  CB        33.6390  -14.0390   -3.3330 C.3   200  LEU200      0.0284
    117  CG        33.3100  -13.1380   -4.5310 C.3   200  LEU200      0.0019
    118  CD1       31.8180  -13.1520   -4.8370 C.3   200  LEU200      0.0001
    119  CD2       33.7780  -11.7160   -4.2680 C.3   200  LEU200      0.0001
    120  N         34.9170  -16.2550   -1.5940 N.am  201  ARG201     -0.1980
    121  CA        35.0430  -16.9530   -0.3170 C.3   201  ARG201      0.1597
    122  C         36.4930  -17.0530    0.1600 C.2   201  ARG201      0.2287
    123  O         36.7510  -17.0190    1.3610 O.2   201  ARG201     -0.2864
    124  CB        34.3860  -18.3370   -0.3740 C.3   201  ARG201      0.0334
    125  CG        32.8780  -18.2690   -0.5430 C.3   201  ARG201      0.0492
    126  CD        32.2320  -19.6430   -0.5510 C.3   201  ARG201      0.2205
    127  NE        32.3050  -20.2960    0.7550 N.pl3 201  ARG201     -0.0865
    128  CZ        31.4710  -20.0510    1.7620 C.cat 201  ARG201      0.5346
    129  NH1       31.6170  -20.6970    2.9110 N.pl3 201  ARG201      0.1354
    130  NH2       30.4990  -19.1600    1.6290 N.pl3 201  ARG201      0.1354
    131  N         31.4280  -12.9270    0.5090 N.3   206  ALA206     -0.1245
    132  CA        30.2600  -13.7310    0.1300 C.3   206  ALA206      0.1562
    133  C         29.9190  -14.7860    1.1800 C.2   206  ALA206      0.2260
    134  O         29.4660  -15.8860    0.8510 O.2   206  ALA206     -0.2867
    135  CB        30.4660  -14.3830   -1.2390 C.3   206  ALA206      0.0290
    136  N         26.4150  -16.4570    1.3940 N.3   209  GLY209     -0.1210
    137  CA        25.9410  -17.1730    0.2230 C.3   209  GLY209      0.1956
    138  C         25.7840  -18.6670    0.4360 C.2   209  GLY209      0.2613
    139  O         26.5770  -19.2920    1.1400 O.2   209  GLY209     -0.2717
    140  N         24.7470  -19.2330   -0.1770 N.am  210  SER210     -0.1938
    141  CA        24.4910  -20.6700   -0.1250 C.3   210  SER210      0.2055
    142  C         23.5570  -21.0510   -1.2660 C.2   210  SER210      0.2642
    143  O         23.0260  -20.1800   -1.9480 O.2   210  SER210     -0.2714
    144  CB        23.8650  -21.0630    1.2130 C.3   210  SER210      0.2130
    145  OG        22.5130  -20.6390    1.2870 O.3   210  SER210     -0.2179
    146  N         23.3530  -22.3490   -1.4810 N.am  211  VAL211     -0.1977
    147  CA        22.4170  -22.7840   -2.5150 C.3   211  VAL211      0.1596
    148  C         20.9820  -22.4910   -2.0990 C.2   211  VAL211      0.2287
    149  O         20.0620  -22.5780   -2.9130 O.2   211  VAL211     -0.2864
    150  CB        22.5610  -24.2840   -2.8590 C.3   211  VAL211      0.0276
    151  CG1       23.8930  -24.5500   -3.5460 C.3   211  VAL211      0.0022
    152  CG2       22.4050  -25.1390   -1.6140 C.3   211  VAL211      0.0022
    153  N         20.9820  -18.6420   -3.5740 N.3   214  ALA214     -0.1245
    154  CA        21.5300  -18.3050   -4.8780 C.3   214  ALA214      0.1562
    155  C         21.5440  -19.5250   -5.7690 C.2   214  ALA214      0.2260
    156  O         21.6950  -20.6490   -5.2920 O.2   214  ALA214     -0.2867
    157  CB        22.9330  -17.7700   -4.7350 C.3   214  ALA214      0.0290
    158  N         23.6980  -21.5440   -8.1100 N.3   216  VAL216     -0.1245
    159  CA        25.1230  -21.6940   -8.3290 C.3   216  VAL216      0.1561
    160  C         25.3330  -22.5760   -9.5440 C.2   216  VAL216      0.2260
    161  O         24.7650  -23.6600   -9.6270 O.2   216  VAL216     -0.2867
    162  CB        25.8160  -22.3490   -7.1320 C.3   216  VAL216      0.0252
    163  CG1       27.3270  -22.2600   -7.2870 C.3   216  VAL216      0.0019
    164  CG2       25.3730  -21.6870   -5.8350 C.3   216  VAL216      0.0019
    165  N         24.0280  -26.3040  -10.0310 N.3   223  LEU223     -0.1245
    166  CA        24.3460  -27.1370   -8.8740 C.3   223  LEU223      0.1561
    167  C         23.1460  -27.3740   -7.9640 C.2   223  LEU223      0.2260
    168  O         23.0610  -28.4110   -7.3000 O.2   223  LEU223     -0.2867
    169  CB        25.5040  -26.5380   -8.0780 C.3   223  LEU223      0.0270
    170  CG        26.7860  -26.2680   -8.8690 C.3   223  LEU223      0.0019
    171  CD1       27.8760  -25.7440   -7.9510 C.3   223  LEU223      0.0001
    172  CD2       27.2560  -27.5130   -9.6030 C.3   223  LEU223      0.0001
    173  N         16.3250  -12.5760  -13.4480 N.3   237  HIS237     -0.1226
    174  CA        16.9490  -11.9160  -12.3140 C.3   237  HIS237      0.1752
    175  C         17.6410  -10.6210  -12.7220 C.2   237  HIS237      0.2595
    176  O         17.6220   -9.6500  -11.9710 O.2   237  HIS237     -0.2718
    177  CB        17.9310  -12.8010  -11.5520 C.3   237  HIS237      0.0759
    178  CG        18.4290  -12.1400  -10.3080 C.ar  237  HIS237      0.0818
    179  ND1       17.6930  -12.1110   -9.1430 N.ar  237  HIS237     -0.2268
    180  CD2       19.5390  -11.4030  -10.0730 C.ar  237  HIS237      0.1154
    181  CE1       18.3440  -11.4110   -8.2330 C.ar  237  HIS237      0.1986
    182  NE2       19.4690  -10.9710   -8.7690 N.ar  237  HIS237     -0.2212
    183  N         18.2440  -10.6020  -13.9100 N.am  238  LYS238     -0.1980
    184  CA        18.8770   -9.3780  -14.3890 C.3   238  LYS238      0.1596
    185  C         17.8300   -8.2800  -14.5330 C.2   238  LYS238      0.2287
    186  O         18.0850   -7.1210  -14.2070 O.2   238  LYS238     -0.2864
    187  CB        19.6110   -9.6170  -15.7120 C.3   238  LYS238      0.0298
    188  CG        20.7570  -10.6140  -15.5910 C.3   238  LYS238      0.0038
    189  CD        21.8930  -10.0670  -14.7450 C.3   238  LYS238      0.0206
    190  CE        22.5540   -8.8760  -15.4150 C.3   238  LYS238      0.1093
    191  NZ        23.7600   -8.4030  -14.6670 N.3   238  LYS238     -0.1314
    192  N         16.9810   -7.0540  -11.0780 N.3   241  ASP241     -0.1239
    193  CA        18.0610   -6.1750  -10.6360 C.3   241  ASP241      0.1674
    194  C         17.9050   -4.7830  -11.2590 C.2   241  ASP241      0.2266
    195  O         18.0560   -3.7680  -10.5810 O.2   241  ASP241     -0.2867
    196  CB        19.4430   -6.7840  -10.9730 C.3   241  ASP241      0.1410
    197  CG        19.9350   -7.7920   -9.9080 C.2   241  ASP241      0.3668
    198  OD1       19.4090   -7.7870   -8.7980 O.co2 241  ASP241     -0.2456
    199  OD2       20.8660   -8.5910  -10.1430 O.co2 241  ASP241     -0.2456
    200  N         24.9930   -3.3450  -12.1500 N.3   264  HIS264     -0.1241
    201  CA        24.6390   -2.2190  -11.2870 C.3   264  HIS264      0.1621
    202  C         25.4110   -0.9430  -11.5890 C.2   264  HIS264      0.2264
    203  O         24.8670    0.1530  -11.4510 O.2   264  HIS264     -0.2867
    204  CB        24.8420   -2.5900   -9.8210 C.3   264  HIS264      0.0745
    205  CG        24.1250   -3.8350   -9.4190 C.ar  264  HIS264      0.0817
    206  ND1       22.7520   -3.9500   -9.4670 N.ar  264  HIS264     -0.2268
    207  CD2       24.5880   -5.0200   -8.9590 C.ar  264  HIS264      0.1154
    208  CE1       22.4020   -5.1590   -9.0630 C.ar  264  HIS264      0.1986
    209  NE2       23.4980   -5.8270   -8.7520 N.ar  264  HIS264     -0.2212
@<TRIPOS>BOND
     1    55    54    2
     2    54    53    1
     3    52    53    1
     4    53    56    1
     5    56    57    1
     6    57    59   ar
     7    57    58   ar
     8    59    61   ar
     9    58    60   ar
    10    61    62   ar
    11    60    62   ar
    12   187   188    1
    13   187   184    1
    14   188   189    1
    15    95    93   ar
    16    95    94   ar
    17   190   189    1
    18   190   191    1
    19    93    91   ar
    20   185   184    1
    21   185   186    2
    22    94    92   ar
    23   184   183    1
    24    91    90   ar
    25   183   175   am
    26    80    79   ar
    27    80    78   ar
    28    79    77   ar
    29   173   174    1
    30    92    90   ar
    31    90    89    1
    32    78    76   ar
    33   175   174    1
    34   175   176    2
    35    77    75   ar
    36   174   177    1
    37    89    86    1
    38    76    75   ar
    39   200   201    1
    40    75    74    1
    41   103   101   ar
    42   202   203    2
    43   202   201    1
    44   177   178    1
    45   102   101   ar
    46   201   204    1
    47   194   193    1
    48   194   195    2
    49    86    85    1
    50    86    87    1
    51   192   193    1
    52   101   100    1
    53   196   193    1
    54   196   197    1
    55    74    71    1
    56    85    83   am
    57   178   180   ar
    58   178   179   ar
    59   199   197   ar
    60   180   182   ar
    61    87    88    2
    62   165   166    1
    63    84    83    2
    64    83    82    1
    65   197   198   ar
    66   204   205    1
    67   100    97    1
    68   161   160    2
    69   172   170    1
    70   160   159    1
    71    96    97    1
    72   206   205   ar
    73   206   208   ar
    74    71    72    1
    75    71    70    1
    76   205   207   ar
    77    73    72    2
    78    72    81   am
    79    81    82    1
    80   179   181   ar
    81   208   209   ar
    82    70    65   am
    83   207   209   ar
    84    97    98    1
    85   166   169    1
    86   166   167    1
    87   170   169    1
    88   170   171    1
    89   182   181   ar
    90   159   158    1
    91   159   162    1
    92    65    64    1
    93    65    66    2
    94   167   168    2
    95    64    63    1
    96    64    67    1
    97    98   104   am
    98    98    99    2
    99    68    67    1
   100   163   162    1
   101   162   164    1
   102    22    21    2
   103   104   105    1
   104    67    69    1
   105    19    20    1
   106    20    21    1
   107    20    23    1
   108    25    26    1
   109    25    24    1
   110    21    27   am
   111   111   109    1
   112    37    38    1
   113    37    34    1
   114    51    49   ar
   115    51    50   ar
   116   109   108    1
   117    38    39    1
   118    49    47   ar
   119    36    35    2
   120   155   156    2
   121   155   154    1
   122    30    29    2
   123    41    39   ar
   124    27    28    1
   125   105   108    1
   126   105   106    1
   127    29    28    1
   128   108   110    1
   129    28    31    1
   130    39    40   ar
   131    23    24    1
   132    34    35    1
   133    34    33    1
   134    35    42   am
   135    50    48   ar
   136   154   157    1
   137   154   153    1
   138   106   107    2
   139   118   117    1
   140    47    48   ar
   141    47    46    1
   142   117   119    1
   143   117   116    1
   144    43    42    1
   145    43    46    1
   146    43    44    1
   147    45    44    2
   148    31    32    1
   149   112   113    1
   150   151   150    1
   151   116   113    1
   152   113   114    1
   153   149   148    2
   154   150   147    1
   155   150   152    1
   156   147   148    1
   157   147   146    1
   158    18    17   ar
   159    18    16   ar
   160     8     6    1
   161    17    15   ar
   162   143   142    2
   163   114   120   am
   164   114   115    2
   165   120   121    1
   166   146   142   am
   167    16    14   ar
   168   142   141    1
   169   135   132    1
   170     6     7    1
   171     6     5    1
   172    15    14   ar
   173   126   125    1
   174   126   127    1
   175   125   124    1
   176    14    13    1
   177   124   121    1
   178   121   122    1
   179   140   141    1
   180   140   138   am
   181   141   144    1
   182     5     2    1
   183   132   131    1
   184   132   133    1
   185   122   123    2
   186   137   138    1
   187   137   136    1
   188   138   139    2
   189   127   128    2
   190   134   133    2
   191    13    10    1
   192   144   145    1
   193     2     3    1
   194     2     1    1
   195    10     9    1
   196    10    11    1
   197     9     3   am
   198     3     4    2
   199   130   128    1
   200   128   129    1
   201    11    12    2
