@<TRIPOS>MOLECULE
tmp/4lchA00.pdb
 217 209 0 0 0
SMALL
GASTEIGER

@<TRIPOS>ATOM
      1  N         24.4900  -11.2240    2.5600 N.3    18  LEU18      -0.1231
      2  CA        25.1850  -12.0910    1.6120 C.3    18  LEU18       0.1693
      3  C         26.6980  -11.9390    1.7760 C.2    18  LEU18       0.2592
      4  O         27.4450  -12.9180    1.7510 O.2    18  LEU18      -0.2718
      5  CB        24.7510  -11.7760    0.1730 C.3    18  LEU18       0.0284
      6  CG        25.5300  -12.5050   -0.9160 C.3    18  LEU18       0.0019
      7  CD1       25.3090  -14.0000   -0.8120 C.3    18  LEU18       0.0001
      8  CD2       25.0770  -11.9980   -2.2750 C.3    18  LEU18       0.0001
      9  N         27.1540  -10.7100    1.9620 N.am   19  HIS19      -0.1976
     10  CA        28.5860  -10.4660    2.0440 C.3    19  HIS19       0.1656
     11  C         29.1380  -10.8470    3.4200 C.2    19  HIS19       0.2291
     12  O         30.1490  -11.5540    3.5240 O.2    19  HIS19      -0.2864
     13  CB        28.9040   -9.0180    1.6500 C.3    19  HIS19       0.0771
     14  CG        28.3480   -8.6310    0.3130 C.ar   19  HIS19       0.0820
     15  ND1       28.0720   -7.3270   -0.0350 N.ar   19  HIS19      -0.2267
     16  CD2       28.0160   -9.3830   -0.7640 C.ar   19  HIS19       0.1154
     17  CE1       27.5960   -7.2920   -1.2680 C.ar   19  HIS19       0.1986
     18  NE2       27.5530   -8.5280   -1.7340 N.ar   19  HIS19      -0.2212
     19  N         28.9530   -5.7260   -8.2380 N.3    62  MET62      -0.1230
     20  CA        28.0810   -6.8850   -7.9920 C.3    62  MET62       0.1702
     21  C         26.7620   -6.5550   -7.3000 C.2    62  MET62       0.2593
     22  O         25.7560   -7.2150   -7.5650 O.2    62  MET62      -0.2718
     23  CB        28.8090   -8.0110   -7.2540 C.3    62  MET62       0.0401
     24  CG        29.8580   -8.6980   -8.1030 C.3    62  MET62       0.0596
     25  SD        30.7070   -9.9450   -7.1320 S.3    62  MET62      -0.1393
     26  CE        31.0270   -8.9970   -5.6510 C.3    62  MET62       0.0692
     27  N         26.7820   -5.5340   -6.4450 N.am   63  SER63      -0.1952
     28  CA        25.5980   -5.0550   -5.7220 C.3    63  SER63       0.1924
     29  C         25.5640   -3.5370   -5.7360 C.2    63  SER63       0.2314
     30  O         26.5680   -2.8960   -6.0290 O.2    63  SER63      -0.2863
     31  CB        25.6730   -5.5120   -4.2730 C.3    63  SER63       0.2116
     32  OG        26.9260   -5.1260   -3.7440 O.3    63  SER63      -0.2180
     33  N         19.3310   -3.6150   -3.9220 N.3    77  GLU77      -0.1231
     34  CA        18.6340   -3.7540   -5.2040 C.3    77  GLU77       0.1699
     35  C         17.4090   -4.6830   -5.2020 C.2    77  GLU77       0.2592
     36  O         16.4420   -4.4100   -5.9050 O.2    77  GLU77      -0.2718
     37  CB        19.6130   -4.1490   -6.3310 C.3    77  GLU77       0.0402
     38  CG        20.3250   -5.4860   -6.1090 C.3    77  GLU77       0.1161
     39  CD        21.6780   -5.3700   -5.4350 C.2    77  GLU77       0.3649
     40  OE1       21.9220   -4.3490   -4.7410 O.co2  77  GLU77      -0.2457
     41  OE2       22.5080   -6.3020   -5.5940 O.co2  77  GLU77      -0.2457
     42  N         17.4160   -5.7510   -4.4030 N.am   78  HIS78      -0.1976
     43  CA        16.2820   -6.6820   -4.4540 C.3    78  HIS78       0.1656
     44  C         15.0970   -6.1650   -3.6710 C.2    78  HIS78       0.2291
     45  O         13.9740   -6.3010   -4.0890 O.2    78  HIS78      -0.2864
     46  CB        16.6670   -8.0870   -3.9870 C.3    78  HIS78       0.0771
     47  CG        17.8480   -8.6560   -4.7150 C.ar   78  HIS78       0.0820
     48  ND1       18.6310   -9.6550   -4.1830 N.ar   78  HIS78      -0.2267
     49  CD2       18.3770   -8.3700   -5.9330 C.ar   78  HIS78       0.1154
     50  CE1       19.6040   -9.9510   -5.0270 C.ar   78  HIS78       0.1986
     51  NE2       19.4720   -9.1870   -6.0990 N.ar   78  HIS78      -0.2212
     52  N         26.2200  -15.1610  -22.0330 N.3   160  PHE160     -0.1241
     53  CA        27.2040  -16.1020  -21.5070 C.3   160  PHE160      0.1605
     54  C         27.5100  -17.2240  -22.4880 C.2   160  PHE160      0.2264
     55  O         26.5930  -17.7980  -23.0910 O.2   160  PHE160     -0.2867
     56  CB        26.7280  -16.6820  -20.1740 C.3   160  PHE160      0.0534
     57  CG        26.5860  -15.6610  -19.0920 C.ar  160  PHE160     -0.0203
     58  CD1       27.7070  -15.0250  -18.5690 C.ar  160  PHE160     -0.0042
     59  CD2       25.3420  -15.3410  -18.5980 C.ar  160  PHE160     -0.0042
     60  CE1       27.5820  -14.0810  -17.5660 C.ar  160  PHE160     -0.0003
     61  CE2       25.2050  -14.4020  -17.5740 C.ar  160  PHE160     -0.0003
     62  CZ        26.3190  -13.7750  -17.0760 C.ar  160  PHE160     -0.0000
     63  N         18.9890  -14.5300   -7.3310 N.3   190  THR190     -0.1203
     64  CA        20.3270  -14.1490   -7.7550 C.3   190  THR190      0.1994
     65  C         21.1130  -15.3910   -8.1730 C.2   190  THR190      0.2618
     66  O         20.7840  -16.5110   -7.7780 O.2   190  THR190     -0.2717
     67  CB        21.0870  -13.3790   -6.6530 C.3   190  THR190      0.1784
     68  OG1       22.2810  -12.8190   -7.2070 O.3   190  THR190     -0.2211
     69  CG2       21.4750  -14.2980   -5.4820 C.3   190  THR190      0.0376
     70  N         22.1260  -15.1920   -9.0110 N.am  191  PHE191     -0.1961
     71  CA        22.9620  -16.3090   -9.4160 C.3   191  PHE191      0.1771
     72  C         24.4280  -15.9370   -9.3860 C.2   191  PHE191      0.2620
     73  O         24.7890  -14.7540   -9.4180 O.2   191  PHE191     -0.2715
     74  CB        22.5660  -16.8030  -10.8190 C.3   191  PHE191      0.0574
     75  CG        22.7660  -15.7940  -11.9160 C.ar  191  PHE191     -0.0200
     76  CD1       21.7740  -14.8860  -12.2240 C.ar  191  PHE191     -0.0042
     77  CD2       23.9240  -15.8060  -12.6840 C.ar  191  PHE191     -0.0042
     78  CE1       21.9310  -13.9670  -13.2640 C.ar  191  PHE191     -0.0003
     79  CE2       24.0970  -14.8890  -13.7450 C.ar  191  PHE191     -0.0003
     80  CZ        23.1050  -13.9670  -14.0230 C.ar  191  PHE191     -0.0000
     81  N         25.2690  -16.9580   -9.3220 N.am  192  GLY192     -0.1940
     82  CA        26.6970  -16.7500   -9.3670 C.3   192  GLY192      0.2014
     83  C         27.4110  -17.9110   -9.9930 C.2   192  GLY192      0.2639
     84  O         26.9420  -19.0560   -9.9590 O.2   192  GLY192     -0.2714
     85  N         28.5660  -17.6090  -10.5660 N.am  193  PHE193     -0.1959
     86  CA        29.4110  -18.6220  -11.1360 C.3   193  PHE193      0.1771
     87  C         30.3050  -19.2030  -10.0790 C.2   193  PHE193      0.2619
     88  O         30.9190  -18.4640   -9.3010 O.2   193  PHE193     -0.2715
     89  CB        30.2250  -17.9830  -12.2410 C.3   193  PHE193      0.0574
     90  CG        29.3730  -17.5500  -13.3920 C.ar  193  PHE193     -0.0200
     91  CD1       28.9620  -18.4770  -14.3250 C.ar  193  PHE193     -0.0042
     92  CD2       28.9380  -16.2450  -13.5010 C.ar  193  PHE193     -0.0042
     93  CE1       28.1580  -18.0880  -15.3850 C.ar  193  PHE193     -0.0003
     94  CE2       28.1330  -15.8550  -14.5540 C.ar  193  PHE193     -0.0003
     95  CZ        27.7460  -16.7790  -15.4910 C.ar  193  PHE193     -0.0000
     96  N         30.3640  -20.5270  -10.0270 N.am  194  MET194     -0.1977
     97  CA        31.1050  -21.2060   -8.9730 C.3   194  MET194      0.1605
     98  C         32.5370  -20.6720   -8.7690 C.2   194  MET194      0.2287
     99  O         32.9540  -20.4140   -7.6320 O.2   194  MET194     -0.2864
    100  CB        31.1210  -22.7160   -9.2100 C.3   194  MET194      0.0413
    101  CG        31.3740  -23.4760   -7.9440 C.3   194  MET194      0.0598
    102  SD        31.3070  -25.2510   -8.1930 S.3   194  MET194     -0.1393
    103  CE        31.9490  -25.8380   -6.6540 C.3   194  MET194      0.0692
    104  N         33.6970  -17.7440   -9.3840 N.3   196  ASP196     -0.1225
    105  CA        33.6770  -16.3840   -8.8380 C.3   196  ASP196      0.1805
    106  C         33.3370  -16.4540   -7.3610 C.2   196  ASP196      0.2597
    107  O         33.8960  -15.7060   -6.5510 O.2   196  ASP196     -0.2718
    108  CB        32.6510  -15.5130   -9.5590 C.3   196  ASP196      0.1424
    109  CG        33.0790  -15.1400  -10.9620 C.2   196  ASP196      0.3668
    110  OD1       34.2190  -15.4800  -11.3640 O.co2 196  ASP196     -0.2456
    111  OD2       32.2680  -14.4790  -11.6530 O.co2 196  ASP196     -0.2456
    112  N         32.4150  -17.3490   -7.0090 N.am  197  ILE197     -0.1980
    113  CA        32.0220  -17.4830   -5.5900 C.3   197  ILE197      0.1595
    114  C         33.1970  -18.0290   -4.8020 C.2   197  ILE197      0.2287
    115  O         33.4730  -17.5700   -3.6910 O.2   197  ILE197     -0.2864
    116  CB        30.7940  -18.4020   -5.4430 C.3   197  ILE197      0.0276
    117  CG1       29.5740  -17.7380   -6.0830 C.3   197  ILE197      0.0022
    118  CG2       30.5090  -18.7110   -3.9800 C.3   197  ILE197      0.0022
    119  CD1       28.4500  -18.7020   -6.3710 C.3   197  ILE197      0.0001
    120  N         35.4780  -15.2050   -4.0740 N.3   200  LEU200     -0.1231
    121  CA        34.9710  -14.3370   -3.0310 C.3   200  LEU200      0.1693
    122  C         35.2030  -15.0100   -1.6780 C.2   200  LEU200      0.2591
    123  O         35.7370  -14.4070   -0.7440 O.2   200  LEU200     -0.2718
    124  CB        33.4890  -14.0290   -3.2520 C.3   200  LEU200      0.0284
    125  CG        33.2140  -13.1040   -4.4420 C.3   200  LEU200      0.0019
    126  CD1       31.7220  -13.0930   -4.7630 C.3   200  LEU200      0.0001
    127  CD2       33.6850  -11.7010   -4.0870 C.3   200  LEU200      0.0001
    128  N         34.8460  -16.2830   -1.5840 N.am  201  ARG201     -0.1980
    129  CA        34.9860  -16.9530   -0.2910 C.3   201  ARG201      0.1597
    130  C         36.4430  -17.0300    0.1440 C.2   201  ARG201      0.2287
    131  O         36.7400  -16.9980    1.3460 O.2   201  ARG201     -0.2864
    132  CB        34.2980  -18.3280   -0.3280 C.3   201  ARG201      0.0334
    133  CG        32.7910  -18.2000   -0.4900 C.3   201  ARG201      0.0492
    134  CD        32.0950  -19.5410   -0.5610 C.3   201  ARG201      0.2205
    135  NE        32.2450  -20.2690    0.6980 N.pl3 201  ARG201     -0.0865
    136  CZ        31.4330  -20.1190    1.7400 C.cat 201  ARG201      0.5346
    137  NH1       31.6470  -20.8170    2.8480 N.pl3 201  ARG201      0.1354
    138  NH2       30.4180  -19.2740    1.6880 N.pl3 201  ARG201      0.1354
    139  N         31.2950  -12.9830    0.5750 N.3   206  ALA206     -0.1245
    140  CA        30.1550  -13.8310    0.2240 C.3   206  ALA206      0.1562
    141  C         29.8390  -14.8650    1.2900 C.2   206  ALA206      0.2260
    142  O         29.3690  -15.9660    0.9750 O.2   206  ALA206     -0.2867
    143  CB        30.3830  -14.5300   -1.1360 C.3   206  ALA206      0.0290
    144  N         26.3470  -16.5370    1.4720 N.3   209  GLY209     -0.1210
    145  CA        25.7890  -17.1940    0.3020 C.3   209  GLY209      0.1956
    146  C         25.6490  -18.6850    0.5080 C.2   209  GLY209      0.2613
    147  O         26.4630  -19.3090    1.1920 O.2   209  GLY209     -0.2717
    148  N         24.5970  -19.2500   -0.0870 N.am  210  SER210     -0.1938
    149  CA        24.3310  -20.6850   -0.0010 C.3   210  SER210      0.2055
    150  C         23.4400  -21.0580   -1.1770 C.2   210  SER210      0.2642
    151  O         22.9410  -20.1810   -1.8600 O.2   210  SER210     -0.2714
    152  CB        23.6130  -21.0150    1.3020 C.3   210  SER210      0.2130
    153  OG        22.2710  -20.5460    1.2510 O.3   210  SER210     -0.2179
    154  N         23.2390  -22.3540   -1.4240 N.am  211  VAL211     -0.1977
    155  CA        22.2980  -22.7480   -2.4770 C.3   211  VAL211      0.1596
    156  C         20.8610  -22.4410   -2.0740 C.2   211  VAL211      0.2287
    157  O         19.9490  -22.4970   -2.9060 O.2   211  VAL211     -0.2864
    158  CB        22.4200  -24.2380   -2.8950 C.3   211  VAL211      0.0276
    159  CG1       23.7560  -24.4830   -3.5460 C.3   211  VAL211      0.0022
    160  CG2       22.2050  -25.1630   -1.7040 C.3   211  VAL211      0.0022
    161  N         20.8400  -18.6170   -3.5400 N.3   214  ALA214     -0.1245
    162  CA        21.4160  -18.2450   -4.8260 C.3   214  ALA214      0.1562
    163  C         21.4060  -19.4560   -5.7260 C.2   214  ALA214      0.2260
    164  O         21.5240  -20.5810   -5.2460 O.2   214  ALA214     -0.2867
    165  CB        22.8300  -17.7900   -4.6400 C.3   214  ALA214      0.0290
    166  N         23.6490  -21.3570   -8.1230 N.3   216  VAL216     -0.1245
    167  CA        25.0650  -21.4250   -8.4030 C.3   216  VAL216      0.1561
    168  C         25.2860  -22.3600   -9.5720 C.2   216  VAL216      0.2260
    169  O         24.7710  -23.4730   -9.5810 O.2   216  VAL216     -0.2867
    170  CB        25.8240  -21.9790   -7.2100 C.3   216  VAL216      0.0252
    171  CG1       27.3260  -21.9140   -7.4690 C.3   216  VAL216      0.0019
    172  CG2       25.4540  -21.1930   -5.9510 C.3   216  VAL216      0.0019
    173  N         24.0280  -26.1700   -9.9950 N.3   223  LEU223     -0.1245
    174  CA        24.3090  -26.9860   -8.8130 C.3   223  LEU223      0.1561
    175  C         23.0770  -27.2400   -7.9380 C.2   223  LEU223      0.2260
    176  O         22.9740  -28.2970   -7.2970 O.2   223  LEU223     -0.2867
    177  CB        25.3930  -26.3270   -7.9670 C.3   223  LEU223      0.0270
    178  CG        26.7330  -26.1090   -8.6570 C.3   223  LEU223      0.0019
    179  CD1       27.7120  -25.4610   -7.6910 C.3   223  LEU223      0.0001
    180  CD2       27.2880  -27.4150   -9.1980 C.3   223  LEU223      0.0001
    181  N         16.3120  -12.4860  -13.3490 N.3   237  HIS237     -0.1226
    182  CA        16.9290  -11.8470  -12.2050 C.3   237  HIS237      0.1752
    183  C         17.6190  -10.5510  -12.6190 C.2   237  HIS237      0.2595
    184  O         17.6000   -9.5720  -11.8810 O.2   237  HIS237     -0.2718
    185  CB        17.9270  -12.7340  -11.4690 C.3   237  HIS237      0.0759
    186  CG        18.4360  -12.0630  -10.2430 C.ar  237  HIS237      0.0818
    187  ND1       17.7400  -12.0920   -9.0520 N.ar  237  HIS237     -0.2268
    188  CD2       19.5010  -11.2530  -10.0480 C.ar  237  HIS237      0.1154
    189  CE1       18.3680  -11.3370   -8.1670 C.ar  237  HIS237      0.1986
    190  NE2       19.4460  -10.8280   -8.7330 N.ar  237  HIS237     -0.2212
    191  N         18.2010  -10.5300  -13.8240 N.am  238  LYS238     -0.1980
    192  CA        18.8490   -9.3020  -14.2750 C.3   238  LYS238      0.1596
    193  C         17.8250   -8.1810  -14.4430 C.2   238  LYS238      0.2287
    194  O         18.1170   -7.0260  -14.1500 O.2   238  LYS238     -0.2864
    195  CB        19.6230   -9.5510  -15.5760 C.3   238  LYS238      0.0298
    196  CG        20.7660  -10.5460  -15.4090 C.3   238  LYS238      0.0038
    197  CD        21.9160  -10.0440  -14.5330 C.3   238  LYS238      0.0206
    198  CE        22.6850   -8.9340  -15.2010 C.3   238  LYS238      0.1093
    199  NZ        23.9170   -8.5570  -14.4380 N.3   238  LYS238     -0.1314
    200  N         17.0410   -6.9780  -11.0060 N.3   241  ASP241     -0.1239
    201  CA        18.1260   -6.1090  -10.5590 C.3   241  ASP241      0.1674
    202  C         17.9840   -4.7220  -11.1860 C.2   241  ASP241      0.2266
    203  O         18.1920   -3.6940  -10.5380 O.2   241  ASP241     -0.2867
    204  CB        19.5140   -6.6850  -10.9180 C.3   241  ASP241      0.1410
    205  CG        20.0260   -7.7110   -9.9030 C.2   241  ASP241      0.3668
    206  OD1       19.5180   -7.7480   -8.7860 O.co2 241  ASP241     -0.2456
    207  OD2       20.9520   -8.4920  -10.2020 O.co2 241  ASP241     -0.2456
    208  N         25.1250   -3.4420  -12.0930 N.3   264  HIS264     -0.1241
    209  CA        24.7110   -2.3190  -11.2610 C.3   264  HIS264      0.1621
    210  C         25.4830   -1.0440  -11.5130 C.2   264  HIS264      0.2264
    211  O         24.9360    0.0610  -11.3480 O.2   264  HIS264     -0.2867
    212  CB        24.8040   -2.7340   -9.7990 C.3   264  HIS264      0.0745
    213  CG        23.8290   -3.8060   -9.4520 C.ar  264  HIS264      0.0817
    214  ND1       22.4690   -3.6080   -9.5470 N.ar  264  HIS264     -0.2268
    215  CD2       24.0010   -5.0940   -9.0730 C.ar  264  HIS264      0.1154
    216  CE1       21.8430   -4.7210   -9.2110 C.ar  264  HIS264      0.1986
    217  NE2       22.7480   -5.6370   -8.9220 N.ar  264  HIS264     -0.2212
@<TRIPOS>BOND
     1    55    54    2
     2    54    53    1
     3    52    53    1
     4    53    56    1
     5    56    57    1
     6    57    59   ar
     7    57    58   ar
     8    59    61   ar
     9    58    60   ar
    10    61    62   ar
    11    60    62   ar
    12   195   196    1
    13   195   192    1
    14    95    93   ar
    15    95    94   ar
    16   196   197    1
    17    93    91   ar
    18   198   197    1
    19   198   199    1
    20    94    92   ar
    21   193   192    1
    22   193   194    2
    23    91    90   ar
    24   192   191    1
    25    80    79   ar
    26    80    78   ar
    27   191   183   am
    28    79    77   ar
    29    92    90   ar
    30    90    89    1
    31   181   182    1
    32    78    76   ar
    33    77    75   ar
    34   183   182    1
    35   183   184    2
    36    89    86    1
    37    76    75   ar
    38   182   185    1
    39   208   209    1
    40    75    74    1
    41   111   109   ar
    42   210   211    2
    43   210   209    1
    44   185   186    1
    45   110   109   ar
    46   209   212    1
    47   202   201    1
    48   202   203    2
    49    86    85    1
    50    86    87    1
    51   200   201    1
    52   109   108    1
    53   204   201    1
    54   204   205    1
    55    74    71    1
    56    85    83   am
    57   186   188   ar
    58   186   187   ar
    59   207   205   ar
    60    87    96   am
    61    87    88    2
    62   188   190   ar
    63    96    97    1
    64   173   174    1
    65    83    84    2
    66    83    82    1
    67   205   206   ar
    68   212   213    1
    69   169   168    2
    70   168   167    1
    71   108   105    1
    72   214   213   ar
    73   214   216   ar
    74   213   215   ar
    75    73    72    2
    76    71    72    1
    77    71    70    1
    78    72    81   am
    79   104   105    1
    80    82    81    1
    81   216   217   ar
    82   100    97    1
    83   100   101    1
    84   180   178    1
    85   215   217   ar
    86   187   189   ar
    87    70    65   am
    88    97    98    1
    89   105   106    1
    90   174   177    1
    91   174   175    1
    92    98    99    2
    93   190   189   ar
    94   178   177    1
    95   178   179    1
    96   167   166    1
    97   167   170    1
    98    19    20    1
    99   102   101    1
   100   102   103    1
   101    65    66    2
   102    65    64    1
   103    24    23    1
   104    24    25    1
   105    20    21    1
   106    20    23    1
   107   175   176    2
   108    64    63    1
   109    64    67    1
   110    22    21    2
   111   171   170    1
   112   106   112   am
   113   106   107    2
   114    21    27   am
   115   170   172    1
   116    68    67    1
   117    25    26    1
   118   112   113    1
   119    67    69    1
   120    27    28    1
   121   119   117    1
   122    37    38    1
   123    37    34    1
   124    38    39    1
   125    51    49   ar
   126    51    50   ar
   127   117   116    1
   128    30    29    2
   129    49    47   ar
   130    36    35    2
   131    29    28    1
   132   163   164    2
   133   163   162    1
   134    28    31    1
   135    41    39   ar
   136   113   116    1
   137   113   114    1
   138   116   118    1
   139    39    40   ar
   140    34    35    1
   141    34    33    1
   142    35    42   am
   143    50    48   ar
   144   162   165    1
   145   162   161    1
   146   114   115    2
   147   126   125    1
   148    47    48   ar
   149    47    46    1
   150    43    42    1
   151    43    46    1
   152    43    44    1
   153   125   127    1
   154   125   124    1
   155    31    32    1
   156    45    44    2
   157   120   121    1
   158   159   158    1
   159   124   121    1
   160   121   122    1
   161   157   156    2
   162   158   155    1
   163   158   160    1
   164   155   156    1
   165   155   154    1
   166     8     6    1
   167   151   150    2
   168    18    17   ar
   169    18    16   ar
   170   122   128   am
   171   122   123    2
   172   128   129    1
   173   154   150   am
   174    17    15   ar
   175   150   149    1
   176   143   140    1
   177     6     7    1
   178     6     5    1
   179    16    14   ar
   180   134   133    1
   181   134   135    1
   182   133   132    1
   183   132   129    1
   184   129   130    1
   185   148   149    1
   186   148   146   am
   187    15    14   ar
   188   149   152    1
   189   130   131    2
   190     5     2    1
   191   140   139    1
   192   140   141    1
   193   145   146    1
   194   145   144    1
   195    14    13    1
   196   146   147    2
   197   135   136    2
   198   142   141    2
   199   153   152    1
   200     2     3    1
   201     2     1    1
   202    13    10    1
   203   138   136    1
   204   136   137    1
   205     4     3    2
   206     3     9   am
   207     9    10    1
   208    10    11    1
   209    11    12    2
