@<TRIPOS>MOLECULE
tmp/4lcnA00.pdb
 119 115 0 0 0
SMALL
GASTEIGER

@<TRIPOS>ATOM
      1  N         21.8380   36.8520   51.5070 N.3    48  PHE48      -0.1241
      2  CA        23.2630   36.9950   51.0650 C.3    48  PHE48       0.1605
      3  C         23.5900   38.4650   50.9010 C.2    48  PHE48       0.2264
      4  O         22.7340   39.2840   50.4510 O.2    48  PHE48      -0.2867
      5  CB        23.4640   36.3190   49.6960 C.3    48  PHE48       0.0534
      6  CG        23.1680   34.8530   49.6820 C.ar   48  PHE48      -0.0203
      7  CD1       24.0780   33.9430   50.1690 C.ar   48  PHE48      -0.0042
      8  CD2       21.9470   34.3940   49.2250 C.ar   48  PHE48      -0.0042
      9  CE1       23.7800   32.5910   50.1650 C.ar   48  PHE48      -0.0003
     10  CE2       21.6240   33.0350   49.2320 C.ar   48  PHE48      -0.0003
     11  CZ        22.5500   32.1350   49.6750 C.ar   48  PHE48      -0.0000
     12  N         21.5170   40.1260   47.6610 N.3    66  ASN66      -0.1240
     13  CA        20.7260   39.3670   46.7250 C.3    66  ASN66       0.1653
     14  C         19.3350   40.0010   46.5160 C.2    66  ASN66       0.2266
     15  O         18.5560   40.1330   47.4710 O.2    66  ASN66      -0.2867
     16  CB        20.6330   37.9200   47.2360 C.3    66  ASN66       0.1155
     17  CG        19.7910   37.0300   46.3080 C.2    66  ASN66       0.2627
     18  OD1       18.6000   37.2870   46.1070 O.2    66  ASN66      -0.2716
     19  ND2       20.4030   36.0040   45.7350 N.am   66  ASN66      -0.0877
     20  N         17.4270   38.8730   43.7500 N.3    68  VAL68      -0.1245
     21  CA        16.9690   38.0410   42.6130 C.3    68  VAL68       0.1561
     22  C         15.4360   38.1230   42.4940 C.2    68  VAL68       0.2260
     23  O         14.8910   38.4350   41.4240 O.2    68  VAL68      -0.2867
     24  CB        17.5110   36.6150   42.7410 C.3    68  VAL68       0.0252
     25  CG1       16.8270   35.6110   41.8070 C.3    68  VAL68       0.0019
     26  CG2       19.0300   36.6090   42.4920 C.3    68  VAL68       0.0019
     27  N         22.7980   38.5700   42.2180 N.3    77  HIS77      -0.1226
     28  CA        23.4570   38.0430   43.4320 C.3    77  HIS77       0.1752
     29  C         24.1800   39.1350   44.1320 C.2    77  HIS77       0.2596
     30  O         24.4610   40.1790   43.5540 O.2    77  HIS77      -0.2718
     31  CB        24.3920   36.8670   43.1040 C.3    77  HIS77       0.0759
     32  CG        23.6630   35.6300   42.7130 C.ar   77  HIS77       0.0818
     33  ND1       24.2360   34.4080   42.7160 N.ar   77  HIS77      -0.2268
     34  CD2       22.3430   35.4440   42.3170 C.ar   77  HIS77       0.1154
     35  CE1       23.3740   33.5110   42.2790 C.ar   77  HIS77       0.1986
     36  NE2       22.1710   34.1370   42.1080 N.ar   77  HIS77      -0.2212
     37  N         24.3940   38.9500   45.4400 N.am   78  ALA78      -0.1966
     38  CA        25.0680   40.0060   46.2420 C.3    78  ALA78       0.1728
     39  C         26.3390   40.5330   45.5780 C.2    78  ALA78       0.2616
     40  O         26.6100   41.7720   45.5960 O.2    78  ALA78      -0.2715
     41  CB        25.4070   39.4910   47.6420 C.3    78  ALA78       0.0334
     42  N         27.1550   39.5730   45.1260 N.am   79  GLU79      -0.1977
     43  CA        28.5290   39.8090   44.6340 C.3    79  GLU79       0.1602
     44  C         28.4880   40.6520   43.3430 C.2    79  GLU79       0.2287
     45  O         29.2550   41.6350   43.1730 O.2    79  GLU79      -0.2864
     46  CB        29.2810   38.5300   44.3550 C.3    79  GLU79       0.0415
     47  CG        29.4990   37.5750   45.5190 C.3    79  GLU79       0.1163
     48  CD        28.3650   36.5790   45.6540 C.2    79  GLU79       0.3649
     49  OE1       27.1740   36.9610   45.7190 O.co2  79  GLU79      -0.2457
     50  OE2       28.6640   35.3450   45.5830 O.co2  79  GLU79      -0.2457
     51  N         32.2650   38.7340   51.4260 N.3   107  THR107     -0.1218
     52  CA        30.9540   38.1640   51.0300 C.3   107  THR107      0.1862
     53  C         30.4020   37.1690   52.0910 C.2   107  THR107      0.2287
     54  O         31.1640   36.4910   52.8010 O.2   107  THR107     -0.2866
     55  CB        31.0500   37.5600   49.6430 C.3   107  THR107      0.1770
     56  OG1       29.7580   37.0690   49.2190 O.3   107  THR107     -0.2211
     57  CG2       32.1840   36.4470   49.6040 C.3   107  THR107      0.0375
     58  N         28.8680   34.4500   51.9170 N.3   109  ALA109     -0.1231
     59  CA        28.9720   33.0070   51.6030 C.3   109  ALA109      0.1694
     60  C         29.9250   32.8220   50.4440 C.2   109  ALA109      0.2592
     61  O         30.1010   33.7460   49.6660 O.2   109  ALA109     -0.2718
     62  CB        27.6140   32.4510   51.2080 C.3   109  ALA109      0.0304
     63  N         30.4550   31.6030   50.2800 N.am  110  GLU110     -0.1966
     64  CA        31.3020   31.3110   49.1150 C.3   110  GLU110      0.1718
     65  C         30.5090   31.5380   47.8330 C.2   110  GLU110      0.2458
     66  O         29.2930   31.2880   47.7410 O.2   110  GLU110     -0.2730
     67  CB        31.7810   29.8570   49.2080 C.3   110  GLU110      0.0428
     68  CG        32.8610   29.7500   50.2990 C.3   110  GLU110      0.1163
     69  CD        33.3420   28.3450   50.5380 C.2   110  GLU110      0.3649
     70  OE1       32.8000   27.3860   49.9200 O.co2 110  GLU110     -0.2457
     71  OE2       34.1600   28.2080   51.4740 O.co2 110  GLU110     -0.2457
     72  N         31.1810   32.0670   46.7910 N.am  111  PRO111     -0.2716
     73  CA        30.4250   32.4030   45.5420 C.3   111  PRO111      0.1536
     74  C         29.9120   31.1940   44.7700 C.2   111  PRO111      0.2598
     75  O         30.5840   30.1730   44.7010 O.2   111  PRO111     -0.2715
     76  CB        31.4990   33.1420   44.7150 C.3   111  PRO111      0.0310
     77  CG        32.8340   32.4340   45.1750 C.3   111  PRO111      0.0237
     78  CD        32.6390   32.3630   46.6870 C.3   111  PRO111      0.0939
     79  N         28.7370   31.3030   44.1490 N.am  112  CYS112     -0.1968
     80  CA        28.3290   30.3060   43.1500 C.3   112  CYS112      0.1712
     81  C         29.1980   30.5170   41.8790 C.2   112  CYS112      0.2296
     82  O         29.9980   31.4920   41.7750 O.2   112  CYS112     -0.2864
     83  CB        26.8690   30.5420   42.7730 C.3   112  CYS112      0.0983
     84  SG        26.6320   31.9770   41.6560 S.3   112  CYS112     -0.0798
     85  N         25.4950   26.5530   52.5120 N.3   136  VAL136     -0.1245
     86  CA        24.4050   27.1570   51.7860 C.3   136  VAL136      0.1561
     87  C         23.6150   26.0240   51.1430 C.2   136  VAL136      0.2260
     88  O         22.3780   26.0920   51.0030 O.2   136  VAL136     -0.2867
     89  CB        24.9070   28.1900   50.7680 C.3   136  VAL136      0.0252
     90  CG1       25.5510   29.3910   51.4510 C.3   136  VAL136      0.0019
     91  CG2       25.8700   27.5440   49.8070 C.3   136  VAL136      0.0019
     92  N         20.1460   25.6760   48.8320 N.3   141  PHE141     -0.1227
     93  CA        20.6500   26.3400   47.6860 C.3   141  PHE141      0.1736
     94  C         21.7220   25.4460   47.0800 C.2   141  PHE141      0.2595
     95  O         22.0050   24.3580   47.5580 O.2   141  PHE141     -0.2718
     96  CB        21.2590   27.6440   48.0890 C.3   141  PHE141      0.0547
     97  CG        20.2760   28.7080   48.5120 C.ar  141  PHE141     -0.0202
     98  CD1       19.5970   29.4780   47.5570 C.ar  141  PHE141     -0.0042
     99  CD2       20.1200   29.0230   49.8590 C.ar  141  PHE141     -0.0042
    100  CE1       18.7560   30.5190   47.9360 C.ar  141  PHE141     -0.0003
    101  CE2       19.2710   30.0550   50.2380 C.ar  141  PHE141     -0.0003
    102  CZ        18.5790   30.7880   49.2920 C.ar  141  PHE141     -0.0000
    103  N         22.3230   25.9440   46.0210 N.am  142  ASP142     -0.1960
    104  CA        23.1960   25.1610   45.1470 C.3   142  ASP142      0.1840
    105  C         24.1850   26.1720   44.5250 C.2   142  ASP142      0.2621
    106  O         23.7950   27.2150   44.0070 O.2   142  ASP142     -0.2715
    107  CB        22.3260   24.4420   44.1180 C.3   142  ASP142      0.1450
    108  CG        23.0870   23.9890   42.8260 C.2   142  ASP142      0.3671
    109  OD1       24.3470   23.7740   42.7810 O.co2 142  ASP142     -0.2456
    110  OD2       22.3390   23.8040   41.8330 O.co2 142  ASP142     -0.2456
    111  N         25.4670   25.8830   44.6690 N.am  143  GLU143     -0.1977
    112  CA        26.5530   26.7470   44.1590 C.3   143  GLU143      0.1602
    113  C         26.8290   26.5750   42.6820 C.2   143  GLU143      0.2287
    114  O         27.6460   27.3460   42.0810 O.2   143  GLU143     -0.2864
    115  CB        27.8350   26.4470   44.9490 C.3   143  GLU143      0.0415
    116  CG        27.6930   26.7260   46.4490 C.3   143  GLU143      0.1163
    117  CD        27.8480   28.1980   46.7860 C.2   143  GLU143      0.3649
    118  OE1       27.2120   29.0590   46.1040 O.co2 143  GLU143     -0.2457
    119  OE2       28.5940   28.4910   47.7670 O.co2 143  GLU143     -0.2457
@<TRIPOS>BOND
     1    23    22    2
     2    84    83    1
     3    82    81    2
     4    25    24    1
     5   110   108   ar
     6    81    80    1
     7   114   113    2
     8    36    35   ar
     9    36    34   ar
    10    27    28    1
    11    35    33   ar
    12    34    32   ar
    13    26    24    1
    14    22    21    1
    15    21    24    1
    16    21    20    1
    17   113   112    1
    18    32    33   ar
    19    32    31    1
    20    83    80    1
    21   109   108   ar
    22   108   107    1
    23    31    28    1
    24    80    79    1
    25    45    44    2
    26    44    43    1
    27    28    29    1
    28    30    29    2
    29   106   105    2
    30   107   104    1
    31    29    37   am
    32    79    74   am
    33   112   111    1
    34   112   115    1
    35    46    43    1
    36    46    47    1
    37   105   111   am
    38   105   104    1
    39    43    42    1
    40    75    74    2
    41    76    77    1
    42    76    73    1
    43    74    73    1
    44   115   116    1
    45    42    39   am
    46   104   103    1
    47    77    78    1
    48    37    38    1
    49    47    48    1
    50    73    72    1
    51    39    40    2
    52    39    38    1
    53    50    48   ar
    54    48    49   ar
    55    19    17   am
    56   103    94   am
    57   118   117   ar
    58    18    17    2
    59    38    41    1
    60    17    16    1
    61   116   117    1
    62    14    13    1
    63    14    15    2
    64    78    72    1
    65    13    16    1
    66    13    12    1
    67   117   119   ar
    68    72    65   am
    69    94    95    2
    70    94    93    1
    71    98   100   ar
    72    98    97   ar
    73    93    96    1
    74    93    92    1
    75    66    65    2
    76    65    64    1
    77   100   102   ar
    78    96    97    1
    79    97    99   ar
    80    64    67    1
    81    64    63    1
    82    67    68    1
    83    56    55    1
    84     8    10   ar
    85     8     6   ar
    86    10    11   ar
    87   102   101   ar
    88    57    55    1
    89    55    52    1
    90    61    60    2
    91    11     9   ar
    92     6     5    1
    93     6     7   ar
    94     5     2    1
    95    91    89    1
    96    99   101   ar
    97    70    69   ar
    98     9     7   ar
    99    63    60   am
   100    68    69    1
   101    60    59    1
   102     4     3    2
   103    69    71   ar
   104    89    90    1
   105    89    86    1
   106     3     2    1
   107    88    87    2
   108    52    51    1
   109    52    53    1
   110     2     1    1
   111    87    86    1
   112    62    59    1
   113    59    58    1
   114    86    85    1
   115    53    54    2
