@<TRIPOS>MOLECULE
tmp/4lcoB00.pdb
 93 88 0 0 0
SMALL
GASTEIGER

@<TRIPOS>ATOM
      1  N         30.8210   40.7130   21.3420 N.3    50  PHE50      -0.1241
      2  CA        29.9000   39.7000   21.8120 C.3    50  PHE50       0.1605
      3  C         28.5010   40.2490   21.9370 C.2    50  PHE50       0.2264
      4  O         28.2850   41.4400   22.2470 O.2    50  PHE50      -0.2867
      5  CB        30.4110   39.1150   23.1140 C.3    50  PHE50       0.0534
      6  CG        31.8370   38.6600   23.0160 C.ar   50  PHE50      -0.0203
      7  CD1       32.1390   37.4000   22.5120 C.ar   50  PHE50      -0.0042
      8  CD2       32.8910   39.5300   23.3610 C.ar   50  PHE50      -0.0042
      9  CE1       33.4550   36.9990   22.3740 C.ar   50  PHE50      -0.0003
     10  CE2       34.2070   39.1190   23.2420 C.ar   50  PHE50      -0.0003
     11  CZ        34.4880   37.8520   22.7440 C.ar   50  PHE50      -0.0000
     12  N         28.0850   42.9070   25.0410 N.3    68  ASN68      -0.1240
     13  CA        29.0490   43.4130   25.9840 C.3    68  ASN68       0.1653
     14  C         29.0370   44.9360   26.1770 C.2    68  ASN68       0.2266
     15  O         29.1500   45.7180   25.2120 O.2    68  ASN68      -0.2867
     16  CB        30.4040   42.9700   25.5590 C.3    68  ASN68       0.1155
     17  CG        30.8040   41.6710   26.2120 C.2    68  ASN68       0.2627
     18  OD1       29.9950   40.7050   26.3570 O.2    68  ASN68      -0.2716
     19  ND2       32.0630   41.6370   26.6420 N.am   68  ASN68      -0.0877
     20  N         28.6690   41.1490   30.5120 N.3    79  HIS79      -0.1241
     21  CA        28.7570   40.2620   29.3590 C.3    79  HIS79       0.1621
     22  C         27.4190   40.1160   28.6800 C.2    79  HIS79       0.2264
     23  O         26.3810   40.2660   29.2980 O.2    79  HIS79      -0.2867
     24  CB        29.3120   38.9130   29.7630 C.3    79  HIS79       0.0745
     25  CG        30.7570   38.9600   30.1710 C.ar   79  HIS79       0.0817
     26  ND1       31.4890   37.8400   30.4090 N.ar   79  HIS79      -0.2268
     27  CD2       31.5990   40.0350   30.4040 C.ar   79  HIS79       0.1154
     28  CE1       32.7270   38.1880   30.7870 C.ar   79  HIS79       0.1986
     29  NE2       32.7970   39.5340   30.7860 N.ar   79  HIS79      -0.2212
     30  N         25.7080   37.6680   27.7090 N.3    81  GLU81      -0.1245
     31  CA        24.8500   36.6420   28.3430 C.3    81  GLU81       0.1567
     32  C         24.0070   37.1330   29.5530 C.2    81  GLU81       0.2260
     33  O         22.7810   36.8430   29.6570 O.2    81  GLU81      -0.2867
     34  CB        25.6920   35.4440   28.7710 C.3    81  GLU81       0.0388
     35  CG        26.4000   34.7510   27.6530 C.3    81  GLU81       0.1160
     36  CD        27.7650   35.3370   27.3630 C.2    81  GLU81       0.3649
     37  OE1       28.7110   34.5350   27.1930 O.co2  81  GLU81      -0.2457
     38  OE2       27.9090   36.5670   27.2870 O.co2  81  GLU81      -0.2457
     39  N         29.3550   33.6820   21.0030 N.3   111  ALA111     -0.1231
     40  CA        30.5230   32.8780   21.3970 C.3   111  ALA111      0.1694
     41  C         30.1630   32.0250   22.6310 C.2   111  ALA111      0.2591
     42  O         29.2550   32.3990   23.4160 O.2   111  ALA111     -0.2718
     43  CB        31.7140   33.7850   21.7060 C.3   111  ALA111      0.0304
     44  N         30.8590   30.8910   22.7940 N.am  112  GLU112     -0.1979
     45  CA        30.7650   30.0650   24.0070 C.3   112  GLU112      0.1602
     46  C         30.9950   30.8730   25.2830 C.2   112  GLU112      0.2287
     47  O         31.7520   31.8400   25.2740 O.2   112  GLU112     -0.2864
     48  CB        31.7470   28.8930   23.9490 C.3   112  GLU112      0.0415
     49  CG        31.2550   27.7340   23.1020 C.3   112  GLU112      0.1163
     50  CD        32.3000   26.6590   22.8500 C.2   112  GLU112      0.3649
     51  OE1       33.3390   26.6050   23.5440 O.co2 112  GLU112     -0.2457
     52  OE2       32.0760   25.8550   21.9260 O.co2 112  GLU112     -0.2457
     53  N         32.0450   32.2170   29.0800 N.3   114  CYS114     -0.1235
     54  CA        33.0670   32.2570   30.1320 C.3   114  CYS114      0.1677
     55  C         32.4990   31.6640   31.4080 C.2   114  CYS114      0.2270
     56  O         31.2790   31.5800   31.5640 O.2   114  CYS114     -0.2867
     57  CB        33.4460   33.7090   30.4180 C.3   114  CYS114      0.0956
     58  SG        32.1960   34.6210   31.3840 S.3   114  CYS114     -0.0801
     59  N         37.5110   32.4470   20.8030 N.3   138  VAL138     -0.1245
     60  CA        37.4430   33.5130   21.7820 C.3   138  VAL138      0.1561
     61  C         38.8060   33.8010   22.3990 C.2   138  VAL138      0.2260
     62  O         39.2070   34.9710   22.4860 O.2   138  VAL138     -0.2867
     63  CB        36.3800   33.2640   22.8700 C.3   138  VAL138      0.0252
     64  CG1       36.4830   34.3020   23.9670 C.3   138  VAL138      0.0019
     65  CG2       34.9970   33.3240   22.2690 C.3   138  VAL138      0.0019
     66  N         40.3200   37.4450   24.5190 N.3   143  PHE143     -0.1227
     67  CA        39.3690   37.3470   25.6320 C.3   143  PHE143      0.1736
     68  C         39.5100   36.0410   26.4200 C.2   143  PHE143      0.2595
     69  O         39.6570   34.9800   25.8320 O.2   143  PHE143     -0.2718
     70  CB        37.9250   37.5560   25.1440 C.3   143  PHE143      0.0547
     71  CG        37.6570   38.9400   24.6140 C.ar  143  PHE143     -0.0202
     72  CD1       37.2390   39.9590   25.4640 C.ar  143  PHE143     -0.0042
     73  CD2       37.8340   39.2330   23.2730 C.ar  143  PHE143     -0.0042
     74  CE1       37.0030   41.2450   24.9840 C.ar  143  PHE143     -0.0003
     75  CE2       37.6050   40.5190   22.7820 C.ar  143  PHE143     -0.0003
     76  CZ        37.1910   41.5260   23.6380 C.ar  143  PHE143     -0.0000
     77  N         39.4890   36.1340   27.7520 N.am  144  ASP144     -0.1960
     78  CA        39.7100   34.9710   28.6290 C.3   144  ASP144      0.1840
     79  C         38.3640   34.2920   29.0130 C.2   144  ASP144      0.2621
     80  O         37.4350   34.9640   29.4810 O.2   144  ASP144     -0.2715
     81  CB        40.5470   35.4040   29.8610 C.3   144  ASP144      0.1450
     82  CG        40.8720   34.2400   30.8240 C.2   144  ASP144      0.3671
     83  OD1       40.6270   33.0460   30.4880 O.co2 144  ASP144     -0.2456
     84  OD2       41.3940   34.5340   31.9390 O.co2 144  ASP144     -0.2456
     85  N         38.2420   32.9810   28.7870 N.am  145  GLU145     -0.1977
     86  CA        37.0270   32.2600   29.2090 C.3   145  GLU145      0.1602
     87  C         37.0690   31.9170   30.6820 C.2   145  GLU145      0.2287
     88  O         36.0430   31.6170   31.2800 O.2   145  GLU145     -0.2864
     89  CB        36.7150   31.0010   28.3680 C.3   145  GLU145      0.0415
     90  CG        36.3010   31.2670   26.9140 C.3   145  GLU145      0.1163
     91  CD        34.9100   31.8880   26.6970 C.2   145  GLU145      0.3649
     92  OE1       34.4430   32.7560   27.4520 O.co2 145  GLU145     -0.2457
     93  OE2       34.2760   31.5270   25.7050 O.co2 145  GLU145     -0.2457
@<TRIPOS>BOND
     1    59    60    1
     2    39    40    1
     3     1     2    1
     4    40    43    1
     5    40    41    1
     6    60    61    1
     7    60    63    1
     8     2     3    1
     9     2     5    1
    10    52    50   ar
    11     3     4    2
    12    65    63    1
    13     9     7   ar
    14     9    11   ar
    15    61    62    2
    16     7     6   ar
    17    41    44   am
    18    41    42    2
    19    11    10   ar
    20    75    73   ar
    21    75    76   ar
    22    44    45    1
    23    50    49    1
    24    50    51   ar
    25    63    64    1
    26     6     5    1
    27     6     8   ar
    28    49    48    1
    29    10     8   ar
    30    73    71   ar
    31    76    74   ar
    32    48    45    1
    33    45    46    1
    34    66    67    1
    35    71    70    1
    36    71    72   ar
    37    74    72   ar
    38    12    13    1
    39    70    67    1
    40    15    14    2
    41    47    46    2
    42    16    13    1
    43    16    17    1
    44    67    68    1
    45    93    91   ar
    46    69    68    2
    47    13    14    1
    48    17    18    2
    49    17    19   am
    50    68    77   am
    51    91    90    1
    52    91    92   ar
    53    90    89    1
    54    37    36   ar
    55    38    36   ar
    56    36    35    1
    57    35    34    1
    58    30    31    1
    59    77    78    1
    60    31    34    1
    61    31    32    1
    62    89    86    1
    63    78    79    1
    64    78    81    1
    65    22    23    2
    66    22    21    1
    67    85    79   am
    68    85    86    1
    69    79    80    2
    70    53    54    1
    71    86    87    1
    72    21    24    1
    73    21    20    1
    74    32    33    2
    75    24    25    1
    76    81    82    1
    77    54    57    1
    78    54    55    1
    79    25    27   ar
    80    25    26   ar
    81    27    29   ar
    82    26    28   ar
    83    57    58    1
    84    83    82   ar
    85    87    88    2
    86    29    28   ar
    87    82    84   ar
    88    55    56    2
