@<TRIPOS>MOLECULE
tmp/4lcpA00.pdb
 100 94 0 0 0
SMALL
GASTEIGER

@<TRIPOS>ATOM
      1  N         21.9960   37.2900   52.0460 N.3    48  PHE48      -0.1241
      2  CA        23.3510   37.4190   51.4800 C.3    48  PHE48       0.1605
      3  C         23.6270   38.8840   51.2720 C.2    48  PHE48       0.2264
      4  O         22.7250   39.6480   50.8810 O.2    48  PHE48      -0.2867
      5  CB        23.4420   36.6900   50.1100 C.3    48  PHE48       0.0534
      6  CG        23.2230   35.2450   50.2140 C.ar   48  PHE48      -0.0203
      7  CD1       24.2260   34.4200   50.7480 C.ar   48  PHE48      -0.0042
      8  CD2       22.0230   34.6730   49.7860 C.ar   48  PHE48      -0.0042
      9  CE1       24.0120   33.0250   50.8420 C.ar   48  PHE48      -0.0003
     10  CE2       21.8280   33.2880   49.8770 C.ar   48  PHE48      -0.0003
     11  CZ        22.7900   32.4900   50.4380 C.ar   48  PHE48      -0.0000
     12  N         21.4670   40.5780   48.1460 N.3    66  ASN66      -0.1240
     13  CA        20.7470   39.7950   47.1460 C.3    66  ASN66       0.1653
     14  C         19.3530   40.4070   46.8740 C.2    66  ASN66       0.2266
     15  O         18.5200   40.5350   47.7910 O.2    66  ASN66      -0.2867
     16  CB        20.7900   38.3710   47.5410 C.3    66  ASN66       0.1155
     17  CG        19.9460   37.2350   46.9730 C.2    66  ASN66       0.2627
     18  OD1       18.8120   37.4220   46.5810 O.2    66  ASN66      -0.2716
     19  ND2       20.5110   36.0520   46.9360 N.am   66  ASN66      -0.0877
     20  N         17.5280   39.3290   44.0910 N.3    68  VAL68      -0.1245
     21  CA        17.0140   38.4250   43.0340 C.3    68  VAL68       0.1561
     22  C         15.4730   38.5330   42.9010 C.2    68  VAL68       0.2260
     23  O         14.9620   38.8880   41.8060 O.2    68  VAL68      -0.2867
     24  CB        17.5050   36.9760   43.3020 C.3    68  VAL68       0.0252
     25  CG1       16.8240   35.9110   42.4240 C.3    68  VAL68       0.0019
     26  CG2       18.9990   36.9550   43.1510 C.3    68  VAL68       0.0019
     27  N         22.8540   38.8960   42.6560 N.3    77  HIS77      -0.1241
     28  CA        23.4680   38.3890   43.8780 C.3    77  HIS77       0.1621
     29  C         24.1840   39.5240   44.5630 C.2    77  HIS77       0.2264
     30  O         24.4890   40.5070   43.9410 O.2    77  HIS77      -0.2867
     31  CB        24.4510   37.2880   43.5670 C.3    77  HIS77       0.0745
     32  CG        23.7940   35.9980   43.1960 C.ar   77  HIS77       0.0817
     33  ND1       24.4440   34.8080   43.2520 N.ar   77  HIS77      -0.2268
     34  CD2       22.4830   35.7180   42.7490 C.ar   77  HIS77       0.1154
     35  CE1       23.5920   33.8160   42.8620 C.ar   77  HIS77       0.1986
     36  NE2       22.3900   34.3800   42.5880 N.ar   77  HIS77      -0.2212
     37  N         27.1410   39.9390   45.6150 N.3    79  GLU79      -0.1245
     38  CA        28.5080   40.1700   45.0800 C.3    79  GLU79       0.1567
     39  C         28.4740   41.0200   43.7990 C.2    79  GLU79       0.2260
     40  O         29.3120   41.9220   43.6030 O.2    79  GLU79      -0.2867
     41  CB        29.1850   38.8180   44.7650 C.3    79  GLU79       0.0388
     42  CG        29.3640   37.9210   45.9600 C.3    79  GLU79       0.1160
     43  CD        28.2430   36.9150   46.0780 C.2    79  GLU79       0.3649
     44  OE1       27.0460   37.3280   46.1110 O.co2  79  GLU79      -0.2457
     45  OE2       28.5680   35.6980   46.1970 O.co2  79  GLU79      -0.2457
     46  N         29.0400   35.0350   52.5310 N.3   109  ALA109     -0.1231
     47  CA        29.1090   33.5860   52.1240 C.3   109  ALA109      0.1694
     48  C         30.0590   33.3670   50.9010 C.2   109  ALA109      0.2591
     49  O         30.1840   34.2340   50.0320 O.2   109  ALA109     -0.2718
     50  CB        27.6940   33.0720   51.7720 C.3   109  ALA109      0.0304
     51  N         30.6380   32.1680   50.7840 N.am  110  GLU110     -0.1979
     52  CA        31.4440   31.8010   49.6000 C.3   110  GLU110      0.1602
     53  C         30.6460   31.9600   48.2930 C.2   110  GLU110      0.2287
     54  O         29.4490   31.6810   48.2610 O.2   110  GLU110     -0.2864
     55  CB        31.9670   30.3660   49.7630 C.3   110  GLU110      0.0415
     56  CG        33.0340   30.3620   50.9240 C.3   110  GLU110      0.1163
     57  CD        33.6200   28.9690   51.1490 C.2   110  GLU110      0.3649
     58  OE1       33.1010   27.9990   50.4900 O.co2 110  GLU110     -0.2457
     59  OE2       34.5430   28.8370   52.0090 O.co2 110  GLU110     -0.2457
     60  N         28.9470   31.8630   44.5850 N.3   112  CYS112     -0.1235
     61  CA        28.4510   30.7950   43.6580 C.3   112  CYS112      0.1677
     62  C         29.3390   30.8540   42.4020 C.2   112  CYS112      0.2270
     63  O         30.1790   31.7900   42.2720 O.2   112  CYS112     -0.2867
     64  CB        26.9580   31.0730   43.3420 C.3   112  CYS112      0.0956
     65  SG        26.7650   32.4520   42.1160 S.3   112  CYS112     -0.0801
     66  N         25.7470   27.1490   53.0730 N.3   136  VAL136     -0.1245
     67  CA        24.8120   27.6940   52.1160 C.3   136  VAL136      0.1561
     68  C         23.9050   26.5790   51.5720 C.2   136  VAL136      0.2260
     69  O         22.6500   26.6890   51.5690 O.2   136  VAL136     -0.2867
     70  CB        25.6400   28.4300   51.0380 C.3   136  VAL136      0.0252
     71  CG1       24.8080   28.7590   49.8350 C.3   136  VAL136      0.0019
     72  CG2       26.1910   29.7250   51.6740 C.3   136  VAL136      0.0019
     73  N         20.4250   26.5570   49.2120 N.3   141  PHE141     -0.1227
     74  CA        20.9550   27.3920   48.1450 C.3   141  PHE141      0.1736
     75  C         22.0470   26.5960   47.4690 C.2   141  PHE141      0.2595
     76  O         22.6570   25.7410   48.0540 O.2   141  PHE141     -0.2718
     77  CB        21.4130   28.7520   48.6260 C.3   141  PHE141      0.0547
     78  CG        20.2660   29.7050   48.9830 C.ar  141  PHE141     -0.0202
     79  CD1       19.5940   30.4440   47.9840 C.ar  141  PHE141     -0.0042
     80  CD2       19.8930   29.9040   50.3100 C.ar  141  PHE141     -0.0042
     81  CE1       18.5460   31.3190   48.3130 C.ar  141  PHE141     -0.0003
     82  CE2       18.8810   30.7850   50.6360 C.ar  141  PHE141     -0.0003
     83  CZ        18.1730   31.4730   49.6360 C.ar  141  PHE141     -0.0000
     84  N         22.2140   26.8310   46.1890 N.am  142  ASP142     -0.1960
     85  CA        23.0610   25.9670   45.3580 C.3   142  ASP142      0.1840
     86  C         24.2360   26.8370   44.9540 C.2   142  ASP142      0.2621
     87  O         24.0490   27.9610   44.4840 O.2   142  ASP142     -0.2715
     88  CB        22.2480   25.5690   44.1320 C.3   142  ASP142      0.1450
     89  CG        22.9800   24.6670   43.1690 C.2   142  ASP142      0.3671
     90  OD1       24.1930   24.2800   43.3090 O.co2 142  ASP142     -0.2456
     91  OD2       22.2700   24.3370   42.2020 O.co2 142  ASP142     -0.2456
     92  N         25.4380   26.3630   45.1710 N.am  143  GLU143     -0.1977
     93  CA        26.6030   27.1280   44.7460 C.3   143  GLU143      0.1602
     94  C         26.8580   26.9580   43.2360 C.2   143  GLU143      0.2287
     95  O         27.5640   27.7810   42.6320 O.2   143  GLU143     -0.2864
     96  CB        27.8110   26.7650   45.6100 C.3   143  GLU143      0.0415
     97  CG        27.5850   27.2390   47.0790 C.3   143  GLU143      0.1163
     98  CD        27.9170   28.7400   47.2900 C.2   143  GLU143      0.3649
     99  OE1       27.4260   29.6040   46.4900 O.co2 143  GLU143     -0.2457
    100  OE2       28.6970   29.0860   48.2450 O.co2 143  GLU143     -0.2457
@<TRIPOS>BOND
     1    23    22    2
     2    65    64    1
     3    91    89   ar
     4    63    62    2
     5    62    61    1
     6    25    24    1
     7    36    34   ar
     8    36    35   ar
     9    95    94    2
    10    27    28    1
    11    34    32   ar
    12    35    33   ar
    13    22    21    1
    14    21    24    1
    15    21    20    1
    16    26    24    1
    17    89    90   ar
    18    89    88    1
    19    32    33   ar
    20    32    31    1
    21    94    93    1
    22    64    61    1
    23    31    28    1
    24    40    39    2
    25    61    60    1
    26    39    38    1
    27    28    29    1
    28    30    29    2
    29    88    85    1
    30    87    86    2
    31    93    92    1
    32    93    96    1
    33    41    38    1
    34    41    42    1
    35    86    92   am
    36    86    85    1
    37    38    37    1
    38    85    84    1
    39    96    97    1
    40    42    43    1
    41    43    44   ar
    42    43    45   ar
    43    84    75   am
    44    99    98   ar
    45    18    17    2
    46    14    13    1
    47    14    15    2
    48    19    17   am
    49    17    16    1
    50    97    98    1
    51    13    16    1
    52    13    12    1
    53    98   100   ar
    54    75    76    2
    55    75    74    1
    56    79    81   ar
    57    79    78   ar
    58    74    77    1
    59    74    73    1
    60    54    53    2
    61    53    52    1
    62    81    83   ar
    63    77    78    1
    64    78    80   ar
    65    52    55    1
    66    52    51    1
    67    83    82   ar
    68    55    56    1
    69     8    10   ar
    70     8     6   ar
    71    71    70    1
    72    10    11   ar
    73    49    48    2
    74     5     6    1
    75     5     2    1
    76     6     7   ar
    77    80    82   ar
    78    11     9   ar
    79    58    57   ar
    80     7     9   ar
    81    51    48   am
    82     4     3    2
    83    48    47    1
    84    56    57    1
    85    70    72    1
    86    70    67    1
    87    57    59   ar
    88     3     2    1
    89     2     1    1
    90    69    68    2
    91    68    67    1
    92    50    47    1
    93    67    66    1
    94    47    46    1
