@<TRIPOS>MOLECULE
tmp/4lcrA00.pdb
 128 122 0 0 0
SMALL
GASTEIGER

@<TRIPOS>ATOM
      1  N          7.3930   24.2240   30.1230 N.3    60  HIS60      -0.1241
      2  CA         6.3310   23.6990   29.2290 C.3    60  HIS60       0.1621
      3  C          5.4200   24.8250   28.7090 C.2    60  HIS60       0.2264
      4  O          4.3780   25.1260   29.3140 O.2    60  HIS60      -0.2867
      5  CB         5.5020   22.6720   29.9930 C.3    60  HIS60       0.0745
      6  CG         4.6140   21.8110   29.1250 C.ar   60  HIS60       0.0817
      7  ND1        4.3020   20.5050   29.4530 N.ar   60  HIS60      -0.2268
      8  CD2        3.9390   22.0790   27.9450 C.ar   60  HIS60       0.1154
      9  CE1        3.5360   19.9860   28.4650 C.ar   60  HIS60       0.1986
     10  NE2        3.2840   20.9320   27.5930 N.ar   60  HIS60      -0.2212
     11  N          3.6870   26.7630   24.9090 N.3    62  HIS62      -0.1241
     12  CA         3.4420   26.7600   23.4710 C.3    62  HIS62       0.1621
     13  C          3.0770   28.1770   23.0400 C.2    62  HIS62       0.2264
     14  O          1.8950   28.4580   22.7830 O.2    62  HIS62      -0.2867
     15  CB         2.2300   25.8480   23.2080 C.3    62  HIS62       0.0745
     16  CG         2.4730   24.4260   23.6030 C.ar   62  HIS62       0.0817
     17  ND1        3.1890   23.5320   22.8290 N.ar   62  HIS62      -0.2268
     18  CD2        2.1290   23.7700   24.7590 C.ar   62  HIS62       0.1154
     19  CE1        3.2480   22.3530   23.4800 C.ar   62  HIS62       0.1986
     20  NE2        2.5830   22.5110   24.6570 N.ar   62  HIS62      -0.2212
     21  N          1.4030   29.1060   19.2200 N.3    65  LEU65      -0.1245
     22  CA         1.3900   27.8410   18.4640 C.3    65  LEU65       0.1561
     23  C          0.1910   27.8070   17.5070 C.2    65  LEU65       0.2260
     24  O         -0.9480   28.0350   17.9270 O.2    65  LEU65      -0.2867
     25  CB         1.2310   26.6710   19.4510 C.3    65  LEU65       0.0270
     26  CG         1.0870   25.2750   18.8050 C.3    65  LEU65       0.0019
     27  CD1        2.2460   24.9310   17.8580 C.3    65  LEU65       0.0001
     28  CD2        0.8860   24.1930   19.8900 C.3    65  LEU65       0.0001
     29  N         -2.3630   25.6450   16.0070 N.3    67  PHE67      -0.1241
     30  CA        -2.8890   24.3070   16.5230 C.3    67  PHE67       0.1605
     31  C         -4.4060   24.2530   16.2880 C.2    67  PHE67       0.2264
     32  O         -5.1360   25.2850   16.4470 O.2    67  PHE67      -0.2867
     33  CB        -2.5790   24.1250   18.0840 C.3    67  PHE67       0.0534
     34  CG        -2.8780   22.7380   18.6600 C.ar   67  PHE67      -0.0203
     35  CD1       -2.5800   21.5670   17.9370 C.ar   67  PHE67      -0.0042
     36  CD2       -3.4060   22.6030   19.9800 C.ar   67  PHE67      -0.0042
     37  CE1       -2.8350   20.2870   18.4800 C.ar   67  PHE67      -0.0003
     38  CE2       -3.6480   21.3220   20.4990 C.ar   67  PHE67      -0.0003
     39  CZ        -3.3610   20.1680   19.7560 C.ar   67  PHE67      -0.0000
     40  N          6.8990   22.3440   17.5320 N.3    96  MET96      -0.1245
     41  CA         5.8720   21.3400   17.1770 C.3    96  MET96       0.1570
     42  C          6.0450   20.9110   15.7280 C.2    96  MET96       0.2261
     43  O          5.2840   21.3230   14.8890 O.2    96  MET96      -0.2867
     44  CB         4.4270   21.8330   17.4020 C.3    96  MET96       0.0387
     45  CG         4.1220   21.9550   18.9150 C.3    96  MET96       0.0595
     46  SD         4.2770   20.3140   19.7610 S.3    96  MET96      -0.1393
     47  CE         3.0080   19.4930   18.8050 C.3    96  MET96       0.0692
     48  N          4.6430   11.8800   21.1230 N.3   153  PHE153     -0.1241
     49  CA         3.2160   11.7650   21.4020 C.3   153  PHE153      0.1605
     50  C          2.6850   10.3350   21.2960 C.2   153  PHE153      0.2264
     51  O          2.8340    9.6580   20.2630 O.2   153  PHE153     -0.2867
     52  CB         2.3990   12.7160   20.5000 C.3   153  PHE153      0.0534
     53  CG         2.6910   14.1640   20.7360 C.ar  153  PHE153     -0.0203
     54  CD1        1.8360   14.9230   21.5230 C.ar  153  PHE153     -0.0042
     55  CD2        3.7920   14.8090   20.1360 C.ar  153  PHE153     -0.0042
     56  CE1        2.0840   16.2790   21.7670 C.ar  153  PHE153     -0.0003
     57  CE2        4.0460   16.1820   20.3560 C.ar  153  PHE153     -0.0003
     58  CZ         3.2040   16.9310   21.1740 C.ar  153  PHE153     -0.0000
     59  N         -3.0870   11.9950   19.8750 N.3   156  TYR156     -0.1241
     60  CA        -3.1810   12.6910   18.5590 C.3   156  TYR156      0.1605
     61  C         -3.0160   11.6970   17.3980 C.2   156  TYR156      0.2264
     62  O         -2.1330   11.8450   16.5080 O.2   156  TYR156     -0.2867
     63  CB        -2.1640   13.8360   18.4680 C.3   156  TYR156      0.0534
     64  CG        -2.3960   14.9010   19.5390 C.ar  156  TYR156     -0.0201
     65  CD1       -3.4940   15.7940   19.4640 C.ar  156  TYR156     -0.0009
     66  CD2       -1.5160   15.0520   20.6040 C.ar  156  TYR156     -0.0009
     67  CE1       -3.6890   16.7880   20.4400 C.ar  156  TYR156      0.0417
     68  CE2       -1.7050   16.0310   21.5750 C.ar  156  TYR156      0.0417
     69  CZ        -2.7870   16.8820   21.4920 C.ar  156  TYR156      0.1957
     70  OH        -2.9250   17.8310   22.4510 O.3   156  TYR156     -0.2866
     71  N          3.9990   12.8430   25.6740 N.3   184  HIS184     -0.1241
     72  CA         2.5650   13.0940   25.9750 C.3   184  HIS184      0.1621
     73  C          1.9080   11.7200   26.1020 C.2   184  HIS184      0.2264
     74  O          1.7370   11.0300   25.0990 O.2   184  HIS184     -0.2867
     75  CB         1.9090   13.8820   24.8430 C.3   184  HIS184      0.0745
     76  CG         0.4070   14.1260   25.0690 C.ar  184  HIS184      0.0817
     77  ND1       -0.0950   15.3290   25.1290 N.ar  184  HIS184     -0.2268
     78  CD2       -0.6660   13.2540   25.3120 C.ar  184  HIS184      0.1154
     79  CE1       -1.4130   15.3070   25.3520 C.ar  184  HIS184      0.1986
     80  NE2       -1.7780   14.0290   25.4430 N.ar  184  HIS184     -0.2212
     81  N          3.0050   17.2820   31.5690 N.3   240  HIS240     -0.1241
     82  CA         1.6020   17.5260   32.0170 C.3   240  HIS240      0.1621
     83  C          0.9330   16.3000   32.6120 C.2   240  HIS240      0.2264
     84  O         -0.0160   15.7620   32.0870 O.2   240  HIS240     -0.2867
     85  CB         0.7180   18.2750   30.9580 C.3   240  HIS240      0.0745
     86  CG         0.6440   17.5550   29.6410 C.ar  240  HIS240      0.0817
     87  ND1        0.5970   16.2180   29.5330 N.ar  240  HIS240     -0.2268
     88  CD2        0.6060   18.0500   28.3540 C.ar  240  HIS240      0.1154
     89  CE1        0.5790   15.9140   28.2310 C.ar  240  HIS240      0.1986
     90  NE2        0.5210   17.0390   27.5540 N.ar  240  HIS240     -0.2212
     91  N         -8.1940   21.0430   27.5860 N.3   289  MET289     -0.1230
     92  CA        -6.8140   20.7630   27.1160 C.3   289  MET289      0.1702
     93  C         -6.6420   19.2190   27.2280 C.2   289  MET289      0.2592
     94  O         -7.4560   18.5370   27.9110 O.2   289  MET289     -0.2718
     95  CB        -5.7710   21.4710   28.0390 C.3   289  MET289      0.0401
     96  CG        -5.8440   20.9950   29.5280 C.3   289  MET289      0.0596
     97  SD        -4.2020   21.3530   30.2920 S.3   289  MET289     -0.1393
     98  CE        -3.2340   19.9710   29.6240 C.3   289  MET289      0.0692
     99  N         -5.6110   18.6960   26.5490 N.am  290  GLY290     -0.1957
    100  CA        -5.2810   17.2870   26.6280 C.3   290  GLY290      0.1869
    101  C         -3.9510   17.1030   27.3310 C.2   290  GLY290      0.2309
    102  O         -2.9940   17.7900   26.9590 O.2   290  GLY290     -0.2863
    103  N          2.1270   24.3310   30.4410 N.3   318  ASP318     -0.1239
    104  CA         1.5110   23.9740   29.1650 C.3   318  ASP318      0.1674
    105  C          0.7180   25.1680   28.6740 C.2   318  ASP318      0.2266
    106  O         -0.3870   25.0260   28.1240 O.2   318  ASP318     -0.2867
    107  CB         0.5950   22.7230   29.3480 C.3   318  ASP318      0.1410
    108  CG         0.2370   22.0560   28.0280 C.2   318  ASP318      0.3668
    109  OD1        0.8800   22.3610   27.0150 O.co2 318  ASP318     -0.2456
    110  OD2       -0.6850   21.1990   28.0130 O.co2 318  ASP318     -0.2456
    111  N         -0.9890   27.5720   26.5440 N.3   320  CYS320     -0.1235
    112  CA        -1.3260   27.4490   25.1100 C.3   320  CYS320      0.1677
    113  C         -2.7080   28.0640   24.9890 C.2   320  CYS320      0.2270
    114  O         -3.7620   27.3480   25.0020 O.2   320  CYS320     -0.2867
    115  CB        -1.3880   26.0070   24.6890 C.3   320  CYS320      0.0956
    116  SG        -1.6010   25.8160   22.8830 S.3   320  CYS320     -0.0801
    117  N         -7.3960   23.1350   22.0840 N.3   339  ASN339     -0.1225
    118  CA        -7.0430   22.6460   23.4190 C.3   339  ASN339      0.1785
    119  C         -5.9730   23.5530   24.0350 C.2   339  ASN339      0.2597
    120  O         -4.9480   23.8360   23.4250 O.2   339  ASN339     -0.2718
    121  CB        -6.5200   21.1700   23.2900 C.3   339  ASN339      0.1169
    122  CG        -7.6530   20.1520   23.2850 C.2   339  ASN339      0.2627
    123  OD1       -8.7760   20.4090   22.7690 O.2   339  ASN339     -0.2716
    124  ND2       -7.3920   19.0060   23.8080 N.am  339  ASN339     -0.0877
    125  N         -6.1230   23.9410   25.2900 N.am  340  GLY340     -0.1957
    126  CA        -5.0210   24.6260   25.9530 C.3   340  GLY340      0.1869
    127  C         -5.5360   25.6010   26.9260 C.2   340  GLY340      0.2309
    128  O         -6.5960   26.1720   26.7050 O.2   340  GLY340     -0.2863
@<TRIPOS>BOND
     1    43    42    2
     2    42    41    1
     3    29    30    1
     4    31    32    2
     5    31    30    1
     6    62    61    2
     7    30    33    1
     8    41    44    1
     9    41    40    1
    10    61    60    1
    11    44    45    1
    12    23    24    2
    13    23    22    1
    14    27    26    1
    15    35    37   ar
    16    35    34   ar
    17    33    34    1
    18    22    21    1
    19    22    25    1
    20    63    60    1
    21    63    64    1
    22    37    39   ar
    23    60    59    1
    24    34    36   ar
    25    47    46    1
    26    26    25    1
    27    26    28    1
    28    45    46    1
    29    65    64   ar
    30    65    67   ar
    31    64    66   ar
    32    39    38   ar
    33    36    38   ar
    34    55    57   ar
    35    55    53   ar
    36    51    50    2
    37    57    58   ar
    38    67    69   ar
    39    52    53    1
    40    52    49    1
    41    66    68   ar
    42    53    54   ar
    43    48    49    1
    44    58    56   ar
    45    50    49    1
    46    69    68   ar
    47    69    70    1
    48    54    56   ar
    49   117   118    1
    50   123   122    2
    51    14    13    2
    52    17    19   ar
    53    17    16   ar
    54   116   115    1
    55    13    12    1
    56    15    12    1
    57    15    16    1
    58   122   121    1
    59   122   124   am
    60   121   118    1
    61   118   119    1
    62   120   119    2
    63    12    11    1
    64    19    20   ar
    65    16    18   ar
    66   119   125   am
    67    20    18   ar
    68   115   112    1
    69    75    76    1
    70    75    72    1
    71   113   114    2
    72   113   112    1
    73    76    77   ar
    74    76    78   ar
    75    74    73    2
    76   112   111    1
    77    77    79   ar
    78   125   126    1
    79    78    80   ar
    80    79    80   ar
    81    71    72    1
    82   126   127    1
    83    72    73    1
    84    99   100    1
    85    99    93   am
    86   100   101    1
    87   128   127    2
    88   102   101    2
    89   109   108   ar
    90    92    93    1
    91    92    91    1
    92    92    95    1
    93    93    94    2
    94    90    89   ar
    95    90    88   ar
    96    10     8   ar
    97    10     9   ar
    98     8     6   ar
    99   110   108   ar
   100   108   107    1
   101    95    96    1
   102   106   105    2
   103    89    87   ar
   104    88    86   ar
   105     9     7   ar
   106   105   104    1
   107     3     2    1
   108     3     4    2
   109     6     7   ar
   110     6     5    1
   111   104   107    1
   112   104   103    1
   113     2     5    1
   114     2     1    1
   115    96    97    1
   116    87    86   ar
   117    98    97    1
   118    86    85    1
   119    85    82    1
   120    81    82    1
   121    82    83    1
   122    84    83    2
