@<TRIPOS>MOLECULE
tmp/4lcsA00.pdb
 139 133 0 0 0
SMALL
GASTEIGER

@<TRIPOS>ATOM
      1  N         24.2090    7.2680   16.8850 N.3    60  HIS60      -0.1241
      2  CA        23.6740    6.2440   17.8190 C.3    60  HIS60       0.1621
      3  C         24.7860    5.3250   18.3420 C.2    60  HIS60       0.2264
      4  O         25.1150    4.3330   17.6910 O.2    60  HIS60      -0.2867
      5  CB        22.6140    5.4200   17.0650 C.3    60  HIS60       0.0745
      6  CG        21.7700    4.5200   17.9570 C.ar   60  HIS60       0.0817
      7  ND1       20.4530    4.2440   17.6760 N.ar   60  HIS60      -0.2268
      8  CD2       22.0750    3.8560   19.1680 C.ar   60  HIS60       0.1154
      9  CE1       19.9570    3.4700   18.6870 C.ar   60  HIS60       0.1986
     10  NE2       20.9700    3.2100   19.5710 N.ar   60  HIS60      -0.2212
     11  N         26.6790    3.5360   22.1290 N.3    62  HIS62      -0.1241
     12  CA        26.7100    3.2690   23.5750 C.3    62  HIS62       0.1621
     13  C         28.1100    2.8760   24.0310 C.2    62  HIS62       0.2264
     14  O         28.3160    1.6780   24.3620 O.2    62  HIS62      -0.2867
     15  CB        25.7640    2.1100   23.9200 C.3    62  HIS62       0.0745
     16  CG        24.3620    2.3560   23.5170 C.ar   62  HIS62       0.0817
     17  ND1       23.4660    3.0870   24.2870 N.ar   62  HIS62      -0.2268
     18  CD2       23.6930    1.9830   22.3860 C.ar   62  HIS62       0.1154
     19  CE1       22.2920    3.1620   23.6380 C.ar   62  HIS62       0.1986
     20  NE2       22.4290    2.4800   22.4750 N.ar   62  HIS62      -0.2212
     21  N         29.0500    1.2660   27.9320 N.3    65  LEU65      -0.1245
     22  CA        27.8090    1.2130   28.6960 C.3    65  LEU65       0.1561
     23  C         27.8180   -0.0070   29.6420 C.2    65  LEU65       0.2260
     24  O         28.0490   -1.1410   29.2170 O.2    65  LEU65      -0.2867
     25  CB        26.6470    1.0830   27.7020 C.3    65  LEU65       0.0270
     26  CG        25.2840    0.8430   28.3440 C.3    65  LEU65       0.0019
     27  CD1       24.9350    2.0150   29.2600 C.3    65  LEU65       0.0001
     28  CD2       24.2450    0.6390   27.2490 C.3    65  LEU65       0.0001
     29  N         25.7200   -2.5780   31.3150 N.3    67  PHE67      -0.1241
     30  CA        24.3930   -3.1330   30.8760 C.3    67  PHE67       0.1605
     31  C         24.5020   -4.6200   30.9850 C.2    67  PHE67       0.2264
     32  O         25.5580   -5.2200   30.6410 O.2    67  PHE67      -0.2867
     33  CB        24.1320   -2.7960   29.3640 C.3    67  PHE67       0.0534
     34  CG        22.7590   -3.1700   28.7930 C.ar   67  PHE67      -0.0203
     35  CD1       21.5340   -2.9160   29.4730 C.ar   67  PHE67      -0.0042
     36  CD2       22.6970   -3.6380   27.4500 C.ar   67  PHE67      -0.0042
     37  CE1       20.2940   -3.2130   28.8690 C.ar   67  PHE67      -0.0003
     38  CE2       21.4610   -3.8920   26.8350 C.ar   67  PHE67      -0.0003
     39  CZ        20.2530   -3.6880   27.5420 C.ar   67  PHE67      -0.0000
     40  N         22.3240    6.7380   29.6450 N.3    96  MET96      -0.1245
     41  CA        21.3320    5.7150   30.0130 C.3    96  MET96       0.1570
     42  C         20.8810    5.8780   31.4590 C.2    96  MET96       0.2261
     43  O         21.2740    5.1260   32.3200 O.2    96  MET96      -0.2867
     44  CB        21.8680    4.3020   29.7770 C.3    96  MET96       0.0387
     45  CG        21.9940    4.0090   28.2900 C.3    96  MET96       0.0595
     46  SD        20.3970    4.0720   27.3900 S.3    96  MET96      -0.1393
     47  CE        19.4600    2.9090   28.3940 C.3    96  MET96       0.0692
     48  N         11.8560    4.5270   25.9850 N.3   153  PHE153     -0.1241
     49  CA        11.8040    3.0920   25.7140 C.3   153  PHE153      0.1605
     50  C         10.3800    2.5180   25.7930 C.2   153  PHE153      0.2264
     51  O          9.7040    2.6580   26.8080 O.2   153  PHE153     -0.2867
     52  CB        12.7150    2.3520   26.6890 C.3   153  PHE153      0.0534
     53  CG        14.1780    2.5550   26.3940 C.ar  153  PHE153     -0.0203
     54  CD1       14.8630    1.6960   25.5770 C.ar  153  PHE153     -0.0042
     55  CD2       14.8660    3.6330   26.9360 C.ar  153  PHE153     -0.0042
     56  CE1       16.2320    1.8960   25.2900 C.ar  153  PHE153     -0.0003
     57  CE2       16.2260    3.8520   26.6450 C.ar  153  PHE153     -0.0003
     58  CZ        16.9320    2.9770   25.8680 C.ar  153  PHE153     -0.0000
     59  N         11.8350   -3.1900   27.3680 N.3   156  TYR156     -0.1241
     60  CA        12.5790   -3.2810   28.6170 C.3   156  TYR156      0.1605
     61  C         11.6420   -3.0530   29.8000 C.2   156  TYR156      0.2264
     62  O         11.8380   -2.1500   30.6470 O.2   156  TYR156     -0.2867
     63  CB        13.7500   -2.3050   28.6500 C.3   156  TYR156      0.0534
     64  CG        14.7850   -2.5720   27.5880 C.ar  156  TYR156     -0.0201
     65  CD1       15.6800   -3.6780   27.6810 C.ar  156  TYR156     -0.0009
     66  CD2       14.9050   -1.7160   26.4930 C.ar  156  TYR156     -0.0009
     67  CE1       16.6610   -3.8920   26.7170 C.ar  156  TYR156      0.0417
     68  CE2       15.8580   -1.9300   25.5200 C.ar  156  TYR156      0.0417
     69  CZ        16.7240   -3.0040   25.6250 C.ar  156  TYR156      0.1957
     70  OH        17.6550   -3.1760   24.6430 O.3   156  TYR156     -0.2866
     71  N         13.2950    0.1430   31.6820 N.3   160  PHE160     -0.1241
     72  CA        13.2730    1.4890   31.0730 C.3   160  PHE160      0.1605
     73  C         11.8760    1.8670   30.5730 C.2   160  PHE160      0.2264
     74  O         11.5980    3.0000   30.2700 O.2   160  PHE160     -0.2867
     75  CB        14.2750    1.5040   29.8930 C.3   160  PHE160      0.0534
     76  CG        15.7030    1.2390   30.3150 C.ar  160  PHE160     -0.0203
     77  CD1       16.2350    1.8650   31.4670 C.ar  160  PHE160     -0.0042
     78  CD2       16.5340    0.4400   29.5510 C.ar  160  PHE160     -0.0042
     79  CE1       17.5480    1.6610   31.8300 C.ar  160  PHE160     -0.0003
     80  CE2       17.8710    0.2200   29.8950 C.ar  160  PHE160     -0.0003
     81  CZ        18.3790    0.8260   31.0480 C.ar  160  PHE160     -0.0000
     82  N         12.7740    3.9340   21.3880 N.3   184  HIS184     -0.1241
     83  CA        13.0060    2.4860   21.1490 C.3   184  HIS184      0.1621
     84  C         11.6640    1.8480   20.9700 C.2   184  HIS184      0.2264
     85  O         10.9270    1.6760   21.9500 O.2   184  HIS184     -0.2867
     86  CB        13.7640    1.8060   22.2890 C.3   184  HIS184      0.0745
     87  CG        14.0270    0.3650   22.0360 C.ar  184  HIS184      0.0817
     88  ND1       15.2450   -0.1280   22.0040 N.ar  184  HIS184     -0.2268
     89  CD2       13.1600   -0.7120   21.7500 C.ar  184  HIS184      0.1154
     90  CE1       15.2200   -1.4510   21.7460 C.ar  184  HIS184      0.1986
     91  NE2       13.9430   -1.8150   21.5990 N.ar  184  HIS184     -0.2212
     92  N         17.2560    2.9320   15.4540 N.3   240  HIS240     -0.1241
     93  CA        17.4790    1.5350   14.9510 C.3   240  HIS240      0.1621
     94  C         16.2540    0.8640   14.3720 C.2   240  HIS240      0.2264
     95  O         15.7580   -0.1040   14.9410 O.2   240  HIS240     -0.2867
     96  CB        18.1590    0.6000   15.9980 C.3   240  HIS240      0.0745
     97  CG        17.4710    0.5550   17.3290 C.ar  240  HIS240      0.0817
     98  ND1       16.1290    0.5000   17.4590 N.ar  240  HIS240     -0.2268
     99  CD2       17.9980    0.5190   18.6200 C.ar  240  HIS240      0.1154
    100  CE1       15.8100    0.4610   18.7680 C.ar  240  HIS240      0.1986
    101  NE2       16.9550    0.4490   19.4680 N.ar  240  HIS240     -0.2212
    102  N         21.0330   -8.2290   19.4330 N.3   289  MET289     -0.1230
    103  CA        20.7420   -6.8620   19.8960 C.3   289  MET289      0.1702
    104  C         19.2130   -6.6780   19.8250 C.2   289  MET289      0.2592
    105  O         18.4820   -7.4570   19.1380 O.2   289  MET289     -0.2718
    106  CB        21.4330   -5.8010   18.9920 C.3   289  MET289      0.0401
    107  CG        21.0570   -5.8570   17.5150 C.3   289  MET289      0.0596
    108  SD        21.3480   -4.2790   16.6540 S.3   289  MET289     -0.1393
    109  CE        19.9470   -3.3370   17.3170 C.3   289  MET289      0.0692
    110  N         18.7480   -5.6360   20.4930 N.am  290  GLY290     -0.1957
    111  CA        17.3520   -5.3060   20.4550 C.3   290  GLY290      0.1869
    112  C         17.1340   -3.9770   19.7450 C.2   290  GLY290      0.2309
    113  O         17.8190   -2.9900   20.0760 O.2   290  GLY290     -0.2863
    114  N         24.3210    2.0560   16.5680 N.3   318  ASP318     -0.1239
    115  CA        23.9490    1.4490   17.8320 C.3   318  ASP318      0.1674
    116  C         25.1310    0.6190   18.3630 C.2   318  ASP318      0.2266
    117  O         24.9530   -0.4890   18.8910 O.2   318  ASP318     -0.2867
    118  CB        22.7050    0.5310   17.6560 C.3   318  ASP318      0.1410
    119  CG        22.0700    0.1620   18.9730 C.2   318  ASP318      0.3668
    120  OD1       22.4700    0.7000   20.0390 O.co2 318  ASP318     -0.2456
    121  OD2       21.1720   -0.7060   18.9670 O.co2 318  ASP318     -0.2456
    122  N         27.5950   -1.0530   20.5240 N.3   320  CYS320     -0.1235
    123  CA        27.4360   -1.4140   21.9320 C.3   320  CYS320      0.1677
    124  C         28.0490   -2.8190   22.0680 C.2   320  CYS320      0.2270
    125  O         27.3380   -3.8570   22.0590 O.2   320  CYS320     -0.2867
    126  CB        25.9670   -1.4930   22.3200 C.3   320  CYS320      0.0956
    127  SG        25.7820   -1.6740   24.1650 S.3   320  CYS320     -0.0801
    128  N         23.1630   -7.5000   24.9620 N.3   339  ASN339     -0.1225
    129  CA        22.6700   -7.1020   23.6500 C.3   339  ASN339      0.1785
    130  C         23.5620   -6.0410   23.0470 C.2   339  ASN339      0.2597
    131  O         23.8840   -5.0320   23.7000 O.2   339  ASN339     -0.2718
    132  CB        21.1900   -6.5790   23.7540 C.3   339  ASN339      0.1169
    133  CG        20.1650   -7.7040   23.7390 C.2   339  ASN339      0.2627
    134  OD1       20.3700   -8.7780   24.3380 O.2   339  ASN339     -0.2716
    135  ND2       19.0600   -7.4850   23.0470 N.am  339  ASN339     -0.0877
    136  N         23.9240   -6.2120   21.7740 N.am  340  GLY340     -0.1957
    137  CA        24.6190   -5.1230   21.0720 C.3   340  GLY340      0.1869
    138  C         25.6070   -5.6220   20.0910 C.2   340  GLY340      0.2309
    139  O         26.1890   -6.6480   20.3410 O.2   340  GLY340     -0.2863
@<TRIPOS>BOND
     1    94    95    2
     2    94    93    1
     3    93    92    1
     4    93    96    1
     5    96    97    1
     6   114   115    1
     7   108   109    1
     8   108   107    1
     9     1     2    1
    10     5     2    1
    11     5     6    1
    12    97    98   ar
    13    97    99   ar
    14    98   100   ar
    15   107   106    1
    16   118   115    1
    17   118   119    1
    18     7     6   ar
    19     7     9   ar
    20     4     3    2
    21     2     3    1
    22   115   116    1
    23     6     8   ar
    24   116   117    2
    25    99   101   ar
    26     9    10   ar
    27   100   101   ar
    28   121   119   ar
    29   119   120   ar
    30   106   103    1
    31   105   104    2
    32     8    10   ar
    33   102   103    1
    34   112   113    2
    35   112   111    1
    36   104   103    1
    37   104   110   am
    38   138   139    2
    39   138   137    1
    40   111   110    1
    41   122   123    1
    42    84    83    1
    43    84    85    2
    44   137   136    1
    45    83    82    1
    46    83    86    1
    47    91    90   ar
    48    91    89   ar
    49    90    88   ar
    50    89    87   ar
    51   136   130   am
    52   123   124    1
    53   123   126    1
    54    88    87   ar
    55    87    86    1
    56   125   124    2
    57    11    12    1
    58   126   127    1
    59    18    20   ar
    60    18    16   ar
    61    20    19   ar
    62   135   133   am
    63   130   129    1
    64   130   131    2
    65    16    15    1
    66    16    17   ar
    67    12    15    1
    68    12    13    1
    69    19    17   ar
    70   129   132    1
    71   129   128    1
    72   133   132    1
    73   133   134    2
    74    13    14    2
    75    70    69    1
    76    56    54   ar
    77    56    58   ar
    78    68    69   ar
    79    68    66   ar
    80    54    53   ar
    81    69    67   ar
    82    49    50    1
    83    49    48    1
    84    49    52    1
    85    50    51    2
    86    58    57   ar
    87    53    52    1
    88    53    55   ar
    89    66    64   ar
    90    57    55   ar
    91    67    65   ar
    92    38    36   ar
    93    38    39   ar
    94    28    26    1
    95    59    60    1
    96    46    45    1
    97    46    47    1
    98    36    34   ar
    99    39    37   ar
   100    64    65   ar
   101    64    63    1
   102    25    26    1
   103    25    22    1
   104    21    22    1
   105    45    44    1
   106    26    27    1
   107    60    63    1
   108    60    61    1
   109    22    23    1
   110    34    33    1
   111    34    35   ar
   112    37    35   ar
   113    24    23    2
   114    33    30    1
   115    78    80   ar
   116    78    76   ar
   117    40    41    1
   118    44    41    1
   119    61    62    2
   120    75    76    1
   121    75    72    1
   122    80    81   ar
   123    41    42    1
   124    74    73    2
   125    76    77   ar
   126    73    72    1
   127    32    31    2
   128    30    31    1
   129    30    29    1
   130    81    79   ar
   131    72    71    1
   132    42    43    2
   133    77    79   ar
