@<TRIPOS>MOLECULE
tmp/4lcwA00.pdb
 182 179 0 0 0
SMALL
GASTEIGER

@<TRIPOS>ATOM
      1  N        -92.3870   63.8510   99.0210 N.3     8  TYR8       -0.1241
      2  CA       -92.7370   63.5710   97.6330 C.3     8  TYR8        0.1605
      3  C        -93.3540   62.2020   97.5680 C.2     8  TYR8        0.2264
      4  O        -92.7280   61.2300   97.9910 O.2     8  TYR8       -0.2867
      5  CB       -91.5510   63.6680   96.6710 C.3     8  TYR8        0.0534
      6  CG       -90.9540   65.0470   96.5250 C.ar    8  TYR8       -0.0201
      7  CD1      -91.4980   65.9760   95.6430 C.ar    8  TYR8       -0.0009
      8  CD2      -89.7940   65.3970   97.2010 C.ar    8  TYR8       -0.0009
      9  CE1      -90.9340   67.2410   95.4870 C.ar    8  TYR8        0.0417
     10  CE2      -89.2230   66.6550   97.0540 C.ar    8  TYR8        0.0417
     11  CZ       -89.7910   67.5730   96.1920 C.ar    8  TYR8        0.1957
     12  OH       -89.2020   68.8080   96.0580 O.3     8  TYR8       -0.2866
     13  N        -95.4180   59.1710   95.1380 N.3    10  ARG10      -0.1245
     14  CA       -95.6090   58.5800   93.8240 C.3    10  ARG10       0.1563
     15  C        -96.6900   57.5280   93.9240 C.2    10  ARG10       0.2260
     16  O        -96.6690   56.7220   94.8440 O.2    10  ARG10      -0.2867
     17  CB       -94.3230   57.9520   93.2720 C.3    10  ARG10       0.0307
     18  CG       -93.2470   58.9460   92.9080 C.3    10  ARG10       0.0489
     19  CD       -92.0280   58.2680   92.3200 C.3    10  ARG10       0.2205
     20  NE       -90.8820   59.1780   92.3450 N.pl3  10  ARG10      -0.0865
     21  CZ       -89.6140   58.8200   92.1980 C.cat  10  ARG10       0.5346
     22  NH1      -89.2980   57.5580   91.9380 N.pl3  10  ARG10       0.1354
     23  NH2      -88.6550   59.7230   92.2730 N.pl3  10  ARG10       0.1354
     24  N        -97.4650   61.9900   90.8330 N.3    25  SER25      -0.1217
     25  CA       -96.4170   62.3890   91.7550 C.3    25  SER25       0.1889
     26  C        -96.6920   63.7960   92.2490 C.2    25  SER25       0.2288
     27  O        -96.8710   64.7240   91.4600 O.2    25  SER25      -0.2866
     28  CB       -95.0310   62.2760   91.1340 C.3    25  SER25       0.2089
     29  OG       -94.0290   62.3860   92.1340 O.3    25  SER25      -0.2183
     30  N        -95.6730   66.7160   95.3730 N.3    27  GLY27      -0.1225
     31  CA       -94.7600   67.1850   96.4030 C.3    27  GLY27       0.1811
     32  C        -95.5030   68.0430   97.4000 C.2    27  GLY27       0.2280
     33  O        -96.4310   68.7590   97.0250 O.2    27  GLY27      -0.2866
     34  N        -95.8380   70.7820   93.9770 N.3    35  THR35      -0.1203
     35  CA       -95.5890   70.2970   92.6190 C.3    35  THR35       0.1994
     36  C        -96.5490   69.1830   92.3150 C.2    35  THR35       0.2619
     37  O        -96.9890   68.4980   93.2380 O.2    35  THR35      -0.2717
     38  CB       -94.1210   69.8050   92.3830 C.3    35  THR35       0.1784
     39  OG1      -93.8890   68.5500   93.0260 O.3    35  THR35      -0.2211
     40  CG2      -93.0570   70.8060   92.8050 C.3    35  THR35       0.0376
     41  N        -96.8280   68.9590   91.0160 N.am   36  THR36      -0.1938
     42  CA       -97.6620   67.8560   90.5640 C.3    36  THR36       0.2028
     43  C        -97.2060   67.3720   89.1860 C.2    36  THR36       0.2642
     44  O        -96.5660   68.0970   88.4170 O.2    36  THR36      -0.2714
     45  CB       -99.1630   68.1900   90.6060 C.3    36  THR36       0.1808
     46  OG1      -99.8950   66.9640   90.6080 O.3    36  THR36      -0.2208
     47  CG2      -99.6200   69.1120   89.4600 C.3    36  THR36       0.0379
     48  N        -97.5110   66.1120   88.9120 N.am   37  TYR37      -0.1973
     49  CA       -97.2200   65.4570   87.6550 C.3    37  TYR37       0.1639
     50  C        -98.1130   64.2490   87.5360 C.2    37  TYR37       0.2290
     51  O        -98.2870   63.5210   88.5040 O.2    37  TYR37      -0.2864
     52  CB       -95.7330   65.0470   87.5490 C.3    37  TYR37       0.0560
     53  CG       -95.4280   64.2240   86.3150 C.ar   37  TYR37      -0.0198
     54  CD1      -94.9710   64.8250   85.1490 C.ar   37  TYR37      -0.0009
     55  CD2      -95.5850   62.8320   86.3160 C.ar   37  TYR37      -0.0009
     56  CE1      -94.6630   64.0670   84.0200 C.ar   37  TYR37       0.0417
     57  CE2      -95.3690   62.0790   85.1620 C.ar   37  TYR37       0.0417
     58  CZ       -94.9370   62.7090   84.0060 C.ar   37  TYR37       0.1957
     59  OH       -94.6880   61.9890   82.8700 O.3    37  TYR37      -0.2866
     60  N        -86.2740   74.5090   85.6620 N.3    59  HIS59      -0.1241
     61  CA       -86.5560   73.5780   86.7560 C.3    59  HIS59       0.1621
     62  C        -87.7340   72.6560   86.3600 C.2    59  HIS59       0.2264
     63  O        -87.6210   71.4350   86.4840 O.2    59  HIS59      -0.2867
     64  CB       -86.8410   74.3520   88.0550 C.3    59  HIS59       0.0745
     65  CG       -87.2830   73.4860   89.1970 C.ar   59  HIS59       0.0817
     66  ND1      -86.3700   72.9160   90.0660 N.ar   59  HIS59      -0.2268
     67  CD2      -88.5330   73.1280   89.5780 C.ar   59  HIS59       0.1154
     68  CE1      -87.0860   72.2290   90.9380 C.ar   59  HIS59       0.1986
     69  NE2      -88.3930   72.3230   90.6840 N.ar   59  HIS59      -0.2212
     70  N        -87.5190   68.5840   85.5990 N.3    63  TYR63      -0.1241
     71  CA       -88.3000   67.6530   86.3980 C.3    63  TYR63       0.1605
     72  C        -89.3650   66.9790   85.5790 C.2    63  TYR63       0.2264
     73  O        -89.6220   65.8130   85.8430 O.2    63  TYR63      -0.2867
     74  CB       -88.8220   68.3270   87.6740 C.3    63  TYR63       0.0534
     75  CG       -87.6970   68.2940   88.6850 C.ar   63  TYR63      -0.0201
     76  CD1      -87.4750   67.1620   89.4660 C.ar   63  TYR63      -0.0009
     77  CD2      -86.7340   69.2990   88.7140 C.ar   63  TYR63      -0.0009
     78  CE1      -86.3360   67.0360   90.2570 C.ar   63  TYR63       0.0417
     79  CE2      -85.6100   69.2020   89.5350 C.ar   63  TYR63       0.0417
     80  CZ       -85.4140   68.0650   90.3040 C.ar   63  TYR63       0.1957
     81  OH       -84.3040   67.9330   91.1060 O.3    63  TYR63      -0.2866
     82  N        -89.5220   62.9360   85.7870 N.3    67  LEU67      -0.1245
     83  CA       -90.8010   62.3360   86.1280 C.3    67  LEU67       0.1561
     84  C        -91.3030   61.3840   85.0260 C.2    67  LEU67       0.2260
     85  O        -91.8830   60.3340   85.3520 O.2    67  LEU67      -0.2867
     86  CB       -91.8090   63.4140   86.4760 C.3    67  LEU67       0.0270
     87  CG       -91.6290   63.9280   87.9110 C.3    67  LEU67       0.0019
     88  CD1      -91.9830   65.3450   88.0230 C.3    67  LEU67       0.0001
     89  CD2      -92.4270   63.1060   88.8970 C.3    67  LEU67       0.0001
     90  N        -89.2790   58.3890   85.7740 N.3    70  TRP70      -0.1241
     91  CA       -89.7530   57.7900   87.0300 C.3    70  TRP70       0.1605
     92  C        -91.0730   57.0950   86.7760 C.2    70  TRP70       0.2264
     93  O        -91.2920   56.0120   87.2730 O.2    70  TRP70      -0.2867
     94  CB       -89.8600   58.8250   88.1810 C.3    70  TRP70       0.0550
     95  CG       -88.5320   59.3260   88.6980 C.ar   70  TRP70       0.0003
     96  CD1      -87.3660   58.6230   88.7830 C.ar   70  TRP70       0.0946
     97  CD2      -88.2580   60.6230   89.2700 C.ar   70  TRP70       0.0152
     98  NE1      -86.3840   59.3970   89.3620 N.ar   70  TRP70      -0.2442
     99  CE2      -86.9020   60.6330   89.6590 C.ar   70  TRP70       0.0810
    100  CE3      -89.0360   61.7690   89.5160 C.ar   70  TRP70       0.0012
    101  CZ2      -86.3130   61.7340   90.2900 C.ar   70  TRP70       0.0191
    102  CZ3      -88.4340   62.8700   90.0970 C.ar   70  TRP70       0.0001
    103  CH2      -87.0920   62.8420   90.4830 C.ar   70  TRP70       0.0015
    104  N        -94.7990   55.2260   96.7910 N.3    95  ARG95      -0.1245
    105  CA       -93.5440   55.6300   97.3690 C.3    95  ARG95       0.1563
    106  C        -93.7580   56.9430   98.0800 C.2    95  ARG95       0.2260
    107  O        -94.4710   57.8090   97.5600 O.2    95  ARG95      -0.2867
    108  CB       -92.4980   55.8130   96.2470 C.3    95  ARG95       0.0307
    109  CG       -91.0640   56.1810   96.7050 C.3    95  ARG95       0.0489
    110  CD       -90.2980   56.5720   95.4740 C.3    95  ARG95       0.2205
    111  NE       -88.8510   56.5520   95.6450 N.pl3  95  ARG95      -0.0865
    112  CZ       -88.1000   57.6430   95.7100 C.cat  95  ARG95       0.5346
    113  NH1      -88.6610   58.8500   95.6910 N.pl3  95  ARG95       0.1354
    114  NH2      -86.7890   57.5410   95.8090 N.pl3  95  ARG95       0.1354
    115  N        -91.0350   59.7270   99.9540 N.3    97  ILE97      -0.1245
    116  CA       -89.7070   60.1760  100.3450 C.3    97  ILE97       0.1561
    117  C        -89.8630   61.5370  101.0020 C.2    97  ILE97       0.2260
    118  O        -90.7130   62.3380  100.5850 O.2    97  ILE97      -0.2867
    119  CB       -88.6880   60.1840   99.1630 C.3    97  ILE97       0.0252
    120  CG1      -87.2210   60.2370   99.7090 C.3    97  ILE97       0.0019
    121  CG2      -89.0030   61.2950   98.1410 C.3    97  ILE97       0.0019
    122  CD1      -86.0690   59.9720   98.7190 C.3    97  ILE97       0.0001
    123  N        -76.0650   57.1820   98.1660 N.3   153  TYR153     -0.1227
    124  CA       -76.7030   58.2840   97.4730 C.3   153  TYR153      0.1736
    125  C        -78.0120   58.6400   98.1920 C.2   153  TYR153      0.2595
    126  O        -78.2810   59.8260   98.3970 O.2   153  TYR153     -0.2718
    127  CB       -76.9300   57.9400   95.9760 C.3   153  TYR153      0.0548
    128  CG       -78.1240   58.6640   95.3890 C.ar  153  TYR153     -0.0200
    129  CD1      -78.0800   60.0410   95.1470 C.ar  153  TYR153     -0.0009
    130  CD2      -79.3530   58.0190   95.2560 C.ar  153  TYR153     -0.0009
    131  CE1      -79.2200   60.7430   94.7520 C.ar  153  TYR153      0.0417
    132  CE2      -80.4990   58.7130   94.8640 C.ar  153  TYR153      0.0417
    133  CZ       -80.4260   60.0750   94.6040 C.ar  153  TYR153      0.1957
    134  OH       -81.5490   60.7380   94.1530 O.3   153  TYR153     -0.2866
    135  N        -78.8290   57.6130   98.5420 N.am  154  GLN154     -0.1979
    136  CA       -80.1080   57.7900   99.2290 C.3   154  GLN154      0.1601
    137  C        -79.9420   58.4830  100.5550 C.2   154  GLN154      0.2287
    138  O        -80.7530   59.3630  100.8790 O.2   154  GLN154     -0.2864
    139  CB       -80.8420   56.4460   99.4560 C.3   154  GLN154      0.0394
    140  CG       -81.4230   55.7760   98.2060 C.3   154  GLN154      0.0908
    141  CD       -82.5600   56.5030   97.5070 C.2   154  GLN154      0.2608
    142  OE1      -82.8940   57.6810   97.7780 O.2   154  GLN154     -0.2717
    143  NE2      -83.1760   55.7960   96.5560 N.am  154  GLN154     -0.0878
    144  N        -79.0110   62.1740  100.0040 N.3   157  TRP157     -0.1241
    145  CA       -80.1960   62.9070   99.5590 C.3   157  TRP157      0.1605
    146  C        -81.1220   63.1970  100.7080 C.2   157  TRP157      0.2264
    147  O        -81.6140   64.3190  100.8140 O.2   157  TRP157     -0.2867
    148  CB       -80.9540   62.1700   98.4330 C.3   157  TRP157      0.0550
    149  CG       -81.8800   63.0990   97.7110 C.ar  157  TRP157      0.0003
    150  CD1      -81.5630   63.9160   96.6620 C.ar  157  TRP157      0.0946
    151  CD2      -83.2030   63.4740   98.1260 C.ar  157  TRP157      0.0152
    152  NE1      -82.6070   64.7720   96.3960 N.ar  157  TRP157     -0.2442
    153  CE2      -83.6250   64.5260   97.2810 C.ar  157  TRP157      0.0810
    154  CE3      -84.0800   63.0140   99.1240 C.ar  157  TRP157      0.0012
    155  CZ2      -84.8660   65.1500   97.4290 C.ar  157  TRP157      0.0191
    156  CZ3      -85.3390   63.5870   99.2160 C.ar  157  TRP157      0.0001
    157  CH2      -85.7220   64.6360   98.3660 C.ar  157  TRP157      0.0015
    158  N        -83.3610   71.6320  100.0200 N.3   165  TRP165     -0.1241
    159  CA       -84.5540   71.9640   99.2260 C.3   165  TRP165      0.1605
    160  C        -85.6320   72.5990  100.1180 C.2   165  TRP165      0.2264
    161  O        -86.1390   73.6850   99.8260 O.2   165  TRP165     -0.2867
    162  CB       -85.1280   70.7220   98.5410 C.3   165  TRP165      0.0550
    163  CG       -84.5100   70.3300   97.2300 C.ar  165  TRP165      0.0003
    164  CD1      -83.9160   69.1340   96.9310 C.ar  165  TRP165      0.0946
    165  CD2      -84.5990   71.0550   95.9910 C.ar  165  TRP165      0.0152
    166  NE1      -83.6130   69.0780   95.5850 N.ar  165  TRP165     -0.2442
    167  CE2      -84.0060   70.2500   94.9890 C.ar  165  TRP165      0.0810
    168  CE3      -85.0990   72.3220   95.6350 C.ar  165  TRP165      0.0012
    169  CZ2      -83.8930   70.6730   93.6600 C.ar  165  TRP165      0.0191
    170  CZ3      -85.0000   72.7340   94.3140 C.ar  165  TRP165      0.0001
    171  CH2      -84.4290   71.9040   93.3380 C.ar  165  TRP165      0.0015
    172  N        -87.5640   76.2650   99.9740 N.3   169  PHE169     -0.1241
    173  CA       -89.0230   76.3560   99.8460 C.3   169  PHE169      0.1605
    174  C        -89.6240   77.0970  101.0230 C.2   169  PHE169      0.2264
    175  O        -90.5950   77.8350  100.8220 O.2   169  PHE169     -0.2867
    176  CB       -89.6530   74.9680   99.7070 C.3   169  PHE169      0.0534
    177  CG       -89.2290   74.1410   98.5100 C.ar  169  PHE169     -0.0203
    178  CD1      -88.6390   74.7400   97.3960 C.ar  169  PHE169     -0.0042
    179  CD2      -89.5120   72.7780   98.4510 C.ar  169  PHE169     -0.0042
    180  CE1      -88.2700   73.9770   96.2850 C.ar  169  PHE169     -0.0003
    181  CE2      -89.1790   72.0290   97.3270 C.ar  169  PHE169     -0.0003
    182  CZ       -88.5640   72.6330   96.2510 C.ar  169  PHE169     -0.0000
@<TRIPOS>BOND
     1    59    58    1
     2    58    56   ar
     3    58    57   ar
     4    56    54   ar
     5    84    85    2
     6    84    83    1
     7    54    53   ar
     8    57    55   ar
     9    72    73    2
    10    72    71    1
    11    70    71    1
    12    60    61    1
    13    90    91    1
    14    82    83    1
    15    83    86    1
    16    53    55   ar
    17    53    52    1
    18    62    63    2
    19    62    61    1
    20    71    74    1
    21    86    87    1
    22    61    64    1
    23    92    91    1
    24    92    93    2
    25    91    94    1
    26    50    49    1
    27    50    51    2
    28    52    49    1
    29    49    48    1
    30    74    75    1
    31    87    88    1
    32    87    89    1
    33    64    65    1
    34    94    95    1
    35    44    43    2
    36    75    77   ar
    37    75    76   ar
    38    95    96   ar
    39    95    97   ar
    40    77    79   ar
    41    96    98   ar
    42    48    43   am
    43    43    42    1
    44    65    67   ar
    45    65    66   ar
    46    97   100   ar
    47    97    99   ar
    48    98    99   ar
    49    47    45    1
    50    76    78   ar
    51   100   102   ar
    52    79    80   ar
    53    67    69   ar
    54    99   101   ar
    55    66    68   ar
    56   102   103   ar
    57    78    80   ar
    58   101   103   ar
    59    80    81    1
    60    42    45    1
    61    42    41    1
    62    45    46    1
    63    69    68   ar
    64    24    25    1
    65    41    36   am
    66    28    25    1
    67    28    29    1
    68    27    26    2
    69    25    26    1
    70    22    21    1
    71    21    23    1
    72    21    20    2
    73    36    35    1
    74    36    37    2
    75    19    20    1
    76    19    18    1
    77    38    35    1
    78    38    40    1
    79    38    39    1
    80    35    34    1
    81    18    17    1
    82    17    14    1
    83   171   169   ar
    84   171   170   ar
    85   169   167   ar
    86    14    15    1
    87    14    13    1
    88    15    16    2
    89   134   133    1
    90   170   168   ar
    91   133   131   ar
    92   133   132   ar
    93   131   129   ar
    94   132   130   ar
    95   167   166   ar
    96   167   165   ar
    97   129   128   ar
    98   130   128   ar
    99    30    31    1
   100   128   127    1
   101   110   111    1
   102   110   109    1
   103     9     7   ar
   104     9    11   ar
   105   166   164   ar
   106   168   165   ar
   107     7     6   ar
   108   111   112    2
   109   113   112    1
   110   112   114    1
   111   127   124    1
   112   165   163   ar
   113    12    11    1
   114    11    10   ar
   115   108   109    1
   116   108   105    1
   117   182   180   ar
   118   182   181   ar
   119   180   178   ar
   120   152   150   ar
   121   152   153   ar
   122    31    32    1
   123     6     5    1
   124     6     8   ar
   125   143   141   am
   126   150   149   ar
   127     5     2    1
   128   104   105    1
   129   164   163   ar
   130    33    32    2
   131    10     8   ar
   132   163   162    1
   133   153   155   ar
   134   153   151   ar
   135   181   179   ar
   136   105   106    1
   137   178   177   ar
   138   155   157   ar
   139   124   123    1
   140   124   125    1
   141   141   142    2
   142   141   140    1
   143   107   106    2
   144     3     2    1
   145     3     4    2
   146     2     1    1
   147   149   151   ar
   148   149   148    1
   149   151   154   ar
   150   121   119    1
   151   125   126    2
   152   125   135   am
   153   140   139    1
   154   157   156   ar
   155   148   145    1
   156   179   177   ar
   157   177   176    1
   158   162   159    1
   159   135   136    1
   160   122   120    1
   161   154   156   ar
   162   119   120    1
   163   119   116    1
   164   159   158    1
   165   159   160    1
   166   136   139    1
   167   136   137    1
   168   145   144    1
   169   145   146    1
   170   176   173    1
   171   161   160    2
   172   173   172    1
   173   173   174    1
   174   115   116    1
   175   116   117    1
   176   137   138    2
   177   118   117    2
   178   146   147    2
   179   175   174    2
