@<TRIPOS>MOLECULE
tmp/4ld2A00.pdb
 123 121 0 0 0
SMALL
GASTEIGER

@<TRIPOS>ATOM
      1  N         19.0910   36.6490   51.7550 N.3    46  PRO46      -0.2102
      2  CA        19.9960   36.6890   52.9090 C.3    46  PRO46       0.1504
      3  C         21.4720   36.8060   52.5500 C.2    46  PRO46       0.2575
      4  O         22.3050   36.0730   53.0780 O.2    46  PRO46      -0.2718
      5  CB        19.6780   35.3810   53.6250 C.3    46  PRO46       0.0282
      6  CG        19.4400   34.4540   52.4750 C.3    46  PRO46       0.0208
      7  CD        18.5730   35.2830   51.5470 C.3    46  PRO46       0.0893
      8  N         21.7900   37.7430   51.6630 N.am   47  PHE47      -0.1977
      9  CA        23.1650   37.9380   51.2270 C.3    47  PHE47       0.1639
     10  C         23.5000   39.4080   51.0660 C.2    47  PHE47       0.2290
     11  O         22.6840   40.1950   50.5810 O.2    47  PHE47      -0.2864
     12  CB        23.3930   37.2320   49.8900 C.3    47  PHE47       0.0560
     13  CG        23.1610   35.7540   49.9430 C.ar   47  PHE47      -0.0200
     14  CD1       24.1570   34.8970   50.4020 C.ar   47  PHE47      -0.0042
     15  CD2       21.9320   35.2210   49.5780 C.ar   47  PHE47      -0.0042
     16  CE1       23.9300   33.5270   50.4980 C.ar   47  PHE47      -0.0003
     17  CE2       21.6940   33.8510   49.6710 C.ar   47  PHE47      -0.0003
     18  CZ        22.6950   33.0040   50.1330 C.ar   47  PHE47      -0.0000
     19  N         21.3890   41.0760   47.9310 N.3    65  ASN65      -0.1240
     20  CA        20.6420   40.2820   46.9680 C.3    65  ASN65       0.1653
     21  C         19.2700   40.9180   46.7700 C.2    65  ASN65       0.2266
     22  O         18.4820   41.0120   47.7080 O.2    65  ASN65      -0.2867
     23  CB        20.4970   38.8430   47.4710 C.3    65  ASN65       0.1155
     24  CG        19.7070   37.9700   46.5160 C.2    65  ASN65       0.2627
     25  OD1       18.5570   38.2610   46.2080 O.2    65  ASN65      -0.2716
     26  ND2       20.3230   36.8920   46.0470 N.am   65  ASN65      -0.0877
     27  N         17.3790   39.9770   43.9210 N.3    67  VAL67      -0.1245
     28  CA        16.8430   39.1710   42.8290 C.3    67  VAL67       0.1561
     29  C         15.3220   39.2120   42.6910 C.2    67  VAL67       0.2260
     30  O         14.8040   39.5190   41.6180 O.2    67  VAL67      -0.2867
     31  CB        17.2920   37.7000   42.9630 C.3    67  VAL67       0.0252
     32  CG1       16.6000   36.8360   41.9040 C.3    67  VAL67       0.0019
     33  CG2       18.8050   37.6100   42.8090 C.3    67  VAL67       0.0019
     34  N         22.7310   39.6770   42.4070 N.3    76  HIS76      -0.1226
     35  CA        23.2940   39.1180   43.6260 C.3    76  HIS76       0.1752
     36  C         24.0580   40.2120   44.3550 C.2    76  HIS76       0.2596
     37  O         24.4520   41.2140   43.7560 O.2    76  HIS76      -0.2718
     38  CB        24.2290   37.9550   43.3090 C.3    76  HIS76       0.0759
     39  CG        23.5110   36.7060   42.9020 C.ar   76  HIS76       0.0818
     40  ND1       24.1030   35.4630   42.9380 N.ar   76  HIS76      -0.2268
     41  CD2       22.2480   36.5080   42.4560 C.ar   76  HIS76       0.1154
     42  CE1       23.2360   34.5520   42.5340 C.ar   76  HIS76       0.1986
     43  NE2       22.1030   35.1600   42.2360 N.ar   76  HIS76      -0.2212
     44  N         24.2730   40.0150   45.6500 N.am   77  ALA77      -0.1966
     45  CA        24.9770   41.0070   46.4530 C.3    77  ALA77       0.1728
     46  C         26.3160   41.4230   45.8500 C.2    77  ALA77       0.2616
     47  O         26.6330   42.6130   45.7810 O.2    77  ALA77      -0.2715
     48  CB        25.1850   40.4720   47.8620 C.3    77  ALA77       0.0334
     49  N         27.0940   40.4460   45.4000 N.am   78  GLU78      -0.1977
     50  CA        28.4090   40.7240   44.8300 C.3    78  GLU78       0.1602
     51  C         28.3320   41.5660   43.5610 C.2    78  GLU78       0.2287
     52  O         29.1120   42.5040   43.3780 O.2    78  GLU78      -0.2864
     53  CB        29.1430   39.4080   44.5450 C.3    78  GLU78       0.0415
     54  CG        29.3120   38.5090   45.7700 C.3    78  GLU78       0.1163
     55  CD        28.2040   37.4720   45.9170 C.2    78  GLU78       0.3649
     56  OE1       27.0150   37.8470   45.9500 O.co2  78  GLU78      -0.2457
     57  OE2       28.5270   36.2680   46.0040 O.co2  78  GLU78      -0.2457
     58  N         28.8320   35.3430   52.2190 N.3   108  ALA108     -0.1231
     59  CA        28.9570   33.9230   51.9150 C.3   108  ALA108      0.1694
     60  C         29.8450   33.7390   50.6960 C.2   108  ALA108      0.2592
     61  O         29.9720   34.6490   49.8810 O.2   108  ALA108     -0.2718
     62  CB        27.5850   33.3200   51.6510 C.3   108  ALA108      0.0304
     63  N         30.4650   32.5690   50.5700 N.am  109  GLU109     -0.1966
     64  CA        31.3120   32.3130   49.4100 C.3   109  GLU109      0.1718
     65  C         30.4320   32.4940   48.1740 C.2   109  GLU109      0.2458
     66  O         29.2770   32.0680   48.1530 O.2   109  GLU109     -0.2730
     67  CB        31.9080   30.9040   49.4880 C.3   109  GLU109      0.0428
     68  CG        32.7480   30.7170   50.7500 C.3   109  GLU109      0.1163
     69  CD        33.4650   29.3860   50.8230 C.2   109  GLU109      0.3649
     70  OE1       33.0470   28.4290   50.1380 O.co2 109  GLU109     -0.2457
     71  OE2       34.4460   29.2960   51.5910 O.co2 109  GLU109     -0.2457
     72  N         30.9670   33.1420   47.1300 N.am  110  PRO110     -0.2716
     73  CA        30.2440   33.4080   45.8820 C.3   110  PRO110      0.1536
     74  C         29.7930   32.2170   45.0500 C.2   110  PRO110      0.2598
     75  O         30.4440   31.1730   45.0240 O.2   110  PRO110     -0.2715
     76  CB        31.2140   34.3020   45.1150 C.3   110  PRO110      0.0310
     77  CG        32.5460   33.7600   45.5310 C.3   110  PRO110      0.0237
     78  CD        32.3670   33.5950   47.0260 C.3   110  PRO110      0.0939
     79  N         28.6600   32.3920   44.3720 N.am  111  CYS111     -0.1968
     80  CA        28.1270   31.3600   43.4920 C.3   111  CYS111      0.1712
     81  C         29.0070   31.4380   42.2460 C.2   111  CYS111      0.2296
     82  O         29.8500   32.3260   42.1450 O.2   111  CYS111     -0.2864
     83  CB        26.6730   31.6590   43.1260 C.3   111  CYS111      0.0983
     84  SG        26.4500   33.0270   41.9530 S.3   111  CYS111     -0.0798
     85  N         25.9230   27.2610   53.0770 N.3   135  VAL135     -0.1245
     86  CA        24.8050   27.7080   52.2580 C.3   135  VAL135      0.1561
     87  C         24.0850   26.5800   51.5220 C.2   135  VAL135      0.2260
     88  O         22.8560   26.5710   51.4570 O.2   135  VAL135     -0.2867
     89  CB        25.2550   28.7690   51.2230 C.3   135  VAL135      0.0252
     90  CG1       25.9490   29.9200   51.9310 C.3   135  VAL135      0.0019
     91  CG2       26.1720   28.1460   50.1910 C.3   135  VAL135      0.0019
     92  N         20.0560   24.7640   51.6370 N.3   139  GLY139     -0.1210
     93  CA        19.1730   24.9550   50.4970 C.3   139  GLY139      0.1956
     94  C         19.6180   25.9660   49.4550 C.2   139  GLY139      0.2612
     95  O         18.8950   26.2240   48.4920 O.2   139  GLY139     -0.2717
     96  N         20.7960   26.5490   49.6390 N.am  140  PHE140     -0.1962
     97  CA        21.3050   27.5280   48.6850 C.3   140  PHE140      0.1771
     98  C         22.3000   26.8660   47.7400 C.2   140  PHE140      0.2620
     99  O         23.2370   26.2010   48.1760 O.2   140  PHE140     -0.2715
    100  CB        21.9570   28.6940   49.4330 C.3   140  PHE140      0.0574
    101  CG        21.0000   29.4520   50.3120 C.ar  140  PHE140     -0.0200
    102  CD1       20.0530   30.3080   49.7550 C.ar  140  PHE140     -0.0042
    103  CD2       21.0150   29.2750   51.6930 C.ar  140  PHE140     -0.0042
    104  CE1       19.1310   30.9750   50.5590 C.ar  140  PHE140     -0.0003
    105  CE2       20.0970   29.9380   52.5110 C.ar  140  PHE140     -0.0003
    106  CZ        19.1530   30.7900   51.9410 C.ar  140  PHE140     -0.0000
    107  N         22.0850   27.0480   46.4410 N.am  141  ASP141     -0.1957
    108  CA        22.9490   26.4500   45.4280 C.3   141  ASP141      0.1840
    109  C         24.0260   27.4110   44.9320 C.2   141  ASP141      0.2621
    110  O         23.7340   28.5260   44.4990 O.2   141  ASP141     -0.2715
    111  CB        22.0910   25.9560   44.2580 C.3   141  ASP141      0.1450
    112  CG        22.9150   25.3820   43.1210 C.2   141  ASP141      0.3671
    113  OD1       23.8740   24.6280   43.3830 O.co2 141  ASP141     -0.2456
    114  OD2       22.5880   25.6790   41.9560 O.co2 141  ASP141     -0.2456
    115  N         25.2770   26.9670   45.0040 N.am  142  GLU142     -0.1977
    116  CA        26.4070   27.7800   44.5660 C.3   142  GLU142      0.1602
    117  C         26.6630   27.6010   43.0780 C.2   142  GLU142      0.2287
    118  O         27.3940   28.3800   42.4680 O.2   142  GLU142     -0.2864
    119  CB        27.6650   27.3950   45.3480 C.3   142  GLU142      0.0415
    120  CG        27.5830   27.6940   46.8380 C.3   142  GLU142      0.1163
    121  CD        27.7790   29.1660   47.1530 C.2   142  GLU142      0.3649
    122  OE1       27.1150   30.0080   46.5160 O.co2 142  GLU142     -0.2457
    123  OE2       28.5980   29.4800   48.0440 O.co2 142  GLU142     -0.2457
@<TRIPOS>BOND
     1    30    29    2
     2    32    31    1
     3    84    83    1
     4   114   112   ar
     5    82    81    2
     6    43    41   ar
     7    43    42   ar
     8    81    80    1
     9    34    35    1
    10    41    39   ar
    11   118   117    2
    12    42    40   ar
    13    29    28    1
    14    33    31    1
    15    28    31    1
    16    28    27    1
    17    39    40   ar
    18    39    38    1
    19   117   116    1
    20   112   113   ar
    21   112   111    1
    22    83    80    1
    23    38    35    1
    24    52    51    2
    25    80    79    1
    26    51    50    1
    27    35    36    1
    28    37    36    2
    29   111   108    1
    30    36    44   am
    31    79    74   am
    32   110   109    2
    33    53    50    1
    34    53    54    1
    35   116   115    1
    36   116   119    1
    37    50    49    1
    38   109   115   am
    39   109   108    1
    40    75    74    2
    41    74    73    1
    42    76    77    1
    43    76    73    1
    44   119   120    1
    45    49    46   am
    46   108   107    1
    47    77    78    1
    48    44    45    1
    49    54    55    1
    50    47    46    2
    51    46    45    1
    52    73    72    1
    53    55    56   ar
    54    55    57   ar
    55    26    24   am
    56    25    24    2
    57   107    98   am
    58    45    48    1
    59    24    23    1
    60   122   121   ar
    61    21    20    1
    62    21    22    2
    63   120   121    1
    64    20    23    1
    65    20    19    1
    66    78    72    1
    67    72    65   am
    68   121   123   ar
    69    98    99    2
    70    98    97    1
    71    66    65    2
    72    65    64    1
    73    95    94    2
    74    97   100    1
    75    97    96    1
    76    64    67    1
    77    64    63    1
    78   100   101    1
    79    94    96   am
    80    94    93    1
    81    67    68    1
    82    15    17   ar
    83    15    13   ar
    84    17    18   ar
    85   102   101   ar
    86   102   104   ar
    87    61    60    2
    88    12    13    1
    89    12     9    1
    90    13    14   ar
    91    18    16   ar
    92    70    69   ar
    93    91    89    1
    94   101   103   ar
    95    14    16   ar
    96    93    92    1
    97   104   106   ar
    98    63    60   am
    99    11    10    2
   100    60    59    1
   101    68    69    1
   102    69    71   ar
   103    10     9    1
   104    89    90    1
   105    89    86    1
   106     9     8    1
   107    88    87    2
   108    87    86    1
   109     7     1    1
   110     7     6    1
   111    62    59    1
   112     8     3   am
   113   103   105   ar
   114     1     2    1
   115    59    58    1
   116   106   105   ar
   117    86    85    1
   118     6     5    1
   119     3     2    1
   120     3     4    2
   121     2     5    1
