@<TRIPOS>MOLECULE
tmp/4ld4B00.pdb
 111 105 0 0 0
SMALL
GASTEIGER

@<TRIPOS>ATOM
      1  N         30.7900   41.1390   21.5150 N.3    50  PHE50      -0.1241
      2  CA        29.9040   40.1150   22.0610 C.3    50  PHE50       0.1605
      3  C         28.4600   40.5520   22.1400 C.2    50  PHE50       0.2264
      4  O         28.1600   41.6600   22.5830 O.2    50  PHE50      -0.2867
      5  CB        30.3840   39.7180   23.4480 C.3    50  PHE50       0.0534
      6  CG        31.7150   39.0530   23.4390 C.ar   50  PHE50      -0.0203
      7  CD1       31.8430   37.7400   22.9970 C.ar   50  PHE50      -0.0042
      8  CD2       32.8590   39.7630   23.7790 C.ar   50  PHE50      -0.0042
      9  CE1       33.0990   37.1420   22.9070 C.ar   50  PHE50      -0.0003
     10  CE2       34.1160   39.1680   23.6920 C.ar   50  PHE50      -0.0003
     11  CZ        34.2390   37.8610   23.2470 C.ar   50  PHE50      -0.0000
     12  N         28.0430   43.3720   25.0850 N.3    68  ASN68      -0.1240
     13  CA        29.0760   43.5610   26.0780 C.3    68  ASN68       0.1653
     14  C         29.1360   45.0670   26.2890 C.2    68  ASN68       0.2266
     15  O         29.2610   45.8300   25.3270 O.2    68  ASN68      -0.2867
     16  CB        30.3940   43.0170   25.5460 C.3    68  ASN68       0.1155
     17  CG        31.5280   43.1860   26.5280 C.2    68  ASN68       0.2627
     18  OD1       31.5460   44.1380   27.3350 O.2    68  ASN68      -0.2716
     19  ND2       32.4860   42.2550   26.4830 N.am   68  ASN68      -0.0877
     20  N         30.8270   46.3400   29.3360 N.3    70  VAL70      -0.1245
     21  CA        31.7920   46.5750   30.4020 C.3    70  VAL70       0.1561
     22  C         32.4300   47.9800   30.4310 C.2    70  VAL70       0.2260
     23  O         32.2160   48.7500   31.3670 O.2    70  VAL70      -0.2867
     24  CB        32.9310   45.5400   30.3470 C.3    70  VAL70       0.0252
     25  CG1       33.7980   45.6430   31.6110 C.3    70  VAL70       0.0019
     26  CG2       32.3500   44.1530   30.1710 C.3    70  VAL70       0.0019
     27  N         28.1770   41.6670   30.7360 N.3    79  HIS79      -0.1226
     28  CA        28.4380   40.8520   29.5370 C.3    79  HIS79       0.1752
     29  C         27.1460   40.6450   28.7350 C.2    79  HIS79       0.2596
     30  O         26.0390   40.7690   29.2770 O.2    79  HIS79      -0.2718
     31  CB        29.0200   39.4870   29.9150 C.3    79  HIS79       0.0759
     32  CG        30.4560   39.5330   30.3290 C.ar   79  HIS79       0.0818
     33  ND1       31.1660   38.3980   30.6790 N.ar   79  HIS79      -0.2268
     34  CD2       31.3200   40.5670   30.4730 C.ar   79  HIS79       0.1154
     35  CE1       32.3940   38.7360   31.0210 C.ar   79  HIS79       0.1986
     36  NE2       32.5160   40.0470   30.9060 N.ar   79  HIS79      -0.2212
     37  N         27.2920   40.3420   27.4480 N.am   80  ALA80      -0.1966
     38  CA        26.1330   40.1330   26.5860 C.3    80  ALA80       0.1728
     39  C         25.0930   39.2400   27.2390 C.2    80  ALA80       0.2616
     40  O         23.9050   39.5380   27.1850 O.2    80  ALA80      -0.2715
     41  CB        26.5620   39.5270   25.2470 C.3    80  ALA80       0.0334
     42  N         25.5390   38.1510   27.8630 N.am   81  GLU81      -0.1977
     43  CA        24.6230   37.2150   28.5030 C.3    81  GLU81       0.1602
     44  C         23.8670   37.7780   29.7020 C.2    81  GLU81       0.2287
     45  O         22.6420   37.7070   29.7550 O.2    81  GLU81      -0.2864
     46  CB        25.3680   35.9500   28.9240 C.3    81  GLU81       0.0415
     47  CG        25.9540   35.1870   27.7540 C.3    81  GLU81       0.1163
     48  CD        27.3970   35.5350   27.4620 C.2    81  GLU81       0.3649
     49  OE1       27.7540   36.7320   27.4500 O.co2  81  GLU81      -0.2457
     50  OE2       28.1790   34.5890   27.2350 O.co2  81  GLU81      -0.2457
     51  N         29.3080   34.1050   21.3110 N.3   111  ALA111     -0.1231
     52  CA        30.4260   33.2380   21.6870 C.3   111  ALA111      0.1694
     53  C         30.0580   32.3680   22.8950 C.2   111  ALA111      0.2591
     54  O         28.9810   32.5140   23.4770 O.2   111  ALA111     -0.2718
     55  CB        31.6750   34.0620   21.9880 C.3   111  ALA111      0.0304
     56  N         30.9430   31.4490   23.2620 N.am  112  GLU112     -0.1979
     57  CA        30.6650   30.5790   24.3890 C.3   112  GLU112      0.1602
     58  C         30.8810   31.3560   25.6810 C.2   112  GLU112      0.2287
     59  O         31.8930   32.0220   25.8650 O.2   112  GLU112     -0.2864
     60  CB        31.5470   29.3370   24.3150 C.3   112  GLU112      0.0415
     61  CG        31.4490   28.6690   22.9540 C.3   112  GLU112      0.1163
     62  CD        32.0130   27.2670   22.9210 C.2   112  GLU112      0.3649
     63  OE1       33.1100   27.0540   23.4780 O.co2 112  GLU112     -0.2457
     64  OE2       31.3600   26.3830   22.3230 O.co2 112  GLU112     -0.2457
     65  N         31.4660   32.9500   29.4610 N.3   114  CYS114     -0.1235
     66  CA        32.6310   33.0290   30.3460 C.3   114  CYS114      0.1677
     67  C         32.1770   32.3750   31.6510 C.2   114  CYS114      0.2270
     68  O         30.9900   32.4000   31.9700 O.2   114  CYS114     -0.2867
     69  CB        33.0280   34.4920   30.6010 C.3   114  CYS114      0.0956
     70  SG        31.9660   35.4500   31.7430 S.3   114  CYS114     -0.0801
     71  N         29.1490   34.2140   33.2470 N.3   117  CYS117     -0.1235
     72  CA        27.9080   34.0100   32.5080 C.3   117  CYS117      0.1677
     73  C         27.5200   32.5460   32.5480 C.2   117  CYS117      0.2270
     74  O         26.3360   32.2100   32.5810 O.2   117  CYS117     -0.2867
     75  CB        28.0580   34.4800   31.0590 C.3   117  CYS117      0.0956
     76  SG        28.1790   36.2710   30.9160 S.3   117  CYS117     -0.0801
     77  N         37.7090   32.6910   21.0090 N.3   138  VAL138     -0.1245
     78  CA        37.6440   33.8020   21.9390 C.3   138  VAL138      0.1561
     79  C         39.0120   34.1430   22.5160 C.2   138  VAL138      0.2260
     80  O         39.4300   35.2960   22.4730 O.2   138  VAL138     -0.2867
     81  CB        36.6320   33.4970   23.0810 C.3   138  VAL138      0.0252
     82  CG1       36.8840   34.4100   24.2910 C.3   138  VAL138      0.0019
     83  CG2       35.2130   33.6980   22.5630 C.3   138  VAL138      0.0019
     84  N         40.7480   37.5160   24.9830 N.3   143  PHE143     -0.1227
     85  CA        39.6490   37.7070   25.9170 C.3   143  PHE143      0.1736
     86  C         39.6820   36.4540   26.7670 C.2   143  PHE143      0.2595
     87  O         39.9460   35.3720   26.2500 O.2   143  PHE143     -0.2718
     88  CB        38.3040   37.8460   25.1790 C.3   143  PHE143      0.0547
     89  CG        37.9630   39.2700   24.7630 C.ar  143  PHE143     -0.0202
     90  CD1       37.5690   40.2190   25.7060 C.ar  143  PHE143     -0.0042
     91  CD2       38.0760   39.6690   23.4350 C.ar  143  PHE143     -0.0042
     92  CE1       37.2680   41.5410   25.3280 C.ar  143  PHE143     -0.0003
     93  CE2       37.7770   40.9870   23.0470 C.ar  143  PHE143     -0.0003
     94  CZ        37.3850   41.9260   24.0020 C.ar  143  PHE143     -0.0000
     95  N         39.4450   36.6040   28.0660 N.am  144  ASP144     -0.1960
     96  CA        39.4720   35.4720   28.9830 C.3   144  ASP144      0.1840
     97  C         38.0850   34.8480   29.1200 C.2   144  ASP144      0.2621
     98  O         37.0760   35.5360   29.0140 O.2   144  ASP144     -0.2715
     99  CB        39.9640   35.9410   30.3490 C.3   144  ASP144      0.1450
    100  CG        40.8510   34.9170   31.0410 C.2   144  ASP144      0.3671
    101  OD1       40.4470   33.7390   31.1420 O.co2 144  ASP144     -0.2456
    102  OD2       41.9560   35.2980   31.4950 O.co2 144  ASP144     -0.2456
    103  N         38.0390   33.5380   29.3240 N.am  145  GLU145     -0.1977
    104  CA        36.7770   32.8270   29.5030 C.3   145  GLU145      0.1602
    105  C         36.7450   32.4390   30.9610 C.2   145  GLU145      0.2287
    106  O         35.7210   32.0020   31.4820 O.2   145  GLU145     -0.2864
    107  CB        36.7190   31.5590   28.6480 C.3   145  GLU145      0.0415
    108  CG        36.4820   31.7830   27.1610 C.3   145  GLU145      0.1163
    109  CD        35.1130   32.3660   26.8470 C.2   145  GLU145      0.3649
    110  OE1       34.7280   32.3590   25.6640 O.co2 145  GLU145     -0.2457
    111  OE2       34.4230   32.8360   27.7710 O.co2 145  GLU145     -0.2457
@<TRIPOS>BOND
     1    77    78    1
     2    51    52    1
     3     1     2    1
     4    52    55    1
     5    52    53    1
     6    78    79    1
     7    78    81    1
     8     2     3    1
     9     2     5    1
    10     3     4    2
    11    64    62   ar
    12    80    79    2
    13    83    81    1
    14    53    56   am
    15    53    54    2
    16     9     7   ar
    17     9    11   ar
    18    62    61    1
    19    62    63   ar
    20    61    60    1
    21     7     6   ar
    22    93    91   ar
    23    93    94   ar
    24    81    82    1
    25    11    10   ar
    26    56    57    1
    27    91    89   ar
    28     6     5    1
    29     6     8   ar
    30    10     8   ar
    31    94    92   ar
    32    60    57    1
    33    57    58    1
    34    89    88    1
    35    89    90   ar
    36    84    85    1
    37    12    13    1
    38    88    85    1
    39    41    38    1
    40    15    14    2
    41    92    90   ar
    42    16    13    1
    43    16    17    1
    44   110   109   ar
    45    58    59    2
    46    85    86    1
    47    13    14    1
    48    87    86    2
    49    19    17   am
    50    17    18    2
    51    38    39    1
    52    38    37    1
    53    86    95   am
    54   109   108    1
    55   109   111   ar
    56   108   107    1
    57    40    39    2
    58    50    48   ar
    59    39    42   am
    60    37    29   am
    61    49    48   ar
    62    48    47    1
    63    47    46    1
    64    42    43    1
    65    95    96    1
    66    43    46    1
    67    43    44    1
    68   107   104    1
    69    29    30    2
    70    29    28    1
    71    96    97    1
    72    96    99    1
    73    98    97    2
    74    97   103   am
    75   103   104    1
    76    20    21    1
    77    65    66    1
    78   104   105    1
    79    28    31    1
    80    28    27    1
    81    44    45    2
    82    31    32    1
    83    26    24    1
    84    32    34   ar
    85    32    33   ar
    86    66    69    1
    87    66    67    1
    88    24    21    1
    89    24    25    1
    90    99   100    1
    91    21    22    1
    92    22    23    2
    93    34    36   ar
    94    69    70    1
    95    33    35   ar
    96    36    35   ar
    97    76    75    1
    98   105   106    2
    99   100   101   ar
   100   100   102   ar
   101    75    72    1
   102    67    68    2
   103    72    73    1
   104    72    71    1
   105    73    74    2
