@<TRIPOS>MOLECULE
tmp/4ldeA01.pdb
 109 101 0 0 0
SMALL
GASTEIGER

@<TRIPOS>ATOM
      1  N        -21.5900  -24.0990  -56.0180 N.3   176  VAL176     -0.1245
      2  CA       -21.2990  -22.6720  -55.9510 C.3   176  VAL176      0.1561
      3  C        -22.2150  -22.0030  -54.9230 C.2   176  VAL176      0.2260
      4  O        -21.7830  -21.1480  -54.1500 O.2   176  VAL176     -0.2867
      5  CB       -21.4890  -21.9980  -57.3300 C.3   176  VAL176      0.0252
      6  CG1      -21.3200  -20.4920  -57.2170 C.3   176  VAL176      0.0019
      7  CG2      -20.5080  -22.5800  -58.3440 C.3   176  VAL176      0.0019
      8  N        -21.2570  -22.9530  -51.4690 N.3   179  MET179     -0.1245
      9  CA       -20.0190  -22.2440  -51.1710 C.3   179  MET179      0.1570
     10  C        -20.3350  -20.8580  -50.6280 C.2   179  MET179      0.2261
     11  O        -19.7020  -20.3890  -49.6850 O.2   179  MET179     -0.2867
     12  CB       -19.1830  -22.1160  -52.4520 C.3   179  MET179      0.0387
     13  CG       -17.6780  -22.0050  -52.2490 C.3   179  MET179      0.0595
     14  SD       -16.7960  -21.5810  -53.7760 S.3   179  MET179     -0.1393
     15  CE       -16.5350  -23.1880  -54.5340 C.3   179  MET179      0.0692
     16  N        -21.6040  -20.6270  -46.9280 N.3   182  VAL182     -0.1231
     17  CA       -20.5330  -20.9630  -45.9970 C.3   182  VAL182      0.1692
     18  C        -19.6620  -19.7410  -45.7500 C.2   182  VAL182      0.2591
     19  O        -19.2670  -19.4700  -44.6160 O.2   182  VAL182     -0.2718
     20  CB       -19.6640  -22.1260  -46.5160 C.3   182  VAL182      0.0266
     21  CG1      -18.4070  -22.2740  -45.6750 C.3   182  VAL182      0.0020
     22  CG2      -20.4600  -23.4210  -46.5200 C.3   182  VAL182      0.0020
     23  N        -19.3820  -19.0000  -46.8200 N.am  183  MET183     -0.1979
     24  CA       -18.6300  -17.7530  -46.7270 C.3   183  MET183      0.1605
     25  C        -19.3340  -16.7540  -45.8140 C.2   183  MET183      0.2287
     26  O        -18.6930  -16.0690  -45.0180 O.2   183  MET183     -0.2864
     27  CB       -18.4190  -17.1470  -48.1180 C.3   183  MET183      0.0413
     28  CG       -17.4990  -17.9660  -49.0140 C.3   183  MET183      0.0598
     29  SD       -17.2230  -17.2200  -50.6330 S.3   183  MET183     -0.1393
     30  CE       -16.2520  -18.4990  -51.4280 C.3   183  MET183      0.0692
     31  N        -18.8200  -17.6910  -42.3320 N.3   186  ILE186     -0.1245
     32  CA       -17.4590  -17.3590  -41.9420 C.3   186  ILE186      0.1561
     33  C        -17.3880  -15.8930  -41.5380 C.2   186  ILE186      0.2260
     34  O        -16.8940  -15.5700  -40.4630 O.2   186  ILE186     -0.2867
     35  CB       -16.4400  -17.6600  -43.0620 C.3   186  ILE186      0.0252
     36  CG1      -16.3850  -19.1630  -43.3370 C.3   186  ILE186      0.0019
     37  CG2      -15.0560  -17.1600  -42.6790 C.3   186  ILE186      0.0019
     38  CD1      -15.4050  -19.5580  -44.4210 C.3   186  ILE186      0.0001
     39  N        -14.8770  -13.8580  -55.7920 N.3   237  ILE237     -0.1245
     40  CA       -14.9100  -15.2540  -56.2110 C.3   237  ILE237      0.1561
     41  C        -16.2660  -15.6300  -56.7960 C.2   237  ILE237      0.2260
     42  O        -16.3440  -16.2970  -57.8310 O.2   237  ILE237     -0.2867
     43  CB       -14.6150  -16.1950  -55.0240 C.3   237  ILE237      0.0252
     44  CG1      -13.1900  -15.9810  -54.5070 C.3   237  ILE237      0.0019
     45  CG2      -14.8350  -17.6530  -55.4170 C.3   237  ILE237      0.0019
     46  CD1      -12.8730  -16.7710  -53.2480 C.3   237  ILE237      0.0001
     47  N        -17.1490  -13.9420  -60.1170 N.3   240  LYS240     -0.1245
     48  CA       -16.0950  -14.2620  -61.0900 C.3   240  LYS240      0.1561
     49  C        -15.2060  -13.0800  -61.4980 C.2   240  LYS240      0.2260
     50  O        -14.1730  -13.2780  -62.1330 O.2   240  LYS240     -0.2867
     51  CB       -16.6760  -14.9240  -62.3470 C.3   240  LYS240      0.0271
     52  CG       -17.6670  -16.0470  -62.0880 C.3   240  LYS240      0.0035
     53  CD       -17.0190  -17.2310  -61.3990 C.3   240  LYS240      0.0206
     54  CE       -17.9870  -18.4010  -61.3200 C.3   240  LYS240      0.1093
     55  NZ       -19.2890  -18.0080  -60.7090 N.3   240  LYS240     -0.1314
     56  N         -7.1660  -22.6170  -57.9260 N.3   418  GLU418     -0.1245
     57  CA        -8.2410  -22.9750  -57.0050 C.3   418  GLU418      0.1567
     58  C         -7.6970  -23.3490  -55.6280 C.2   418  GLU418      0.2260
     59  O         -8.2600  -22.9630  -54.6040 O.2   418  GLU418     -0.2867
     60  CB        -9.0820  -24.1300  -57.5600 C.3   418  GLU418      0.0388
     61  CG        -9.6950  -23.8830  -58.9330 C.3   418  GLU418      0.1160
     62  CD        -8.7010  -24.0820  -60.0690 C.2   418  GLU418      0.3649
     63  OE1       -8.9630  -24.9280  -60.9550 O.co2 418  GLU418     -0.2457
     64  OE2       -7.6610  -23.3880  -60.0740 O.co2 418  GLU418     -0.2457
     65  N         -6.3050  -20.4440  -53.5110 N.3   421  ILE421     -0.1231
     66  CA        -7.3750  -19.6200  -52.9520 C.3   421  ILE421      0.1692
     67  C         -8.0620  -20.2990  -51.7680 C.2   421  ILE421      0.2591
     68  O         -8.4000  -19.6500  -50.7780 O.2   421  ILE421     -0.2718
     69  CB        -8.4280  -19.2690  -54.0140 C.3   421  ILE421      0.0266
     70  CG1       -7.7680  -18.5550  -55.1940 C.3   421  ILE421      0.0019
     71  CG2       -9.5010  -18.3970  -53.4140 C.3   421  ILE421      0.0020
     72  CD1       -8.7350  -18.1240  -56.2660 C.3   421  ILE421      0.0001
     73  N         -8.2590  -21.6090  -51.8810 N.am  422  LEU422     -0.1980
     74  CA        -8.8740  -22.4010  -50.8220 C.3   422  LEU422      0.1596
     75  C         -8.0070  -22.4120  -49.5700 C.2   422  LEU422      0.2287
     76  O         -8.5000  -22.2250  -48.4550 O.2   422  LEU422     -0.2864
     77  CB        -9.0950  -23.8340  -51.3040 C.3   422  LEU422      0.0297
     78  CG        -9.4850  -24.8530  -50.2340 C.3   422  LEU422      0.0022
     79  CD1      -10.8310  -24.4950  -49.6190 C.3   422  LEU422      0.0001
     80  CD2       -9.5010  -26.2570  -50.8190 C.3   422  LEU422      0.0001
     81  N         -8.1520  -19.2580  -47.8520 N.3   425  TRP425     -0.1227
     82  CA        -9.4070  -19.1250  -47.1140 C.3   425  TRP425      0.1737
     83  C         -9.4220  -19.9610  -45.8410 C.2   425  TRP425      0.2595
     84  O        -10.0930  -19.6160  -44.8740 O.2   425  TRP425     -0.2718
     85  CB       -10.6110  -19.4570  -48.0060 C.3   425  TRP425      0.0564
     86  CG       -11.1190  -18.2540  -48.7410 C.ar  425  TRP425      0.0003
     87  CD1      -10.5590  -17.6710  -49.8380 C.ar  425  TRP425      0.0946
     88  CD2      -12.2740  -17.4710  -48.4150 C.ar  425  TRP425      0.0152
     89  NE1      -11.2940  -16.5750  -50.2200 N.ar  425  TRP425     -0.2442
     90  CE2      -12.3530  -16.4310  -49.3630 C.ar  425  TRP425      0.0810
     91  CE3      -13.2500  -17.5480  -47.4150 C.ar  425  TRP425      0.0012
     92  CZ2      -13.3680  -15.4780  -49.3430 C.ar  425  TRP425      0.0191
     93  CZ3      -14.2580  -16.6010  -47.3980 C.ar  425  TRP425      0.0001
     94  CH2      -14.3090  -15.5790  -48.3560 C.ar  425  TRP425      0.0015
     95  N         -8.6750  -21.0580  -45.8450 N.am  426  ILE426     -0.1980
     96  CA        -8.4750  -21.8450  -44.6350 C.3   426  ILE426      0.1595
     97  C         -7.6620  -21.0250  -43.6310 C.2   426  ILE426      0.2287
     98  O         -7.7750  -21.2100  -42.4220 O.2   426  ILE426     -0.2864
     99  CB        -7.7950  -23.1980  -44.9600 C.3   426  ILE426      0.0276
    100  CG1       -8.7290  -24.0490  -45.8240 C.3   426  ILE426      0.0022
    101  CG2       -7.4140  -23.9600  -43.6940 C.3   426  ILE426      0.0022
    102  CD1       -8.1940  -25.4270  -46.1390 C.3   426  ILE426      0.0001
    103  N        -10.1450  -18.3460  -41.8850 N.3   429  VAL429     -0.1245
    104  CA       -11.0250  -18.8360  -40.8270 C.3   429  VAL429      0.1561
    105  C        -10.3130  -18.9460  -39.4810 C.2   429  VAL429      0.2260
    106  O        -10.9340  -19.2210  -38.4570 O.2   429  VAL429     -0.2867
    107  CB       -11.6660  -20.1920  -41.1830 C.3   429  VAL429      0.0252
    108  CG1      -12.2950  -20.1250  -42.5550 C.3   429  VAL429      0.0019
    109  CG2      -10.6420  -21.3030  -41.1170 C.3   429  VAL429      0.0019
@<TRIPOS>BOND
     1    51    52    1
     2    51    48    1
     3    50    49    2
     4    52    53    1
     5    49    48    1
     6    53    54    1
     7    54    55    1
     8    48    47    1
     9    63    62   ar
    10    64    62   ar
    11    62    61    1
    12    61    60    1
    13     7     5    1
    14    56    57    1
    15    42    41    2
    16    60    57    1
    17     5     6    1
    18     5     2    1
    19    57    58    1
    20    41    40    1
    21    72    70    1
    22    40    39    1
    23    40    43    1
    24     1     2    1
    25     2     3    1
    26    58    59    2
    27    45    43    1
    28    70    69    1
    29    43    44    1
    30     3     4    2
    31    15    14    1
    32    44    46    1
    33    69    71    1
    34    69    66    1
    35    14    13    1
    36    65    66    1
    37    66    67    1
    38    12    13    1
    39    12     9    1
    40    73    67   am
    41    73    74    1
    42    67    68    2
    43     8     9    1
    44    30    29    1
    45    77    74    1
    46    77    78    1
    47     9    10    1
    48    74    75    1
    49    80    78    1
    50    29    28    1
    51    10    11    2
    52    78    79    1
    53    89    87   ar
    54    89    90   ar
    55    87    86   ar
    56    75    76    2
    57    90    92   ar
    58    90    88   ar
    59    92    94   ar
    60    28    27    1
    61    86    88   ar
    62    86    85    1
    63    88    91   ar
    64    94    93   ar
    65    27    24    1
    66    85    82    1
    67    81    82    1
    68    91    93   ar
    69    82    83    1
    70    16    17    1
    71    23    24    1
    72    23    18   am
    73    24    25    1
    74    22    20    1
    75    20    17    1
    76    20    21    1
    77   102   100    1
    78    17    18    1
    79    95    83   am
    80    95    96    1
    81    83    84    2
    82   100    99    1
    83    25    26    2
    84    18    19    2
    85    99    96    1
    86    99   101    1
    87    96    97    1
    88    38    36    1
    89    97    98    2
    90    36    35    1
    91    35    37    1
    92    35    32    1
    93   108   107    1
    94    31    32    1
    95    32    33    1
    96   103   104    1
    97    33    34    2
    98   107   109    1
    99   107   104    1
   100   104   105    1
   101   105   106    2
