@<TRIPOS>MOLECULE
tmp/4ldeA00.pdb
 228 226 0 0 0
SMALL
GASTEIGER

@<TRIPOS>ATOM
      1  N        -15.6400  -11.2850  -54.9700 N.3   236  HIS236     -0.1226
      2  CA       -14.6850  -11.4490  -56.0580 C.3   236  HIS236      0.1752
      3  C        -14.7380  -12.8590  -56.6570 C.2   236  HIS236      0.2595
      4  O        -14.6540  -13.0330  -57.8740 O.2   236  HIS236     -0.2718
      5  CB       -13.2740  -11.1500  -55.5500 C.3   236  HIS236      0.0759
      6  CG       -12.2270  -11.1720  -56.6170 C.ar  236  HIS236      0.0818
      7  ND1      -11.5130  -12.3080  -56.9380 N.ar  236  HIS236     -0.2268
      8  CD2      -11.7650  -10.1970  -57.4340 C.ar  236  HIS236      0.1154
      9  CE1      -10.6600  -12.0300  -57.9050 C.ar  236  HIS236      0.1986
     10  NE2      -10.7950  -10.7550  -58.2270 N.ar  236  HIS236     -0.2212
     11  N        -14.8770  -13.8580  -55.7920 N.am  237  ILE237     -0.1980
     12  CA       -14.9100  -15.2540  -56.2110 C.3   237  ILE237      0.1595
     13  C        -16.2660  -15.6300  -56.7960 C.2   237  ILE237      0.2287
     14  O        -16.3440  -16.2970  -57.8310 O.2   237  ILE237     -0.2864
     15  CB       -14.6150  -16.1950  -55.0240 C.3   237  ILE237      0.0276
     16  CG1      -13.1900  -15.9810  -54.5070 C.3   237  ILE237      0.0022
     17  CG2      -14.8350  -17.6530  -55.4170 C.3   237  ILE237      0.0022
     18  CD1      -12.8730  -16.7710  -53.2480 C.3   237  ILE237      0.0001
     19  N         -7.6440   -3.1030  -51.2060 N.3   252  TRP252     -0.1227
     20  CA        -8.1450   -4.3110  -50.5640 C.3   252  TRP252      0.1737
     21  C         -7.0260   -5.3280  -50.3560 C.2   252  TRP252      0.2596
     22  O         -6.8550   -5.8440  -49.2550 O.2   252  TRP252     -0.2718
     23  CB        -9.2860   -4.9110  -51.3870 C.3   252  TRP252      0.0564
     24  CG        -9.6580   -6.2980  -51.0130 C.ar  252  TRP252      0.0003
     25  CD1      -10.2160   -6.7140  -49.8390 C.ar  252  TRP252      0.0946
     26  CD2       -9.5240   -7.4620  -51.8300 C.ar  252  TRP252      0.0152
     27  NE1      -10.4250   -8.0730  -49.8720 N.ar  252  TRP252     -0.2442
     28  CE2      -10.0080   -8.5550  -51.0840 C.ar  252  TRP252      0.0810
     29  CE3       -9.0380   -7.6870  -53.1200 C.ar  252  TRP252      0.0012
     30  CZ2      -10.0160   -9.8530  -51.5850 C.ar  252  TRP252      0.0191
     31  CZ3       -9.0530   -8.9720  -53.6160 C.ar  252  TRP252      0.0001
     32  CH2       -9.5360  -10.0410  -52.8520 C.ar  252  TRP252      0.0015
     33  N         -6.2610   -5.5970  -51.4110 N.am  253  THR253     -0.1953
     34  CA        -5.1000   -6.4870  -51.3290 C.3   253  THR253      0.1897
     35  C         -4.1320   -6.0550  -50.2190 C.2   253  THR253      0.2313
     36  O         -3.5440   -6.8910  -49.5330 O.2   253  THR253     -0.2863
     37  CB        -4.3600   -6.5830  -52.6960 C.3   253  THR253      0.1794
     38  OG1       -5.1470   -7.3500  -53.6170 O.3   253  THR253     -0.2208
     39  CG2       -3.0070   -7.2550  -52.5470 C.3   253  THR253      0.0378
     40  N         -5.6530   -6.9940  -46.8660 N.3   256  ASP256     -0.1225
     41  CA        -5.4810   -8.4400  -46.7290 C.3   256  ASP256      0.1805
     42  C         -4.1630   -8.7520  -46.0410 C.2   256  ASP256      0.2597
     43  O         -4.1380   -9.2940  -44.9360 O.2   256  ASP256     -0.2718
     44  CB        -5.5100   -9.0960  -48.1160 C.3   256  ASP256      0.1424
     45  CG        -5.6190  -10.6140  -48.0580 C.2   256  ASP256      0.3668
     46  OD1       -5.0080  -11.2390  -47.1680 O.co2 256  ASP256     -0.2456
     47  OD2       -6.3200  -11.1880  -48.9160 O.co2 256  ASP256     -0.2456
     48  N         -3.0670   -8.3980  -46.7050 N.am  257  VAL257     -0.1980
     49  CA        -1.7360   -8.6940  -46.2000 C.3   257  VAL257      0.1595
     50  C         -1.4740   -7.9850  -44.8750 C.2   257  VAL257      0.2287
     51  O         -0.8130   -8.5360  -43.9940 O.2   257  VAL257     -0.2864
     52  CB        -0.6440   -8.3210  -47.2220 C.3   257  VAL257      0.0276
     53  CG1        0.7160   -8.8210  -46.7550 C.3   257  VAL257      0.0022
     54  CG2       -0.9760   -8.9100  -48.5770 C.3   257  VAL257      0.0022
     55  N         -3.3730   -9.9690  -42.0160 N.3   260  VAL260     -0.1245
     56  CA        -2.8150  -11.3060  -41.8420 C.3   260  VAL260      0.1561
     57  C         -1.4660  -11.2170  -41.1240 C.2   260  VAL260      0.2260
     58  O         -1.1470  -12.0460  -40.2720 O.2   260  VAL260     -0.2867
     59  CB        -2.6630  -12.0500  -43.1920 C.3   260  VAL260      0.0252
     60  CG1       -1.8660  -13.3350  -43.0140 C.3   260  VAL260      0.0019
     61  CG2       -4.0230  -12.3540  -43.7980 C.3   260  VAL260      0.0019
     62  N         -8.3860   -8.6200  -60.5300 N.3   334  CYS334     -0.1221
     63  CA        -7.6980   -8.4060  -59.2600 C.3   334  CYS334      0.1808
     64  C         -7.0060   -9.6790  -58.7840 C.2   334  CYS334      0.2601
     65  O         -6.8800   -9.9260  -57.5820 O.2   334  CYS334     -0.2717
     66  CB        -8.6550   -7.8790  -58.1850 C.3   334  CYS334      0.0970
     67  SG        -7.7870   -7.1130  -56.8000 S.3   334  CYS334     -0.0800
     68  N         -6.5690  -10.4910  -59.7410 N.am  335  ASP335     -0.1959
     69  CA        -5.7760  -11.6690  -59.4350 C.3   335  ASP335      0.1840
     70  C         -4.4780  -11.2230  -58.7830 C.2   335  ASP335      0.2622
     71  O         -3.9900  -10.1220  -59.0350 O.2   335  ASP335     -0.2715
     72  CB        -5.4870  -12.4730  -60.7030 C.3   335  ASP335      0.1450
     73  CG        -6.7460  -13.0330  -61.3400 C.2   335  ASP335      0.3671
     74  OD1       -7.7600  -13.1900  -60.6230 O.co2 335  ASP335     -0.2456
     75  OD2       -6.7200  -13.3200  -62.5560 O.co2 335  ASP335     -0.2456
     76  N         -3.9220  -12.0780  -57.9390 N.am  336  PHE336     -0.1974
     77  CA        -2.7460  -11.7080  -57.1740 C.3   336  PHE336      0.1639
     78  C         -1.4570  -12.2200  -57.8160 C.2   336  PHE336      0.2290
     79  O         -1.2410  -13.4280  -57.9350 O.2   336  PHE336     -0.2864
     80  CB        -2.8810  -12.2240  -55.7480 C.3   336  PHE336      0.0560
     81  CG        -1.8220  -11.7230  -54.8250 C.ar  336  PHE336     -0.0200
     82  CD1       -1.8290  -10.4050  -54.4020 C.ar  336  PHE336     -0.0042
     83  CD2       -0.8260  -12.5700  -54.3670 C.ar  336  PHE336     -0.0042
     84  CE1       -0.8580   -9.9350  -53.5430 C.ar  336  PHE336     -0.0003
     85  CE2        0.1460  -12.1080  -53.5080 C.ar  336  PHE336     -0.0003
     86  CZ         0.1270  -10.7860  -53.0930 C.ar  336  PHE336     -0.0000
     87  N          9.2030  -10.2150  -53.2980 N.3   342  TYR342     -0.1227
     88  CA         8.1320   -9.8320  -52.3800 C.3   342  TYR342      0.1736
     89  C          7.4460  -11.0270  -51.7320 C.2   342  TYR342      0.2595
     90  O          7.1400  -11.0040  -50.5400 O.2   342  TYR342     -0.2718
     91  CB         7.0810   -8.9680  -53.0820 C.3   342  TYR342      0.0548
     92  CG         5.9280   -8.5930  -52.1730 C.ar  342  TYR342     -0.0200
     93  CD1        6.0090   -7.4870  -51.3380 C.ar  342  TYR342     -0.0009
     94  CD2        4.7640   -9.3560  -52.1380 C.ar  342  TYR342     -0.0009
     95  CE1        4.9650   -7.1470  -50.5010 C.ar  342  TYR342      0.0417
     96  CE2        3.7140   -9.0260  -51.3010 C.ar  342  TYR342      0.0417
     97  CZ         3.8200   -7.9200  -50.4860 C.ar  342  TYR342      0.1957
     98  OH         2.7760   -7.5820  -49.6540 O.3   342  TYR342     -0.2866
     99  N          7.1840  -12.0580  -52.5240 N.am  343  ALA343     -0.1980
    100  CA         6.4620  -13.2230  -52.0370 C.3   343  ALA343      0.1597
    101  C          7.2680  -13.9840  -50.9840 C.2   343  ALA343      0.2287
    102  O          6.7020  -14.6550  -50.1220 O.2   343  ALA343     -0.2864
    103  CB         6.0890  -14.1320  -53.1940 C.3   343  ALA343      0.0319
    104  N          7.6470  -11.2110  -47.7470 N.3   346  SER346     -0.1202
    105  CA         6.3980  -11.0610  -47.0120 C.3   346  SER346      0.2020
    106  C          6.0530  -12.3360  -46.2480 C.2   346  SER346      0.2619
    107  O          5.5290  -12.2740  -45.1390 O.2   346  SER346     -0.2717
    108  CB         5.2460  -10.6530  -47.9400 C.3   346  SER346      0.2103
    109  OG         4.9210  -11.6790  -48.8610 O.3   346  SER346     -0.2182
    110  N          6.3580  -13.4890  -46.8330 N.am  347  SER347     -0.1951
    111  CA         6.0430  -14.7570  -46.1880 C.3   347  SER347      0.1924
    112  C          6.8790  -14.9730  -44.9300 C.2   347  SER347      0.2314
    113  O          6.3900  -15.5080  -43.9370 O.2   347  SER347     -0.2863
    114  CB         6.2430  -15.9180  -47.1580 C.3   347  SER347      0.2116
    115  OG         5.4720  -15.7280  -48.3270 O.3   347  SER347     -0.2180
    116  N          5.3360  -12.2690  -42.4280 N.3   350  SER350     -0.1217
    117  CA         3.9510  -12.5460  -42.0610 C.3   350  SER350      0.1889
    118  C          3.7640  -13.8720  -41.3330 C.2   350  SER350      0.2288
    119  O          2.9120  -13.9840  -40.4520 O.2   350  SER350     -0.2866
    120  CB         3.0420  -12.5160  -43.2920 C.3   350  SER350      0.2089
    121  OG         2.8580  -11.1970  -43.7710 O.3   350  SER350     -0.2183
    122  N         -2.7000  -21.8410  -41.4220 N.3   398  TRP398     -0.1241
    123  CA        -1.8220  -20.9470  -42.1760 C.3   398  TRP398      0.1605
    124  C         -0.6190  -21.6020  -42.8530 C.2   398  TRP398      0.2264
    125  O         -0.1370  -21.1050  -43.8710 O.2   398  TRP398     -0.2867
    126  CB        -1.3550  -19.7850  -41.3060 C.3   398  TRP398      0.0550
    127  CG        -2.3380  -18.6640  -41.2350 C.ar  398  TRP398      0.0003
    128  CD1       -2.9710  -18.2000  -40.1200 C.ar  398  TRP398      0.0946
    129  CD2       -2.8050  -17.8590  -42.3260 C.ar  398  TRP398      0.0152
    130  NE1       -3.8020  -17.1550  -40.4480 N.ar  398  TRP398     -0.2442
    131  CE2       -3.7190  -16.9270  -41.7960 C.ar  398  TRP398      0.0810
    132  CE3       -2.5400  -17.8380  -43.7000 C.ar  398  TRP398      0.0012
    133  CZ2       -4.3650  -15.9790  -42.5910 C.ar  398  TRP398      0.0191
    134  CZ3       -3.1860  -16.8990  -44.4850 C.ar  398  TRP398      0.0001
    135  CH2       -4.0870  -15.9820  -43.9280 C.ar  398  TRP398      0.0015
    136  N         -0.9600  -22.7070  -46.7320 N.3   401  PHE401     -0.1227
    137  CA        -0.9550  -21.6070  -47.6920 C.3   401  PHE401      0.1736
    138  C          0.4520  -21.0820  -47.9420 C.2   401  PHE401      0.2595
    139  O          0.8700  -20.9390  -49.0880 O.2   401  PHE401     -0.2718
    140  CB        -1.8590  -20.4650  -47.2300 C.3   401  PHE401      0.0547
    141  CG        -1.7160  -19.2180  -48.0490 C.ar  401  PHE401     -0.0202
    142  CD1       -2.1980  -19.1670  -49.3440 C.ar  401  PHE401     -0.0042
    143  CD2       -1.1000  -18.0900  -47.5210 C.ar  401  PHE401     -0.0042
    144  CE1       -2.0710  -18.0170  -50.1010 C.ar  401  PHE401     -0.0003
    145  CE2       -0.9670  -16.9290  -48.2740 C.ar  401  PHE401     -0.0003
    146  CZ        -1.4530  -16.8940  -49.5640 C.ar  401  PHE401     -0.0000
    147  N          1.1800  -20.7990  -46.8670 N.am  402  PHE402     -0.1976
    148  CA         2.4910  -20.1750  -46.9910 C.3   402  PHE402      0.1639
    149  C          3.5390  -21.1260  -47.5470 C.2   402  PHE402      0.2290
    150  O          4.5260  -20.6940  -48.1390 O.2   402  PHE402     -0.2864
    151  CB         2.9400  -19.5560  -45.6660 C.3   402  PHE402      0.0560
    152  CG         2.3380  -18.2100  -45.4050 C.ar  402  PHE402     -0.0200
    153  CD1        2.8840  -17.0700  -45.9800 C.ar  402  PHE402     -0.0042
    154  CD2        1.2090  -18.0820  -44.6060 C.ar  402  PHE402     -0.0042
    155  CE1        2.3240  -15.8230  -45.7510 C.ar  402  PHE402     -0.0003
    156  CE2        0.6400  -16.8370  -44.3700 C.ar  402  PHE402     -0.0003
    157  CZ         1.1960  -15.7060  -44.9410 C.ar  402  PHE402     -0.0000
    158  N          2.4570  -21.0050  -51.2440 N.3   405  ASN405     -0.1240
    159  CA         2.8660  -19.6900  -51.7150 C.3   405  ASN405      0.1653
    160  C          4.3270  -19.6770  -52.1380 C.2   405  ASN405      0.2266
    161  O          4.6930  -19.0350  -53.1240 O.2   405  ASN405     -0.2867
    162  CB         2.6560  -18.6560  -50.6160 C.3   405  ASN405      0.1155
    163  CG         2.8350  -17.2450  -51.1110 C.2   405  ASN405      0.2627
    164  OD1        2.4820  -16.9230  -52.2470 O.2   405  ASN405     -0.2716
    165  ND2        3.3920  -16.3910  -50.2650 N.am  405  ASN405     -0.0877
    166  N         -4.7460  -22.5700  -59.3760 N.3   417  LYS417     -0.1245
    167  CA        -5.2390  -21.3610  -58.7170 C.3   417  LYS417      0.1561
    168  C         -6.2950  -21.6500  -57.6520 C.2   417  LYS417      0.2260
    169  O         -6.3090  -21.0110  -56.6010 O.2   417  LYS417     -0.2867
    170  CB        -5.7790  -20.3560  -59.7420 C.3   417  LYS417      0.0271
    171  CG        -6.2520  -19.0450  -59.1220 C.3   417  LYS417      0.0035
    172  CD        -6.5010  -17.9760  -60.1700 C.3   417  LYS417      0.0206
    173  CE        -7.5550  -18.4090  -61.1720 C.3   417  LYS417      0.1093
    174  NZ        -7.7530  -17.3920  -62.2450 N.3   417  LYS417     -0.1314
    175  N         -4.6930  -22.5200  -54.2590 N.3   420  TYR420     -0.1227
    176  CA        -4.0600  -21.3570  -53.6540 C.3   420  TYR420      0.1736
    177  C         -5.0910  -20.4700  -52.9700 C.2   420  TYR420      0.2595
    178  O         -4.7960  -19.8320  -51.9650 O.2   420  TYR420     -0.2718
    179  CB        -3.3040  -20.5740  -54.7310 C.3   420  TYR420      0.0548
    180  CG        -2.5070  -19.3820  -54.2440 C.ar  420  TYR420     -0.0200
    181  CD1       -1.1740  -19.5150  -53.8710 C.ar  420  TYR420     -0.0009
    182  CD2       -3.0790  -18.1180  -54.1950 C.ar  420  TYR420     -0.0009
    183  CE1       -0.4390  -18.4200  -53.4470 C.ar  420  TYR420      0.0417
    184  CE2       -2.3560  -17.0220  -53.7730 C.ar  420  TYR420      0.0417
    185  CZ        -1.0380  -17.1750  -53.3990 C.ar  420  TYR420      0.1957
    186  OH        -0.3260  -16.0750  -52.9760 O.3   420  TYR420     -0.2866
    187  N         -6.3050  -20.4440  -53.5110 N.am  421  ILE421     -0.1980
    188  CA        -7.3750  -19.6200  -52.9520 C.3   421  ILE421      0.1595
    189  C         -8.0620  -20.2990  -51.7680 C.2   421  ILE421      0.2287
    190  O         -8.4000  -19.6500  -50.7780 O.2   421  ILE421     -0.2864
    191  CB        -8.4280  -19.2690  -54.0140 C.3   421  ILE421      0.0276
    192  CG1       -7.7680  -18.5550  -55.1940 C.3   421  ILE421      0.0022
    193  CG2       -9.5010  -18.3970  -53.4140 C.3   421  ILE421      0.0022
    194  CD1       -8.7350  -18.1240  -56.2660 C.3   421  ILE421      0.0001
    195  N         -5.8010  -20.2170  -48.8700 N.3   424  ASN424     -0.1225
    196  CA        -5.8080  -18.8490  -48.3550 C.3   424  ASN424      0.1785
    197  C         -7.0380  -18.6320  -47.4750 C.2   424  ASN424      0.2597
    198  O         -6.9730  -17.9210  -46.4770 O.2   424  ASN424     -0.2718
    199  CB        -5.7790  -17.8240  -49.4970 C.3   424  ASN424      0.1169
    200  CG        -5.2460  -16.4550  -49.0590 C.2   424  ASN424      0.2627
    201  OD1       -4.8580  -15.6350  -49.8950 O.2   424  ASN424     -0.2716
    202  ND2       -5.2180  -16.2080  -47.7520 N.am  424  ASN424     -0.0877
    203  N         -8.1520  -19.2580  -47.8520 N.am  425  TRP425     -0.1976
    204  CA        -9.4070  -19.1250  -47.1140 C.3   425  TRP425      0.1640
    205  C         -9.4220  -19.9610  -45.8410 C.2   425  TRP425      0.2290
    206  O        -10.0930  -19.6160  -44.8740 O.2   425  TRP425     -0.2864
    207  CB       -10.6110  -19.4570  -48.0060 C.3   425  TRP425      0.0576
    208  CG       -11.1190  -18.2540  -48.7410 C.ar  425  TRP425      0.0006
    209  CD1      -10.5590  -17.6710  -49.8380 C.ar  425  TRP425      0.0946
    210  CD2      -12.2740  -17.4710  -48.4150 C.ar  425  TRP425      0.0152
    211  NE1      -11.2940  -16.5750  -50.2200 N.ar  425  TRP425     -0.2442
    212  CE2      -12.3530  -16.4310  -49.3630 C.ar  425  TRP425      0.0810
    213  CE3      -13.2500  -17.5480  -47.4150 C.ar  425  TRP425      0.0012
    214  CZ2      -13.3680  -15.4780  -49.3430 C.ar  425  TRP425      0.0191
    215  CZ3      -14.2580  -16.6010  -47.3980 C.ar  425  TRP425      0.0001
    216  CH2      -14.3090  -15.5790  -48.3560 C.ar  425  TRP425      0.0015
    217  N         -7.9950  -17.6710  -43.5410 N.3   428  TYR428     -0.1241
    218  CA        -8.9330  -16.6350  -43.1240 C.3   428  TYR428      0.1605
    219  C         -9.7590  -17.0740  -41.9180 C.2   428  TYR428      0.2264
    220  O        -10.0390  -16.2740  -41.0280 O.2   428  TYR428     -0.2867
    221  CB        -9.8730  -16.2570  -44.2730 C.3   428  TYR428      0.0534
    222  CG        -9.2310  -15.4540  -45.3860 C.ar  428  TYR428     -0.0201
    223  CD1       -7.9770  -14.8800  -45.2270 C.ar  428  TYR428     -0.0009
    224  CD2       -9.8890  -15.2660  -46.5970 C.ar  428  TYR428     -0.0009
    225  CE1       -7.3960  -14.1420  -46.2440 C.ar  428  TYR428      0.0417
    226  CE2       -9.3170  -14.5310  -47.6180 C.ar  428  TYR428      0.0417
    227  CZ        -8.0720  -13.9720  -47.4370 C.ar  428  TYR428      0.1957
    228  OH        -7.5000  -13.2430  -48.4540 O.3   428  TYR428     -0.2866
@<TRIPOS>BOND
     1    75    73   ar
     2   174   173    1
     3    73    72    1
     4    73    74   ar
     5   173   172    1
     6    72    69    1
     7    62    63    1
     8   172   171    1
     9   170   171    1
    10   170   167    1
    11    68    69    1
    12    68    64   am
    13    69    70    1
    14   166   167    1
    15    63    64    1
    16    63    66    1
    17    71    70    2
    18    64    65    2
    19    70    76   am
    20   167   168    1
    21    10     9   ar
    22    10     8   ar
    23    66    67    1
    24    76    77    1
    25    79    78    2
    26     9     7   ar
    27     4     3    2
    28    14    13    2
    29    78    77    1
    30   168   169    2
    31     8     6   ar
    32    77    80    1
    33     7     6   ar
    34    13    12    1
    35     3     2    1
    36     3    11   am
    37     6     5    1
    38   194   192    1
    39    12    11    1
    40    12    15    1
    41     2     5    1
    42     2     1    1
    43    80    81    1
    44    17    15    1
    45   192   191    1
    46    15    16    1
    47    81    82   ar
    48    81    83   ar
    49   179   180    1
    50   179   176    1
    51    16    18    1
    52    82    84   ar
    53    83    85   ar
    54   175   176    1
    55   180   182   ar
    56   180   181   ar
    57   182   184   ar
    58   191   193    1
    59   191   188    1
    60   181   183   ar
    61   184   185   ar
    62   176   177    1
    63    38    37    1
    64    31    29   ar
    65    31    32   ar
    66    84    86   ar
    67   187   177   am
    68   187   188    1
    69    85    86   ar
    70   183   185   ar
    71   185   186    1
    72    87    88    1
    73   103   100    1
    74   161   160    2
    75    29    26   ar
    76    91    88    1
    77    91    92    1
    78   177   178    2
    79   188   189    1
    80    32    30   ar
    81    37    39    1
    82    37    34    1
    83    99   100    1
    84    99    89   am
    85    88    89    1
    86   164   163    2
    87    92    94   ar
    88    92    93   ar
    89   160   159    1
    90    94    96   ar
    91   100   101    1
    92    26    28   ar
    93    26    24   ar
    94   189   190    2
    95    89    90    2
    96   159   158    1
    97   159   162    1
    98    30    28   ar
    99    33    34    1
   100    33    21   am
   101    23    24    1
   102    23    20    1
   103    93    95   ar
   104    34    35    1
   105    96    97   ar
   106    19    20    1
   107   163   162    1
   108   163   165   am
   109    28    27   ar
   110    24    25   ar
   111   101   102    2
   112    20    21    1
   113    95    97   ar
   114    97    98    1
   115    21    22    2
   116   211   209   ar
   117   211   212   ar
   118    35    36    2
   119   144   146   ar
   120   144   142   ar
   121   201   200    2
   122    27    25   ar
   123   209   208   ar
   124   146   145   ar
   125   199   200    1
   126   199   196    1
   127   212   214   ar
   128   212   210   ar
   129   142   141   ar
   130   214   216   ar
   131   139   138    2
   132   200   202   am
   133    47    45   ar
   134   195   196    1
   135   109   108    1
   136   208   210   ar
   137   208   207    1
   138    54    52    1
   139   228   227    1
   140   210   213   ar
   141   216   215   ar
   142   196   197    1
   143   115   114    1
   144   145   143   ar
   145   150   149    2
   146    44    45    1
   147    44    41    1
   148    45    46   ar
   149   141   143   ar
   150   141   140    1
   151   207   204    1
   152   138   137    1
   153   138   147   am
   154   108   105    1
   155   203   197   am
   156   203   204    1
   157   104   105    1
   158   137   140    1
   159   137   136    1
   160   226   227   ar
   161   226   224   ar
   162   149   148    1
   163   197   198    2
   164   227   225   ar
   165   213   215   ar
   166    52    53    1
   167    52    49    1
   168   114   111    1
   169   204   205    1
   170   105   106    1
   171   148   147    1
   172   148   151    1
   173    40    41    1
   174   110   106   am
   175   110   111    1
   176    41    42    1
   177    48    49    1
   178    48    42   am
   179   224   222   ar
   180   106   107    2
   181   225   223   ar
   182    49    50    1
   183   111   112    1
   184    42    43    2
   185   153   155   ar
   186   153   152   ar
   187   205   206    2
   188   155   157   ar
   189   151   152    1
   190   152   154   ar
   191   222   223   ar
   192   222   221    1
   193   157   156   ar
   194   112   113    2
   195    50    51    2
   196   154   156   ar
   197   134   135   ar
   198   134   132   ar
   199   221   218    1
   200   135   133   ar
   201   125   124    2
   202    61    59    1
   203   121   120    1
   204   132   129   ar
   205   217   218    1
   206   120   117    1
   207    59    60    1
   208    59    56    1
   209   218   219    1
   210   124   123    1
   211   133   131   ar
   212   116   117    1
   213   129   131   ar
   214   129   127   ar
   215   123   122    1
   216   123   126    1
   217   117   118    1
   218    55    56    1
   219   219   220    2
   220    56    57    1
   221   131   130   ar
   222   118   119    2
   223   126   127    1
   224   127   128   ar
   225    57    58    2
   226   130   128   ar
