@<TRIPOS>MOLECULE
tmp/4ldlA00.pdb
 214 212 0 0 0
SMALL
GASTEIGER

@<TRIPOS>ATOM
      1  N        -15.5690  -11.2750  -54.7640 N.3   236  HIS236     -0.1241
      2  CA       -14.6520  -11.4170  -55.8900 C.3   236  HIS236      0.1621
      3  C        -14.7060  -12.8200  -56.4850 C.2   236  HIS236      0.2264
      4  O        -14.6820  -12.9860  -57.7050 O.2   236  HIS236     -0.2867
      5  CB       -13.2210  -11.0860  -55.4620 C.3   236  HIS236      0.0745
      6  CG       -12.2110  -11.2460  -56.5550 C.ar  236  HIS236      0.0817
      7  ND1      -11.5730  -12.4420  -56.8110 N.ar  236  HIS236     -0.2268
      8  CD2      -11.7270  -10.3620  -57.4590 C.ar  236  HIS236      0.1154
      9  CE1      -10.7410  -12.2860  -57.8250 C.ar  236  HIS236      0.1986
     10  NE2      -10.8150  -11.0330  -58.2360 N.ar  236  HIS236     -0.2212
     11  N         -7.4860   -3.2660  -51.1400 N.3   252  TRP252     -0.1227
     12  CA        -8.0180   -4.4640  -50.5030 C.3   252  TRP252      0.1737
     13  C         -6.9080   -5.4780  -50.2440 C.2   252  TRP252      0.2596
     14  O         -6.8660   -6.1090  -49.1870 O.2   252  TRP252     -0.2718
     15  CB        -9.1230   -5.0740  -51.3670 C.3   252  TRP252      0.0564
     16  CG        -9.5080   -6.4690  -50.9890 C.ar  252  TRP252      0.0003
     17  CD1      -10.1570   -6.8640  -49.8560 C.ar  252  TRP252      0.0946
     18  CD2       -9.2850   -7.6550  -51.7590 C.ar  252  TRP252      0.0152
     19  NE1      -10.3430   -8.2260  -49.8680 N.ar  252  TRP252     -0.2442
     20  CE2       -9.8170   -8.7350  -51.0280 C.ar  252  TRP252      0.0810
     21  CE3       -8.6830   -7.9100  -52.9950 C.ar  252  TRP252      0.0012
     22  CZ2       -9.7650  -10.0480  -51.4890 C.ar  252  TRP252      0.0191
     23  CZ3       -8.6320   -9.2140  -53.4520 C.ar  252  TRP252      0.0001
     24  CH2       -9.1700  -10.2660  -52.7010 C.ar  252  TRP252      0.0015
     25  N         -6.0070   -5.6240  -51.2110 N.am  253  THR253     -0.1953
     26  CA        -4.8610   -6.5160  -51.0570 C.3   253  THR253      0.1897
     27  C         -3.9660   -6.0460  -49.9120 C.2   253  THR253      0.2313
     28  O         -3.4580   -6.8530  -49.1240 O.2   253  THR253     -0.2863
     29  CB        -4.0300   -6.5960  -52.3520 C.3   253  THR253      0.1794
     30  OG1       -4.8700   -7.0050  -53.4400 O.3   253  THR253     -0.2208
     31  CG2       -2.8930   -7.5910  -52.1950 C.3   253  THR253      0.0378
     32  N         -5.5330   -6.9180  -46.7310 N.3   256  ASP256     -0.1225
     33  CA        -5.3320   -8.3550  -46.5600 C.3   256  ASP256      0.1805
     34  C         -3.9820   -8.6430  -45.9050 C.2   256  ASP256      0.2597
     35  O         -3.9200   -9.1980  -44.7990 O.2   256  ASP256     -0.2718
     36  CB        -5.4210   -9.0630  -47.9160 C.3   256  ASP256      0.1424
     37  CG        -5.5520  -10.5720  -47.7880 C.2   256  ASP256      0.3668
     38  OD1       -5.2100  -11.1260  -46.7230 O.co2 256  ASP256     -0.2456
     39  OD2       -5.9960  -11.2090  -48.7660 O.co2 256  ASP256     -0.2456
     40  N         -2.9090   -8.2580  -46.5920 N.am  257  VAL257     -0.1980
     41  CA        -1.5550   -8.5030  -46.1000 C.3   257  VAL257      0.1595
     42  C         -1.3280   -7.8960  -44.7150 C.2   257  VAL257      0.2287
     43  O         -0.8000   -8.5590  -43.8170 O.2   257  VAL257     -0.2864
     44  CB        -0.4910   -7.9640  -47.0750 C.3   257  VAL257      0.0276
     45  CG1        0.9050   -8.2450  -46.5450 C.3   257  VAL257      0.0022
     46  CG2       -0.6750   -8.5830  -48.4510 C.3   257  VAL257      0.0022
     47  N         -3.3260   -9.9470  -42.0120 N.3   260  VAL260     -0.1245
     48  CA        -2.7530  -11.2710  -41.7760 C.3   260  VAL260      0.1561
     49  C         -1.4370  -11.1640  -41.0030 C.2   260  VAL260      0.2260
     50  O         -1.2280  -11.8620  -40.0010 O.2   260  VAL260     -0.2867
     51  CB        -2.5340  -12.0510  -43.0900 C.3   260  VAL260      0.0252
     52  CG1       -1.7800  -13.3450  -42.8220 C.3   260  VAL260      0.0019
     53  CG2       -3.8650  -12.3420  -43.7640 C.3   260  VAL260      0.0019
     54  N         -8.4220   -8.4850  -60.5160 N.3   334  CYS334     -0.1221
     55  CA        -7.7670   -8.2520  -59.2360 C.3   334  CYS334      0.1808
     56  C         -7.0490   -9.5210  -58.7820 C.2   334  CYS334      0.2601
     57  O         -6.9550   -9.8100  -57.5900 O.2   334  CYS334     -0.2717
     58  CB        -8.7750   -7.7800  -58.1830 C.3   334  CYS334      0.0970
     59  SG        -8.0240   -7.1650  -56.6560 S.3   334  CYS334     -0.0800
     60  N         -6.5470  -10.2820  -59.7480 N.am  335  ASP335     -0.1959
     61  CA        -5.7660  -11.4720  -59.4450 C.3   335  ASP335      0.1840
     62  C         -4.4480  -11.0690  -58.7960 C.2   335  ASP335      0.2622
     63  O         -3.9530   -9.9620  -59.0120 O.2   335  ASP335     -0.2715
     64  CB        -5.5130  -12.2920  -60.7120 C.3   335  ASP335      0.1450
     65  CG        -6.7920  -12.8490  -61.3110 C.2   335  ASP335      0.3671
     66  OD1       -7.7630  -13.0600  -60.5530 O.co2 335  ASP335     -0.2456
     67  OD2       -6.8240  -13.0790  -62.5380 O.co2 335  ASP335     -0.2456
     68  N         -3.8840  -11.9680  -57.9990 N.am  336  PHE336     -0.1974
     69  CA        -2.6950  -11.6530  -57.2170 C.3   336  PHE336      0.1639
     70  C         -1.4150  -12.1550  -57.8800 C.2   336  PHE336      0.2290
     71  O         -1.1790  -13.3600  -57.9610 O.2   336  PHE336     -0.2864
     72  CB        -2.8270  -12.2390  -55.8120 C.3   336  PHE336      0.0560
     73  CG        -1.7510  -11.7980  -54.8660 C.ar  336  PHE336     -0.0200
     74  CD1       -1.7830  -10.5330  -54.3030 C.ar  336  PHE336     -0.0042
     75  CD2       -0.7160  -12.6530  -54.5250 C.ar  336  PHE336     -0.0042
     76  CE1       -0.7970  -10.1250  -53.4270 C.ar  336  PHE336     -0.0003
     77  CE2        0.2720  -12.2510  -53.6480 C.ar  336  PHE336     -0.0003
     78  CZ         0.2300  -10.9850  -53.0980 C.ar  336  PHE336     -0.0000
     79  N          9.1950  -10.1340  -53.1320 N.3   342  TYR342     -0.1227
     80  CA         8.0890   -9.7680  -52.2540 C.3   342  TYR342      0.1736
     81  C          7.4130  -10.9860  -51.6370 C.2   342  TYR342      0.2595
     82  O          7.0000  -10.9500  -50.4790 O.2   342  TYR342     -0.2718
     83  CB         7.0510   -8.9080  -52.9790 C.3   342  TYR342      0.0548
     84  CG         5.8900   -8.5270  -52.0870 C.ar  342  TYR342     -0.0200
     85  CD1        5.9920   -7.4640  -51.2010 C.ar  342  TYR342     -0.0009
     86  CD2        4.7000   -9.2430  -52.1170 C.ar  342  TYR342     -0.0009
     87  CE1        4.9380   -7.1190  -50.3760 C.ar  342  TYR342      0.0417
     88  CE2        3.6410   -8.9050  -51.2950 C.ar  342  TYR342      0.0417
     89  CZ         3.7660   -7.8420  -50.4270 C.ar  342  TYR342      0.1957
     90  OH         2.7170   -7.4970  -49.6070 O.3   342  TYR342     -0.2866
     91  N          7.2920  -12.0580  -52.4130 N.am  343  ALA343     -0.1980
     92  CA         6.6740  -13.2830  -51.9220 C.3   343  ALA343      0.1597
     93  C          7.4710  -13.8570  -50.7560 C.2   343  ALA343      0.2287
     94  O          6.9200  -14.1290  -49.6890 O.2   343  ALA343     -0.2864
     95  CB         6.5520  -14.3050  -53.0400 C.3   343  ALA343      0.0319
     96  N          7.6130  -11.2470  -47.6560 N.3   346  SER346     -0.1217
     97  CA         6.3330  -11.1870  -46.9610 C.3   346  SER346      0.1889
     98  C          6.0030  -12.5000  -46.2590 C.2   346  SER346      0.2288
     99  O          5.4260  -12.4940  -45.1750 O.2   346  SER346     -0.2866
    100  CB         5.2060  -10.7990  -47.9200 C.3   346  SER346      0.2089
    101  OG         5.1190  -11.7120  -48.9980 O.3   346  SER346     -0.2183
    102  N          5.6260  -12.2570  -42.2980 N.3   350  SER350     -0.1217
    103  CA         4.2660  -12.4830  -41.8160 C.3   350  SER350      0.1889
    104  C          4.0780  -13.8140  -41.0890 C.2   350  SER350      0.2288
    105  O          3.3430  -13.8840  -40.1070 O.2   350  SER350     -0.2866
    106  CB         3.2540  -12.3730  -42.9620 C.3   350  SER350      0.2089
    107  OG         3.3150  -11.1010  -43.5810 O.3   350  SER350     -0.2183
    108  N         -2.5320  -21.8930  -41.2470 N.3   398  TRP398     -0.1241
    109  CA        -1.6690  -20.9770  -41.9950 C.3   398  TRP398      0.1605
    110  C         -0.4520  -21.6010  -42.6830 C.2   398  TRP398      0.2264
    111  O          0.0700  -21.0360  -43.6440 O.2   398  TRP398     -0.2867
    112  CB        -1.2310  -19.8000  -41.1200 C.3   398  TRP398      0.0550
    113  CG        -2.2190  -18.6730  -41.0810 C.ar  398  TRP398      0.0003
    114  CD1       -2.8480  -18.1740  -39.9790 C.ar  398  TRP398      0.0946
    115  CD2       -2.6920  -17.9050  -42.1960 C.ar  398  TRP398      0.0152
    116  NE1       -3.6810  -17.1400  -40.3360 N.ar  398  TRP398     -0.2442
    117  CE2       -3.6040  -16.9550  -41.6920 C.ar  398  TRP398      0.0810
    118  CE3       -2.4340  -17.9260  -43.5710 C.ar  398  TRP398      0.0012
    119  CZ2       -4.2560  -16.0350  -42.5130 C.ar  398  TRP398      0.0191
    120  CZ3       -3.0830  -17.0130  -44.3840 C.ar  398  TRP398      0.0001
    121  CH2       -3.9840  -16.0810  -43.8520 C.ar  398  TRP398      0.0015
    122  N         -0.7150  -22.6860  -46.6110 N.3   401  PHE401     -0.1227
    123  CA        -0.7520  -21.5690  -47.5480 C.3   401  PHE401      0.1736
    124  C          0.6320  -20.9910  -47.8220 C.2   401  PHE401      0.2595
    125  O          1.0380  -20.8600  -48.9760 O.2   401  PHE401     -0.2718
    126  CB        -1.6860  -20.4640  -47.0550 C.3   401  PHE401      0.0547
    127  CG        -1.5850  -19.1940  -47.8500 C.ar  401  PHE401     -0.0202
    128  CD1       -2.1100  -19.1190  -49.1290 C.ar  401  PHE401     -0.0042
    129  CD2       -0.9580  -18.0780  -47.3210 C.ar  401  PHE401     -0.0042
    130  CE1       -2.0140  -17.9550  -49.8650 C.ar  401  PHE401     -0.0003
    131  CE2       -0.8600  -16.9090  -48.0520 C.ar  401  PHE401     -0.0003
    132  CZ        -1.3890  -16.8470  -49.3250 C.ar  401  PHE401     -0.0000
    133  N          1.3530  -20.6430  -46.7610 N.am  402  PHE402     -0.1976
    134  CA         2.6640  -20.0160  -46.9070 C.3   402  PHE402      0.1639
    135  C          3.7060  -20.9530  -47.5090 C.2   402  PHE402      0.2290
    136  O          4.7140  -20.5010  -48.0490 O.2   402  PHE402     -0.2864
    137  CB         3.1460  -19.4390  -45.5760 C.3   402  PHE402      0.0560
    138  CG         2.5070  -18.1290  -45.2250 C.ar  402  PHE402     -0.0200
    139  CD1        3.0630  -16.9370  -45.6580 C.ar  402  PHE402     -0.0042
    140  CD2        1.3440  -18.0880  -44.4770 C.ar  402  PHE402     -0.0042
    141  CE1        2.4750  -15.7280  -45.3430 C.ar  402  PHE402     -0.0003
    142  CE2        0.7510  -16.8810  -44.1580 C.ar  402  PHE402     -0.0003
    143  CZ         1.3160  -15.7000  -44.5910 C.ar  402  PHE402     -0.0000
    144  N          2.5060  -20.5920  -51.0590 N.3   405  ASN405     -0.1240
    145  CA         2.8450  -19.2340  -51.4670 C.3   405  ASN405      0.1653
    146  C          4.3260  -19.0850  -51.8000 C.2   405  ASN405      0.2266
    147  O          4.7180  -18.1810  -52.5390 O.2   405  ASN405     -0.2867
    148  CB         2.4510  -18.2340  -50.3780 C.3   405  ASN405      0.1155
    149  CG         2.5290  -16.7960  -50.8520 C.2   405  ASN405      0.2627
    150  OD1        2.4210  -16.5190  -52.0470 O.2   405  ASN405     -0.2716
    151  ND2        2.7180  -15.8720  -49.9170 N.am  405  ASN405     -0.0877
    152  N         -4.7390  -22.4570  -59.1180 N.3   417  LYS417     -0.1245
    153  CA        -5.2430  -21.2690  -58.4310 C.3   417  LYS417      0.1561
    154  C         -6.3060  -21.5990  -57.3810 C.2   417  LYS417      0.2260
    155  O         -6.3640  -20.9650  -56.3200 O.2   417  LYS417     -0.2867
    156  CB        -5.7840  -20.2550  -59.4450 C.3   417  LYS417      0.0271
    157  CG        -6.2740  -18.9510  -58.8320 C.3   417  LYS417      0.0035
    158  CD        -6.5490  -17.9040  -59.9010 C.3   417  LYS417      0.0206
    159  CE        -7.5290  -18.4160  -60.9450 C.3   417  LYS417      0.1093
    160  NZ        -7.7520  -17.4230  -62.0320 N.3   417  LYS417     -0.1314
    161  N         -4.6620  -22.5360  -54.1710 N.3   420  TYR420     -0.1227
    162  CA        -4.0770  -21.3360  -53.5820 C.3   420  TYR420      0.1736
    163  C         -5.1260  -20.5400  -52.8100 C.2   420  TYR420      0.2595
    164  O         -4.9470  -20.2350  -51.6250 O.2   420  TYR420     -0.2718
    165  CB        -3.4580  -20.4680  -54.6790 C.3   420  TYR420      0.0548
    166  CG        -2.6680  -19.2790  -54.1790 C.ar  420  TYR420     -0.0200
    167  CD1       -1.3240  -19.4020  -53.8510 C.ar  420  TYR420     -0.0009
    168  CD2       -3.2600  -18.0290  -54.0550 C.ar  420  TYR420     -0.0009
    169  CE1       -0.5940  -18.3180  -53.4010 C.ar  420  TYR420      0.0417
    170  CE2       -2.5400  -16.9370  -53.6060 C.ar  420  TYR420      0.0417
    171  CZ        -1.2070  -17.0880  -53.2810 C.ar  420  TYR420      0.1957
    172  OH        -0.4860  -16.0040  -52.8330 O.3   420  TYR420     -0.2866
    173  N         -6.2260  -20.2170  -53.4840 N.am  421  ILE421     -0.1980
    174  CA        -7.3070  -19.4610  -52.8600 C.3   421  ILE421      0.1595
    175  C         -7.9180  -20.2250  -51.6850 C.2   421  ILE421      0.2287
    176  O         -8.1790  -19.6490  -50.6240 O.2   421  ILE421     -0.2864
    177  CB        -8.4100  -19.1110  -53.8770 C.3   421  ILE421      0.0276
    178  CG1       -7.8100  -18.3870  -55.0830 C.3   421  ILE421      0.0022
    179  CG2       -9.4810  -18.2550  -53.2270 C.3   421  ILE421      0.0022
    180  CD1       -8.8130  -18.0800  -56.1710 C.3   421  ILE421      0.0001
    181  N         -5.6840  -20.1320  -48.7830 N.3   424  ASN424     -0.1225
    182  CA        -5.7300  -18.7580  -48.2950 C.3   424  ASN424      0.1785
    183  C         -6.9330  -18.5590  -47.3740 C.2   424  ASN424      0.2597
    184  O         -6.8420  -17.8760  -46.3510 O.2   424  ASN424     -0.2718
    185  CB        -5.8000  -17.7750  -49.4650 C.3   424  ASN424      0.1169
    186  CG        -5.0680  -16.4740  -49.1860 C.2   424  ASN424      0.2627
    187  OD1       -4.4270  -15.9120  -50.0730 O.2   424  ASN424     -0.2716
    188  ND2       -5.1560  -15.9920  -47.9500 N.am  424  ASN424     -0.0877
    189  N         -8.0580  -19.1690  -47.7390 N.am  425  TRP425     -0.1976
    190  CA        -9.2750  -19.0790  -46.9350 C.3   425  TRP425      0.1640
    191  C         -9.2070  -19.9510  -45.6810 C.2   425  TRP425      0.2290
    192  O         -9.7850  -19.6110  -44.6420 O.2   425  TRP425     -0.2864
    193  CB       -10.5030  -19.4290  -47.7760 C.3   425  TRP425      0.0576
    194  CG       -10.9920  -18.2840  -48.6110 C.ar  425  TRP425      0.0006
    195  CD1      -10.4060  -17.7770  -49.7350 C.ar  425  TRP425      0.0946
    196  CD2      -12.1710  -17.5030  -48.3870 C.ar  425  TRP425      0.0152
    197  NE1      -11.1460  -16.7280  -50.2230 N.ar  425  TRP425     -0.2442
    198  CE2      -12.2360  -16.5400  -49.4140 C.ar  425  TRP425      0.0810
    199  CE3      -13.1790  -17.5250  -47.4180 C.ar  425  TRP425      0.0012
    200  CZ2      -13.2690  -15.6070  -49.4990 C.ar  425  TRP425      0.0191
    201  CZ3      -14.2030  -16.6000  -47.5040 C.ar  425  TRP425      0.0001
    202  CH2      -14.2400  -15.6540  -48.5360 C.ar  425  TRP425      0.0015
    203  N         -7.8020  -17.8430  -43.5990 N.3   428  TYR428     -0.1241
    204  CA        -8.7780  -16.8390  -43.1800 C.3   428  TYR428      0.1605
    205  C         -9.6180  -17.2660  -41.9730 C.2   428  TYR428      0.2264
    206  O         -9.9270  -16.4420  -41.1120 O.2   428  TYR428     -0.2867
    207  CB        -9.7050  -16.4610  -44.3400 C.3   428  TYR428      0.0534
    208  CG        -9.0530  -15.6400  -45.4300 C.ar  428  TYR428     -0.0201
    209  CD1       -7.8400  -14.9990  -45.2180 C.ar  428  TYR428     -0.0009
    210  CD2       -9.6580  -15.4990  -46.6720 C.ar  428  TYR428     -0.0009
    211  CE1       -7.2460  -14.2440  -46.2130 C.ar  428  TYR428      0.0417
    212  CE2       -9.0730  -14.7480  -47.6730 C.ar  428  TYR428      0.0417
    213  CZ        -7.8680  -14.1230  -47.4390 C.ar  428  TYR428      0.1957
    214  OH        -7.2840  -13.3750  -48.4350 O.3   428  TYR428     -0.2866
@<TRIPOS>BOND
     1    67    65   ar
     2   160   159    1
     3    65    64    1
     4    65    66   ar
     5   159   158    1
     6    64    61    1
     7    54    55    1
     8   158   157    1
     9    60    61    1
    10    60    56   am
    11    61    62    1
    12   156   157    1
    13   156   153    1
    14    55    56    1
    15    55    58    1
    16   152   153    1
    17    63    62    2
    18    62    68   am
    19    56    57    2
    20   153   154    1
    21    10     9   ar
    22    10     8   ar
    23    58    59    1
    24    68    69    1
    25    71    70    2
    26    70    69    1
    27     9     7   ar
    28     4     3    2
    29     8     6   ar
    30   154   155    2
    31    69    72    1
    32     7     6   ar
    33     6     5    1
    34     3     2    1
    35   180   178    1
    36     2     5    1
    37     2     1    1
    38    72    73    1
    39   178   177    1
    40    73    75   ar
    41    73    74   ar
    42   165   166    1
    43   165   162    1
    44    75    77   ar
    45    74    76   ar
    46   166   168   ar
    47   166   167   ar
    48   161   162    1
    49   168   170   ar
    50   177   179    1
    51   177   174    1
    52   167   169   ar
    53    77    78   ar
    54   170   171   ar
    55   162   163    1
    56   173   174    1
    57   173   163   am
    58    23    21   ar
    59    23    24   ar
    60    30    29    1
    61    76    78   ar
    62   169   171   ar
    63   171   172    1
    64    79    80    1
    65    95    92    1
    66    21    18   ar
    67    83    80    1
    68    83    84    1
    69   174   175    1
    70   163   164    2
    71    24    22   ar
    72   147   146    2
    73    91    92    1
    74    91    81   am
    75    29    31    1
    76    29    26    1
    77    80    81    1
    78    86    84   ar
    79    86    88   ar
    80    84    85   ar
    81   150   149    2
    82    92    93    1
    83   146   145    1
    84    18    20   ar
    85    18    16   ar
    86   175   176    2
    87    81    82    2
    88    22    20   ar
    89   145   144    1
    90   145   148    1
    91    15    16    1
    92    15    12    1
    93    88    89   ar
    94    25    26    1
    95    25    13   am
    96    85    87   ar
    97    11    12    1
    98    26    27    1
    99    20    19   ar
   100    16    17   ar
   101   149   148    1
   102   149   151   am
   103    93    94    2
   104    12    13    1
   105    89    87   ar
   106    89    90    1
   107    13    14    2
   108   197   195   ar
   109   197   198   ar
   110   187   186    2
   111    27    28    2
   112    19    17   ar
   113   130   132   ar
   114   130   128   ar
   115   195   194   ar
   116   200   198   ar
   117   200   202   ar
   118   185   186    1
   119   185   182    1
   120   198   196   ar
   121   132   131   ar
   122   186   188   am
   123   128   127   ar
   124   101   100    1
   125   125   124    2
   126   181   182    1
   127    39    37   ar
   128   194   196   ar
   129   194   193    1
   130   202   201   ar
   131    46    44    1
   132   214   213    1
   133   196   199   ar
   134   182   183    1
   135   131   129   ar
   136   136   135    2
   137   100    97    1
   138    36    37    1
   139    36    33    1
   140   127   129   ar
   141   127   126    1
   142   124   123    1
   143   124   133   am
   144    37    38   ar
   145   193   190    1
   146   189   183   am
   147   189   190    1
   148   212   213   ar
   149   212   210   ar
   150    96    97    1
   151   123   126    1
   152   123   122    1
   153   135   134    1
   154   201   199   ar
   155   213   211   ar
   156   183   184    2
   157    44    45    1
   158    44    41    1
   159    97    98    1
   160   190   191    1
   161   134   133    1
   162   134   137    1
   163    32    33    1
   164   210   208   ar
   165    40    41    1
   166    40    34   am
   167    33    34    1
   168    98    99    2
   169   211   209   ar
   170    41    42    1
   171    34    35    2
   172   191   192    2
   173   139   141   ar
   174   139   138   ar
   175   137   138    1
   176   208   209   ar
   177   208   207    1
   178   141   143   ar
   179   138   140   ar
   180    42    43    2
   181   143   142   ar
   182   140   142   ar
   183   120   121   ar
   184   120   118   ar
   185   207   204    1
   186   121   119   ar
   187    53    51    1
   188   111   110    2
   189   203   204    1
   190   107   106    1
   191   118   115   ar
   192   204   205    1
   193    51    52    1
   194    51    48    1
   195   106   103    1
   196   110   109    1
   197   119   117   ar
   198   102   103    1
   199   115   117   ar
   200   115   113   ar
   201    47    48    1
   202   109   108    1
   203   109   112    1
   204   205   206    2
   205   103   104    1
   206    48    49    1
   207   117   116   ar
   208   112   113    1
   209   104   105    2
   210   113   114   ar
   211    49    50    2
   212   116   114   ar
