@<TRIPOS>MOLECULE
tmp/4ldoA01.pdb
 159 156 0 0 0
SMALL
GASTEIGER

@<TRIPOS>ATOM
      1  N         -7.6170   -2.8380  -51.1030 N.3   252  TRP252     -0.1227
      2  CA        -8.1430   -4.0480  -50.4810 C.3   252  TRP252      0.1737
      3  C         -7.0350   -5.0820  -50.2680 C.2   252  TRP252      0.2596
      4  O         -7.0060   -5.7760  -49.2500 O.2   252  TRP252     -0.2718
      5  CB        -9.2750   -4.6220  -51.3370 C.3   252  TRP252      0.0564
      6  CG        -9.6640   -6.0270  -51.0100 C.ar  252  TRP252      0.0003
      7  CD1      -10.3500   -6.4550  -49.9120 C.ar  252  TRP252      0.0946
      8  CD2       -9.4130   -7.1910  -51.8050 C.ar  252  TRP252      0.0152
      9  NE1      -10.5300   -7.8160  -49.9670 N.ar  252  TRP252     -0.2442
     10  CE2       -9.9650   -8.2910  -51.1210 C.ar  252  TRP252      0.0810
     11  CE3       -8.7690   -7.4100  -53.0270 C.ar  252  TRP252      0.0012
     12  CZ2       -9.8920   -9.5910  -51.6170 C.ar  252  TRP252      0.0191
     13  CZ3       -8.6980   -8.7010  -53.5180 C.ar  252  TRP252      0.0001
     14  CH2       -9.2560   -9.7740  -52.8140 C.ar  252  TRP252      0.0015
     15  N         -6.1210   -5.1690  -51.2310 N.am  253  THR253     -0.1953
     16  CA        -4.9650   -6.0530  -51.1200 C.3   253  THR253      0.1897
     17  C         -4.0650   -5.6060  -49.9690 C.2   253  THR253      0.2313
     18  O         -3.5540   -6.4290  -49.1970 O.2   253  THR253     -0.2863
     19  CB        -4.1470   -6.0660  -52.4280 C.3   253  THR253      0.1794
     20  OG1       -4.9550   -6.5780  -53.4950 O.3   253  THR253     -0.2208
     21  CG2       -2.9110   -6.9340  -52.2790 C.3   253  THR253      0.0378
     22  N         -5.5780   -6.5920  -46.8430 N.3   256  ASP256     -0.1225
     23  CA        -5.3580   -8.0320  -46.7090 C.3   256  ASP256      0.1805
     24  C         -4.0100   -8.3100  -46.0440 C.2   256  ASP256      0.2597
     25  O         -3.9510   -8.8780  -44.9430 O.2   256  ASP256     -0.2718
     26  CB        -5.4210   -8.7050  -48.0860 C.3   256  ASP256      0.1424
     27  CG        -5.4920  -10.2230  -48.0050 C.2   256  ASP256      0.3668
     28  OD1       -5.1250  -10.8000  -46.9600 O.co2 256  ASP256     -0.2456
     29  OD2       -5.9140  -10.8460  -49.0020 O.co2 256  ASP256     -0.2456
     30  N         -2.9360   -7.8990  -46.7140 N.am  257  VAL257     -0.1980
     31  CA        -1.5810   -8.1350  -46.2170 C.3   257  VAL257      0.1595
     32  C         -1.3680   -7.5530  -44.8200 C.2   257  VAL257      0.2287
     33  O         -0.8340   -8.2240  -43.9310 O.2   257  VAL257     -0.2864
     34  CB        -0.5200   -7.5590  -47.1750 C.3   257  VAL257      0.0276
     35  CG1        0.8790   -7.8840  -46.6760 C.3   257  VAL257      0.0022
     36  CG2       -0.7270   -8.1010  -48.5800 C.3   257  VAL257      0.0022
     37  N         -3.4070   -9.6250  -42.1340 N.3   260  VAL260     -0.1245
     38  CA        -2.8190  -10.9460  -41.9130 C.3   260  VAL260      0.1561
     39  C         -1.5120  -10.8430  -41.1260 C.2   260  VAL260      0.2260
     40  O         -1.3190  -11.5360  -40.1160 O.2   260  VAL260     -0.2867
     41  CB        -2.5700  -11.6940  -43.2380 C.3   260  VAL260      0.0252
     42  CG1       -1.7930  -12.9780  -42.9870 C.3   260  VAL260      0.0019
     43  CG2       -3.8890  -11.9940  -43.9340 C.3   260  VAL260      0.0019
     44  N         -3.9370  -11.6740  -57.5300 N.3   336  PHE336     -0.1241
     45  CA        -2.7680  -11.3540  -56.7230 C.3   336  PHE336      0.1605
     46  C         -1.4670  -11.7830  -57.4000 C.2   336  PHE336      0.2264
     47  O         -1.0230  -12.9220  -57.2510 O.2   336  PHE336     -0.2867
     48  CB        -2.8930  -11.9900  -55.3370 C.3   336  PHE336      0.0534
     49  CG        -1.8870  -11.4880  -54.3450 C.ar  336  PHE336     -0.0203
     50  CD1       -1.8540  -10.1490  -53.9900 C.ar  336  PHE336     -0.0042
     51  CD2       -0.9830  -12.3540  -53.7560 C.ar  336  PHE336     -0.0042
     52  CE1       -0.9300   -9.6840  -53.0750 C.ar  336  PHE336     -0.0003
     53  CE2       -0.0590  -11.8950  -52.8390 C.ar  336  PHE336     -0.0003
     54  CZ        -0.0330  -10.5580  -52.4970 C.ar  336  PHE336     -0.0000
     55  N          9.0880   -9.8310  -53.2140 N.3   342  TYR342     -0.1227
     56  CA         7.9800   -9.4470  -52.3480 C.3   342  TYR342      0.1736
     57  C          7.2970  -10.6530  -51.7090 C.2   342  TYR342      0.2595
     58  O          6.9300  -10.6100  -50.5370 O.2   342  TYR342     -0.2718
     59  CB         6.9560   -8.5930  -53.0980 C.3   342  TYR342      0.0548
     60  CG         5.8390   -8.1000  -52.2070 C.ar  342  TYR342     -0.0200
     61  CD1        5.9990   -6.9620  -51.4270 C.ar  342  TYR342     -0.0009
     62  CD2        4.6300   -8.7790  -52.1340 C.ar  342  TYR342     -0.0009
     63  CE1        4.9840   -6.5120  -50.6040 C.ar  342  TYR342      0.0417
     64  CE2        3.6100   -8.3370  -51.3140 C.ar  342  TYR342      0.0417
     65  CZ         3.7920   -7.2030  -50.5520 C.ar  342  TYR342      0.1957
     66  OH         2.7780   -6.7580  -49.7360 O.3   342  TYR342     -0.2866
     67  N          7.1220  -11.7230  -52.4790 N.am  343  ALA343     -0.1980
     68  CA         6.4980  -12.9340  -51.9590 C.3   343  ALA343      0.1597
     69  C          7.3300  -13.5280  -50.8260 C.2   343  ALA343      0.2287
     70  O          6.8100  -13.8160  -49.7460 O.2   343  ALA343     -0.2864
     71  CB         6.3010  -13.9530  -53.0700 C.3   343  ALA343      0.0319
     72  N          7.5610  -10.9510  -47.7250 N.3   346  SER346     -0.1217
     73  CA         6.2850  -10.8740  -47.0220 C.3   346  SER346      0.1889
     74  C          5.9660  -12.1770  -46.2990 C.2   346  SER346      0.2288
     75  O          5.4140  -12.1600  -45.2020 O.2   346  SER346     -0.2866
     76  CB         5.1500  -10.5110  -47.9820 C.3   346  SER346      0.2089
     77  OG         5.0300  -11.4720  -49.0170 O.3   346  SER346     -0.2183
     78  N          5.6190  -11.8940  -42.3250 N.3   350  SER350     -0.1217
     79  CA         4.2640  -12.1250  -41.8320 C.3   350  SER350      0.1889
     80  C          4.0860  -13.4700  -41.1310 C.2   350  SER350      0.2288
     81  O          3.4430  -13.5420  -40.0880 O.2   350  SER350     -0.2866
     82  CB         3.2410  -11.9950  -42.9640 C.3   350  SER350      0.2089
     83  OG         3.2940  -10.7110  -43.5610 O.3   350  SER350     -0.2183
     84  N         -2.6710  -21.4560  -41.4190 N.3   398  TRP398     -0.1241
     85  CA        -1.8100  -20.5690  -42.2040 C.3   398  TRP398      0.1605
     86  C         -0.6100  -21.2210  -42.8970 C.2   398  TRP398      0.2264
     87  O         -0.0910  -20.6770  -43.8720 O.2   398  TRP398     -0.2867
     88  CB        -1.3430  -19.3790  -41.3620 C.3   398  TRP398      0.0550
     89  CG        -2.3300  -18.2540  -41.3130 C.ar  398  TRP398      0.0003
     90  CD1       -2.9650  -17.7690  -40.2090 C.ar  398  TRP398      0.0946
     91  CD2       -2.8000  -17.4750  -42.4210 C.ar  398  TRP398      0.0152
     92  NE1       -3.7980  -16.7330  -40.5580 N.ar  398  TRP398     -0.2442
     93  CE2       -3.7140  -16.5330  -41.9110 C.ar  398  TRP398      0.0810
     94  CE3       -2.5340  -17.4820  -43.7940 C.ar  398  TRP398      0.0012
     95  CZ2       -4.3640  -15.6070  -42.7240 C.ar  398  TRP398      0.0191
     96  CZ3       -3.1800  -16.5620  -44.5990 C.ar  398  TRP398      0.0001
     97  CH2       -4.0850  -15.6380  -44.0620 C.ar  398  TRP398      0.0015
     98  N         -0.9080  -22.2240  -46.8070 N.3   401  PHE401     -0.1227
     99  CA        -0.9060  -21.0880  -47.7220 C.3   401  PHE401      0.1736
    100  C          0.4980  -20.5620  -48.0090 C.2   401  PHE401      0.2595
    101  O          0.9240  -20.5120  -49.1630 O.2   401  PHE401     -0.2718
    102  CB        -1.7850  -19.9540  -47.1910 C.3   401  PHE401      0.0547
    103  CG        -1.6370  -18.6700  -47.9560 C.ar  401  PHE401     -0.0202
    104  CD1       -2.2300  -18.5180  -49.1980 C.ar  401  PHE401     -0.0042
    105  CD2       -0.9030  -17.6170  -47.4360 C.ar  401  PHE401     -0.0042
    106  CE1       -2.0940  -17.3400  -49.9070 C.ar  401  PHE401     -0.0003
    107  CE2       -0.7640  -16.4370  -48.1400 C.ar  401  PHE401     -0.0003
    108  CZ        -1.3600  -16.2990  -49.3770 C.ar  401  PHE401     -0.0000
    109  N          1.2090  -20.1660  -46.9570 N.am  402  PHE402     -0.1976
    110  CA         2.5240  -19.5470  -47.1120 C.3   402  PHE402      0.1639
    111  C          3.5750  -20.4840  -47.7020 C.2   402  PHE402      0.2290
    112  O          4.5650  -20.0300  -48.2750 O.2   402  PHE402     -0.2864
    113  CB         3.0040  -18.9440  -45.7900 C.3   402  PHE402      0.0560
    114  CG         2.3460  -17.6380  -45.4530 C.ar  402  PHE402     -0.0200
    115  CD1        1.2310  -17.5970  -44.6330 C.ar  402  PHE402     -0.0042
    116  CD2        2.8350  -16.4500  -45.9720 C.ar  402  PHE402     -0.0042
    117  CE1        0.6230  -16.3930  -44.3280 C.ar  402  PHE402     -0.0003
    118  CE2        2.2300  -15.2450  -45.6710 C.ar  402  PHE402     -0.0003
    119  CZ         1.1220  -15.2160  -44.8490 C.ar  402  PHE402     -0.0000
    120  N          2.3840  -20.2520  -51.2150 N.3   405  ASN405     -0.1240
    121  CA         2.7260  -18.8900  -51.6170 C.3   405  ASN405      0.1653
    122  C          4.2040  -18.7450  -51.9740 C.2   405  ASN405      0.2266
    123  O          4.5840  -17.8510  -52.7290 O.2   405  ASN405     -0.2867
    124  CB         2.3530  -17.8940  -50.5160 C.3   405  ASN405      0.1155
    125  CG         2.4900  -16.4500  -50.9640 C.2   405  ASN405      0.2627
    126  OD1        2.3720  -16.1410  -52.1500 O.2   405  ASN405     -0.2716
    127  ND2        2.7420  -15.5560  -50.0130 N.am  405  ASN405     -0.0877
    128  N         -4.8580  -21.9590  -54.3750 N.3   420  TYR420     -0.1241
    129  CA        -4.2660  -20.7650  -53.7810 C.3   420  TYR420      0.1605
    130  C         -5.3020  -19.9910  -52.9720 C.2   420  TYR420      0.2264
    131  O         -5.0990  -19.7050  -51.7880 O.2   420  TYR420     -0.2867
    132  CB        -3.6740  -19.8700  -54.8720 C.3   420  TYR420      0.0534
    133  CG        -2.8400  -18.7220  -54.3490 C.ar  420  TYR420     -0.0201
    134  CD1       -3.4200  -17.4980  -54.0410 C.ar  420  TYR420     -0.0009
    135  CD2       -1.4690  -18.8600  -54.1710 C.ar  420  TYR420     -0.0009
    136  CE1       -2.6610  -16.4470  -53.5650 C.ar  420  TYR420      0.0417
    137  CE2       -0.7010  -17.8140  -53.6960 C.ar  420  TYR420      0.0417
    138  CZ        -1.3020  -16.6100  -53.3950 C.ar  420  TYR420      0.1957
    139  OH        -0.5420  -15.5650  -52.9220 O.3   420  TYR420     -0.2866
    140  N         -5.7860  -19.6890  -48.9420 N.3   424  ASN424     -0.1240
    141  CA        -5.8080  -18.3170  -48.4490 C.3   424  ASN424      0.1653
    142  C         -6.9850  -18.1120  -47.4980 C.2   424  ASN424      0.2266
    143  O         -6.8540  -17.4720  -46.4510 O.2   424  ASN424     -0.2867
    144  CB        -5.9050  -17.3380  -49.6210 C.3   424  ASN424      0.1155
    145  CG        -5.2050  -16.0190  -49.3460 C.2   424  ASN424      0.2627
    146  OD1       -4.6020  -15.4300  -50.2420 O.2   424  ASN424     -0.2716
    147  ND2       -5.2770  -15.5530  -48.1050 N.am  424  ASN424     -0.0877
    148  N         -7.9070  -17.4390  -43.7270 N.3   428  TYR428     -0.1241
    149  CA        -8.8630  -16.4030  -43.3330 C.3   428  TYR428      0.1605
    150  C         -9.7260  -16.7850  -42.1290 C.2   428  TYR428      0.2264
    151  O        -10.0090  -15.9420  -41.2770 O.2   428  TYR428     -0.2867
    152  CB        -9.7690  -16.0170  -44.5060 C.3   428  TYR428      0.0534
    153  CG        -9.0990  -15.1770  -45.5690 C.ar  428  TYR428     -0.0201
    154  CD1       -9.6960  -14.9890  -46.8080 C.ar  428  TYR428     -0.0009
    155  CD2       -7.8740  -14.5670  -45.3330 C.ar  428  TYR428     -0.0009
    156  CE1       -9.0930  -14.2210  -47.7840 C.ar  428  TYR428      0.0417
    157  CE2       -7.2640  -13.7940  -46.3020 C.ar  428  TYR428      0.0417
    158  CZ        -7.8770  -13.6260  -47.5260 C.ar  428  TYR428      0.1957
    159  OH        -7.2740  -12.8600  -48.4960 O.3   428  TYR428     -0.2866
@<TRIPOS>BOND
     1    44    45    1
     2    46    47    2
     3    46    45    1
     4    45    48    1
     5    48    49    1
     6   132   133    1
     7   132   129    1
     8   128   129    1
     9   133   135   ar
    10   133   134   ar
    11    49    50   ar
    12    49    51   ar
    13   135   137   ar
    14   134   136   ar
    15    50    52   ar
    16   129   130    1
    17    51    53   ar
    18   137   138   ar
    19   136   138   ar
    20    13    11   ar
    21    13    14   ar
    22    20    19    1
    23   138   139    1
    24    55    56    1
    25    59    56    1
    26    59    60    1
    27    52    54   ar
    28    71    68    1
    29    11     8   ar
    30   130   131    2
    31    53    54   ar
    32    14    12   ar
    33   123   122    2
    34    67    68    1
    35    67    57   am
    36    19    21    1
    37    19    16    1
    38    56    57    1
    39    60    62   ar
    40    60    61   ar
    41   126   125    2
    42    62    64   ar
    43   122   121    1
    44    68    69    1
    45     8    10   ar
    46     8     6   ar
    47    57    58    2
    48   121   120    1
    49   121   124    1
    50    12    10   ar
    51    61    63   ar
    52     5     6    1
    53     5     2    1
    54    64    65   ar
    55    15    16    1
    56    15     3   am
    57    10     9   ar
    58    16    17    1
    59     1     2    1
    60     6     7   ar
    61   125   124    1
    62   125   127   am
    63    69    70    2
    64    63    65   ar
    65    65    66    1
    66     2     3    1
    67     3     4    2
    68   146   145    2
    69    17    18    2
    70     9     7   ar
    71   106   108   ar
    72   106   104   ar
    73   144   145    1
    74   144   141    1
    75   108   107   ar
    76   145   147   am
    77   104   103   ar
    78   101   100    2
    79    77    76    1
    80    29    27   ar
    81   140   141    1
    82    36    34    1
    83   159   158    1
    84   141   142    1
    85   112   111    2
    86   107   105   ar
    87    26    27    1
    88    26    23    1
    89   100    99    1
    90   100   109   am
    91    27    28   ar
    92    76    73    1
    93   103   105   ar
    94   103   102    1
    95   156   158   ar
    96   156   154   ar
    97    72    73    1
    98    99   102    1
    99    99    98    1
   100   111   110    1
   101   158   157   ar
   102   142   143    2
   103    34    35    1
   104    34    31    1
   105   110   109    1
   106   110   113    1
   107    73    74    1
   108    22    23    1
   109   154   153   ar
   110    30    31    1
   111    30    24   am
   112    23    24    1
   113   157   155   ar
   114    74    75    2
   115    31    32    1
   116    24    25    2
   117   116   118   ar
   118   116   114   ar
   119   113   114    1
   120   118   119   ar
   121   153   155   ar
   122   153   152    1
   123   114   115   ar
   124   119   117   ar
   125    32    33    2
   126   115   117   ar
   127    96    97   ar
   128    96    94   ar
   129   152   149    1
   130    97    95   ar
   131    43    41    1
   132    87    86    2
   133    94    91   ar
   134   148   149    1
   135    83    82    1
   136   149   150    1
   137    41    42    1
   138    41    38    1
   139    82    79    1
   140    86    85    1
   141    95    93   ar
   142    91    93   ar
   143    91    89   ar
   144    78    79    1
   145    85    84    1
   146    85    88    1
   147    37    38    1
   148   150   151    2
   149    38    39    1
   150    93    92   ar
   151    79    80    1
   152    88    89    1
   153    89    90   ar
   154    80    81    2
   155    39    40    2
   156    92    90   ar
