@<TRIPOS>MOLECULE
tmp/4le4D00.pdb
 142 136 0 0 0
SMALL
GASTEIGER

@<TRIPOS>ATOM
      1  N         29.3420    0.7930   96.1840 N.3    23  TRP23      -0.1241
      2  CA        29.8290   -0.0130   95.0680 C.3    23  TRP23       0.1605
      3  C         28.8030    0.0090   93.9300 C.2    23  TRP23       0.2264
      4  O         29.1560   -0.1010   92.7570 O.2    23  TRP23      -0.2867
      5  CB        30.0740   -1.4610   95.5040 C.3    23  TRP23       0.0550
      6  CG        31.3050   -1.6460   96.3140 C.ar   23  TRP23       0.0003
      7  CD1       31.3790   -2.0410   97.6200 C.ar   23  TRP23       0.0946
      8  CD2       32.6560   -1.4350   95.8800 C.ar   23  TRP23       0.0152
      9  NE1       32.6930   -2.0890   98.0270 N.ar   23  TRP23      -0.2442
     10  CE2       33.4970   -1.7210   96.9800 C.ar   23  TRP23       0.0810
     11  CE3       33.2350   -1.0280   94.6690 C.ar   23  TRP23       0.0012
     12  CZ2       34.8920   -1.6140   96.9060 C.ar   23  TRP23       0.0191
     13  CZ3       34.6250   -0.9180   94.5940 C.ar   23  TRP23       0.0001
     14  CH2       35.4340   -1.2120   95.7080 C.ar   23  TRP23       0.0015
     15  N         28.9080    4.3690   92.4840 N.3    26  GLN26      -0.1245
     16  CA        30.2440    4.9070   92.7070 C.3    26  GLN26       0.1566
     17  C         30.3250    6.3720   92.3370 C.2    26  GLN26       0.2260
     18  O         30.8810    6.7270   91.3030 O.2    26  GLN26      -0.2867
     19  CB        31.2410    4.0880   91.8920 C.3    26  GLN26       0.0367
     20  CG        31.1490    2.6080   92.2010 C.3    26  GLN26       0.0905
     21  CD        32.1500    1.7710   91.4290 C.2    26  GLN26       0.2608
     22  OE1       32.1420    0.5390   91.5230 O.2    26  GLN26      -0.2717
     23  NE2       33.0140    2.4270   90.6600 N.am   26  GLN26      -0.0878
     24  N         36.2560    6.6150   97.0740 N.3    31  GLN31      -0.1245
     25  CA        35.6100    5.3780   97.4310 C.3    31  GLN31       0.1566
     26  C         35.8450    5.3430   98.9490 C.2    31  GLN31       0.2260
     27  O         36.9550    5.6270   99.4250 O.2    31  GLN31      -0.2867
     28  CB        36.3090    4.1950   96.7710 C.3    31  GLN31       0.0367
     29  CG        36.4500    4.3310   95.2590 C.3    31  GLN31       0.0905
     30  CD        36.8450    3.0150   94.6120 C.2    31  GLN31       0.2608
     31  OE1       37.4710    2.1610   95.2450 O.2    31  GLN31      -0.2717
     32  NE2       36.4830    2.8480   93.3430 N.am   31  GLN31      -0.0878
     33  N         35.2570    2.6640  101.9040 N.3    33  TYR33      -0.1227
     34  CA        34.8120    1.3570  102.3760 C.3    33  TYR33       0.1736
     35  C         35.8220    0.7040  103.2800 C.2    33  TYR33       0.2595
     36  O         35.4910   -0.2230  104.0010 O.2    33  TYR33      -0.2718
     37  CB        34.4860    0.4320  101.2010 C.3    33  TYR33       0.0548
     38  CG        35.6690    0.0720  100.3170 C.ar   33  TYR33      -0.0200
     39  CD1       36.3790   -1.1090  100.5280 C.ar   33  TYR33      -0.0009
     40  CD2       36.0700    0.9060   99.2650 C.ar   33  TYR33      -0.0009
     41  CE1       37.4570   -1.4670   99.7210 C.ar   33  TYR33       0.0417
     42  CE2       37.1700    0.5520   98.4340 C.ar   33  TYR33       0.0417
     43  CZ        37.8510   -0.6470   98.6810 C.ar   33  TYR33       0.1957
     44  OH        38.9150   -1.0590   97.8910 O.3    33  TYR33      -0.2866
     45  N         37.0600    1.1810  103.2510 N.am   34  ILE34      -0.1980
     46  CA        38.0690    0.6030  104.1150 C.3    34  ILE34       0.1595
     47  C         38.0560    1.4030  105.3880 C.2    34  ILE34       0.2287
     48  O         38.7860    2.3950  105.5370 O.2    34  ILE34      -0.2864
     49  CB        39.4840    0.6220  103.4740 C.3    34  ILE34       0.0276
     50  CG1       39.4650   -0.1600  102.1520 C.3    34  ILE34       0.0022
     51  CG2       40.4860   -0.0320  104.4220 C.3    34  ILE34       0.0022
     52  CD1       40.8110   -0.1420  101.4260 C.3    34  ILE34       0.0001
     53  N         38.9260   -3.0470  109.4980 N.3    72  TRP72      -0.1227
     54  CA        38.0420   -3.3700  108.4080 C.3    72  TRP72       0.1737
     55  C         37.8410   -4.8570  108.1840 C.2    72  TRP72       0.2595
     56  O         38.8030   -5.6030  108.0930 O.2    72  TRP72      -0.2718
     57  CB        38.6020   -2.7410  107.1280 C.3    72  TRP72       0.0564
     58  CG        37.8280   -3.0500  105.8990 C.ar   72  TRP72       0.0003
     59  CD1       36.4860   -2.9030  105.7140 C.ar   72  TRP72       0.0946
     60  CD2       38.3620   -3.5070  104.6490 C.ar   72  TRP72       0.0152
     61  NE1       36.1460   -3.2360  104.4200 N.ar   72  TRP72      -0.2442
     62  CE2       37.2800   -3.6090  103.7470 C.ar   72  TRP72       0.0810
     63  CE3       39.6530   -3.8360  104.2060 C.ar   72  TRP72       0.0012
     64  CZ2       37.4460   -4.0280  102.4220 C.ar   72  TRP72       0.0191
     65  CZ3       39.8170   -4.2510  102.8890 C.ar   72  TRP72       0.0001
     66  CH2       38.7190   -4.3420  102.0130 C.ar   72  TRP72       0.0015
     67  N         36.5910   -5.3050  108.1430 N.am   73  ASN73      -0.1974
     68  CA        36.3460   -6.7150  107.8270 C.3    73  ASN73       0.1688
     69  C         37.0700   -7.6940  108.7530 C.2    73  ASN73       0.2292
     70  O         37.4610   -8.7610  108.3130 O.2    73  ASN73      -0.2864
     71  CB        36.8480   -6.9760  106.3990 C.3    73  ASN73       0.1181
     72  CG        35.7640   -7.3450  105.4320 C.2    73  ASN73       0.2629
     73  OD1       35.7570   -6.8560  104.2940 O.2    73  ASN73      -0.2716
     74  ND2       34.8560   -8.2300  105.8440 N.am   73  ASN73      -0.0877
     75  N         40.1080   -7.4550  110.0430 N.3    75  GLN75      -0.1245
     76  CA        41.5500   -7.5740  109.8320 C.3    75  GLN75       0.1566
     77  C         42.2660   -7.1980  111.1290 C.2    75  GLN75       0.2260
     78  O         41.6380   -6.6670  112.0480 O.2    75  GLN75      -0.2867
     79  CB        42.0050   -6.6580  108.6990 C.3    75  GLN75       0.0367
     80  CG        41.4310   -7.0880  107.3800 C.3    75  GLN75       0.0905
     81  CD        41.9290   -6.2260  106.2500 C.2    75  GLN75       0.2608
     82  OE1       42.3400   -5.0740  106.4620 O.2    75  GLN75      -0.2717
     83  NE2       41.8780   -6.7660  105.0340 N.am   75  GLN75      -0.0878
     84  N         42.8940    0.5490  110.0880 N.3    79  ARG79      -0.1245
     85  CA        42.8220    1.2680  108.8120 C.3    79  ARG79       0.1563
     86  C         41.6930    2.2840  108.6510 C.2    79  ARG79       0.2260
     87  O         40.5630    2.0550  109.0680 O.2    79  ARG79      -0.2867
     88  CB        42.6960    0.2610  107.6460 C.3    79  ARG79       0.0307
     89  CG        43.7830   -0.7900  107.5830 C.3    79  ARG79       0.0489
     90  CD        43.4660   -1.8580  106.5360 C.3    79  ARG79       0.2205
     91  NE        43.8550   -1.4210  105.2040 N.pl3  79  ARG79      -0.0865
     92  CZ        43.8030   -2.1940  104.1310 C.cat  79  ARG79       0.5346
     93  NH1       43.3630   -3.4510  104.2420 N.pl3  79  ARG79       0.1354
     94  NH2       44.2200   -1.7220  102.9570 N.pl3  79  ARG79       0.1354
     95  N         40.0500    5.9950   98.7050 N.3    83  ILE83      -0.1245
     96  CA        40.6610    5.6540   97.4250 C.3    83  ILE83       0.1561
     97  C         40.0060    6.5290   96.3560 C.2    83  ILE83       0.2260
     98  O         38.7910    6.7780   96.3940 O.2    83  ILE83      -0.2867
     99  CB        40.4330    4.1680   97.1020 C.3    83  ILE83       0.0252
    100  CG1       41.1550    3.3080   98.1660 C.3    83  ILE83       0.0019
    101  CG2       40.9310    3.8410   95.6740 C.3    83  ILE83       0.0019
    102  CD1       40.9390    1.8480   97.9850 C.3    83  ILE83       0.0001
    103  N         48.4140   -0.2460   96.5830 N.3   121  GLU121     -0.1245
    104  CA        48.1460   -1.6350   96.9430 C.3   121  GLU121      0.1567
    105  C         49.3720   -2.5590   96.7350 C.2   121  GLU121      0.2260
    106  O         49.5900   -3.4680   97.5290 O.2   121  GLU121     -0.2867
    107  CB        46.9470   -2.1350   96.1280 C.3   121  GLU121      0.0388
    108  CG        46.3780   -3.5000   96.5070 C.3   121  GLU121      0.1160
    109  CD        46.1900   -3.6940   98.0220 C.2   121  GLU121      0.3649
    110  OE1       45.8950   -2.7190   98.7500 O.co2 121  GLU121     -0.2457
    111  OE2       46.3250   -4.8410   98.4860 O.co2 121  GLU121     -0.2457
    112  N         45.9450   -0.1670   89.2240 N.3   201  ASN201     -0.1240
    113  CA        44.7560   -0.3410   88.3890 C.3   201  ASN201      0.1653
    114  C         43.8690    0.9190   88.4310 C.2   201  ASN201      0.2266
    115  O         42.7640    0.9360   87.8840 O.2   201  ASN201     -0.2867
    116  CB        43.9610   -1.5890   88.8370 C.3   201  ASN201      0.1155
    117  CG        43.3430   -1.4460   90.2200 C.2   201  ASN201      0.2627
    118  OD1       43.3460   -0.3700   90.8240 O.2   201  ASN201     -0.2716
    119  ND2       42.7870   -2.5410   90.7190 N.am  201  ASN201     -0.0877
    120  N         42.4260    2.2230   91.0840 N.3   203  ALA203     -0.1231
    121  CA        41.5040    2.2340   92.2320 C.3   203  ALA203      0.1694
    122  C         42.2110    1.5140   93.3880 C.2   203  ALA203      0.2592
    123  O         41.6210    0.6800   94.0960 O.2   203  ALA203     -0.2718
    124  CB        40.2010    1.5230   91.8730 C.3   203  ALA203      0.0304
    125  N         43.4840    1.8530   93.5730 N.am  204  ASP204     -0.1974
    126  CA        44.2830    1.1930   94.5920 C.3   204  ASP204      0.1709
    127  C         45.3490    2.0630   95.2650 C.2   204  ASP204      0.2293
    128  O         46.3700    1.5440   95.7400 O.2   204  ASP204     -0.2864
    129  CB        44.9250   -0.0550   93.9780 C.3   204  ASP204      0.1436
    130  CG        45.8720    0.2710   92.8420 C.2   204  ASP204      0.3671
    131  OD1       46.0890    1.4810   92.5550 O.co2 204  ASP204     -0.2456
    132  OD2       46.4060   -0.7040   92.2400 O.co2 204  ASP204     -0.2456
    133  N         45.8700    4.3050   98.3330 N.3   206  HIS206     -0.1241
    134  CA        45.2160    4.4870   99.6010 C.3   206  HIS206      0.1621
    135  C         45.5620    5.7640  100.3040 C.2   206  HIS206      0.2264
    136  O         46.6150    5.8880  100.9110 O.2   206  HIS206     -0.2867
    137  CB        45.5250    3.2840  100.4900 C.3   206  HIS206      0.0745
    138  CG        45.0620    1.9890   99.9050 C.ar  206  HIS206      0.0817
    139  ND1       44.1030    1.2000  100.5070 N.ar  206  HIS206     -0.2268
    140  CD2       45.3600    1.3910   98.7260 C.ar  206  HIS206      0.1154
    141  CE1       43.8280    0.1720   99.7190 C.ar  206  HIS206      0.1986
    142  NE2       44.5770    0.2660   98.6320 N.ar  206  HIS206     -0.2212
@<TRIPOS>BOND
     1   115   114    2
     2   113   114    1
     3   113   116    1
     4   113   112    1
     5   116   117    1
     6   117   119   am
     7   117   118    2
     8    23    21   am
     9   120   121    1
    10    18    17    2
    11    21    22    2
    12    21    20    1
    13   124   121    1
    14    19    20    1
    15    19    16    1
    16   121   122    1
    17   132   130   ar
    18    17    16    1
    19    15    16    1
    20   131   130   ar
    21     4     3    2
    22   130   129    1
    23    32    30   am
    24   122   125   am
    25   122   123    2
    26   125   126    1
    27     3     2    1
    28   129   126    1
    29   126   127    1
    30    13    11   ar
    31    13    14   ar
    32    30    31    2
    33    30    29    1
    34    11     8   ar
    35     2     5    1
    36     2     1    1
    37    29    28    1
    38   127   128    2
    39     5     6    1
    40   101    99    1
    41    14    12   ar
    42     8     6   ar
    43     8    10   ar
    44   107   108    1
    45   107   104    1
    46     6     7   ar
    47    97    98    2
    48    97    96    1
    49   108   109    1
    50   103   104    1
    51   105   104    1
    52   105   106    2
    53    28    25    1
    54    12    10   ar
    55    10     9   ar
    56    24    25    1
    57    99    96    1
    58    99   100    1
    59    96    95    1
    60    25    26    1
    61     7     9   ar
    62    44    43    1
    63   102   100    1
    64   109   111   ar
    65   109   110   ar
    66   133   134    1
    67    42    43   ar
    68    42    40   ar
    69   142   140   ar
    70   142   141   ar
    71    43    41   ar
    72   140   138   ar
    73    26    27    2
    74    40    38   ar
    75   134   135    1
    76   134   137    1
    77   141   139   ar
    78    41    39   ar
    79   138   137    1
    80   138   139   ar
    81   135   136    2
    82    38    39   ar
    83    38    37    1
    84    37    34    1
    85    52    50    1
    86    33    34    1
    87    66    64   ar
    88    66    65   ar
    89    50    49    1
    90    34    35    1
    91    64    62   ar
    92    65    63   ar
    93    94    92    1
    94    45    35   am
    95    45    46    1
    96    35    36    2
    97    49    46    1
    98    49    51    1
    99    62    61   ar
   100    62    60   ar
   101    46    47    1
   102    92    93    1
   103    92    91    2
   104    63    60   ar
   105    73    72    2
   106    61    59   ar
   107    60    58   ar
   108    83    81   am
   109    91    90    1
   110    47    48    2
   111    72    74   am
   112    72    71    1
   113    59    58   ar
   114    58    57    1
   115    81    82    2
   116    81    80    1
   117    71    68    1
   118    90    89    1
   119    57    54    1
   120    80    79    1
   121    89    88    1
   122    88    85    1
   123    68    67    1
   124    68    69    1
   125    56    55    2
   126    67    55   am
   127    55    54    1
   128    70    69    2
   129    54    53    1
   130    86    85    1
   131    86    87    2
   132    79    76    1
   133    85    84    1
   134    76    75    1
   135    76    77    1
   136    77    78    2
