@<TRIPOS>MOLECULE
tmp/4leaA00.pdb
 103 108 0 0 0
SMALL
GASTEIGER

@<TRIPOS>ATOM
      1  N          0.2210  -20.1770    7.7490 N.3   107  LYS107     -0.1231
      2  CA         1.2320  -19.2010    7.4060 C.3   107  LYS107      0.1693
      3  C          2.1760  -19.7360    6.3460 C.2   107  LYS107      0.2592
      4  O          2.8720  -18.9900    5.7000 O.2   107  LYS107     -0.2718
      5  CB         2.0340  -18.8230    8.6600 C.3   107  LYS107      0.0285
      6  CG         1.7810  -17.4120    9.1860 C.3   107  LYS107      0.0035
      7  CD         0.7270  -17.3260   10.2520 C.3   107  LYS107      0.0206
      8  CE         0.6960  -15.8780   10.7770 C.3   107  LYS107      0.1093
      9  NZ        -0.6540  -15.4300   11.2440 N.3   107  LYS107     -0.1314
     10  N          2.1800  -21.0440    6.1720 N.am  108  TRP108     -0.1962
     11  CA         2.9940  -21.7300    5.1790 C.3   108  TRP108      0.1771
     12  C          2.3830  -23.1030    4.8720 C.2   108  TRP108      0.2620
     13  O          1.7610  -23.6990    5.7180 O.2   108  TRP108     -0.2715
     14  CB         4.4310  -21.8910    5.6830 C.3   108  TRP108      0.0590
     15  CG         5.2730  -22.7270    4.7430 C.ar  108  TRP108      0.0006
     16  CD1        6.0310  -22.2770    3.7460 C.ar  108  TRP108      0.0946
     17  CD2        5.4020  -24.1610    4.7340 C.ar  108  TRP108      0.0152
     18  NE1        6.6580  -23.3300    3.0980 N.ar  108  TRP108     -0.2442
     19  CE2        6.2580  -24.5000    3.6750 C.ar  108  TRP108      0.0810
     20  CE3        4.8890  -25.1810    5.5350 C.ar  108  TRP108      0.0012
     21  CZ2        6.6210  -25.8090    3.3860 C.ar  108  TRP108      0.0191
     22  CZ3        5.2540  -26.5060    5.2460 C.ar  108  TRP108      0.0001
     23  CH2        6.1080  -26.8000    4.1820 C.ar  108  TRP108      0.0015
     24  N          2.5530  -23.5890    3.6560 N.am  109  GLY109     -0.1940
     25  CA         2.0790  -24.9210    3.2860 C.3   109  GLY109      0.2014
     26  C          3.0510  -25.5410    2.2990 C.2   109  GLY109      0.2640
     27  O          3.7630  -24.8340    1.5770 O.2   109  GLY109     -0.2714
     28  N          3.1020  -26.8680    2.2740 N.am  110  SER110     -0.1935
     29  CA         3.9100  -27.5580    1.2700 C.3   110  SER110      0.2055
     30  C          3.3200  -27.3610   -0.1280 C.2   110  SER110      0.2643
     31  O          3.9500  -27.6800   -1.1390 O.2   110  SER110     -0.2714
     32  CB         3.9740  -29.0450    1.5860 C.3   110  SER110      0.2130
     33  OG         2.6700  -29.5780    1.6970 O.3   110  SER110     -0.2179
     34  N          2.0710  -26.9200   -0.1630 N.am  111  ILE111     -0.1963
     35  CA         1.3430  -26.7020   -1.4170 C.3   111  ILE111      0.1727
     36  C          0.3850  -25.5430   -1.1760 C.2   111  ILE111      0.2616
     37  O         -0.1290  -25.3700   -0.0840 O.2   111  ILE111     -0.2715
     38  CB         0.5970  -27.9810   -1.8850 C.3   111  ILE111      0.0290
     39  CG1        0.1740  -27.8690   -3.3450 C.3   111  ILE111      0.0022
     40  CG2       -0.6120  -28.2610   -1.0100 C.3   111  ILE111      0.0023
     41  CD1       -0.2050  -29.1990   -3.9930 C.3   111  ILE111      0.0001
     42  N          0.1920  -24.7230   -2.1900 N.am  112  VAL112     -0.1977
     43  CA        -0.8210  -23.6700   -2.1440 C.3   112  VAL112      0.1596
     44  C         -2.2070  -24.2530   -2.4620 C.2   112  VAL112      0.2287
     45  O         -2.3740  -25.0560   -3.3970 O.2   112  VAL112     -0.2864
     46  CB        -0.4870  -22.5730   -3.1530 C.3   112  VAL112      0.0276
     47  CG1       -1.7000  -21.6750   -3.3630 C.3   112  VAL112      0.0022
     48  CG2        0.7580  -21.7990   -2.6900 C.3   112  VAL112      0.0022
     49  N          6.3030  -34.7810   -1.8100 N.3   164  TRP164     -0.1241
     50  CA         6.9720  -33.5080   -1.4770 C.3   164  TRP164      0.1605
     51  C          8.2610  -33.7900   -0.7210 C.2   164  TRP164      0.2264
     52  O          8.3900  -34.8440   -0.1110 O.2   164  TRP164     -0.2867
     53  CB         6.0570  -32.6520   -0.6400 C.3   164  TRP164      0.0550
     54  CG         6.6040  -31.3190   -0.2020 C.ar  164  TRP164      0.0003
     55  CD1        6.6130  -30.1660   -0.9110 C.ar  164  TRP164      0.0946
     56  CD2        7.1960  -31.0000    1.0840 C.ar  164  TRP164      0.0152
     57  NE1        7.1700  -29.1320   -0.1510 N.ar  164  TRP164     -0.2442
     58  CE2        7.5330  -29.6290    1.0700 C.ar  164  TRP164      0.0810
     59  CE3        7.4480  -31.7420    2.2360 C.ar  164  TRP164      0.0012
     60  CZ2        8.1050  -28.9890    2.1530 C.ar  164  TRP164      0.0191
     61  CZ3        8.0160  -31.0990    3.3160 C.ar  164  TRP164      0.0001
     62  CH2        8.3370  -29.7350    3.2670 C.ar  164  TRP164      0.0015
     63  N         17.1390  -24.5910    5.2740 N.3   192  TRP192     -0.1227
     64  CA        15.7880  -24.4550    4.7750 C.3   192  TRP192      0.1737
     65  C         14.8840  -23.9180    5.8770 C.2   192  TRP192      0.2595
     66  O         15.0420  -24.2500    7.0410 O.2   192  TRP192     -0.2718
     67  CB        15.2950  -25.8330    4.3320 C.3   192  TRP192      0.0564
     68  CG        13.9550  -25.8380    3.6580 C.ar  192  TRP192      0.0003
     69  CD1       13.7250  -25.7390    2.3220 C.ar  192  TRP192      0.0946
     70  CD2       12.6670  -25.9260    4.2800 C.ar  192  TRP192      0.0152
     71  NE1       12.3820  -25.7390    2.0800 N.ar  192  TRP192     -0.2442
     72  CE2       11.7100  -25.8900    3.2520 C.ar  192  TRP192      0.0810
     73  CE3       12.2320  -26.0640    5.5970 C.ar  192  TRP192      0.0012
     74  CZ2       10.3440  -25.9750    3.4920 C.ar  192  TRP192      0.0191
     75  CZ3       10.8630  -26.1440    5.8420 C.ar  192  TRP192      0.0001
     76  CH2        9.9320  -26.0900    4.7910 C.ar  192  TRP192      0.0015
     77  N         13.9410  -23.0770    5.5260 N.am  193  HIS193     -0.1961
     78  CA        12.9610  -22.6760    6.5090 C.3   193  HIS193      0.1787
     79  C         11.7310  -22.1300    5.8460 C.2   193  HIS193      0.2621
     80  O         11.6770  -21.9840    4.6350 O.2   193  HIS193     -0.2715
     81  CB        13.5370  -21.6650    7.4960 C.3   193  HIS193      0.0785
     82  CG        13.8680  -20.3410    6.8960 C.ar  193  HIS193      0.0821
     83  ND1       13.1310  -19.2000    7.1530 N.ar  193  HIS193     -0.2267
     84  CD2       14.8890  -19.9570    6.1020 C.ar  193  HIS193      0.1154
     85  CE1       13.6700  -18.1790    6.5170 C.ar  193  HIS193      0.1986
     86  NE2       14.7440  -18.6120    5.8810 N.ar  193  HIS193     -0.2212
     87  N         10.7450  -21.8080    6.6610 N.am  194  THR194     -0.1937
     88  CA         9.4430  -21.4600    6.1460 C.3   194  THR194      0.2028
     89  C          9.1880  -19.9540    6.0470 C.2   194  THR194      0.2642
     90  O          8.1100  -19.5380    5.6510 O.2   194  THR194     -0.2714
     91  CB         8.3840  -22.1100    7.0360 C.3   194  THR194      0.1808
     92  OG1        8.6840  -21.8370    8.4170 O.3   194  THR194     -0.2208
     93  CG2        8.3650  -23.6250    6.7870 C.3   194  THR194      0.0379
     94  N         10.1770  -19.1460    6.4230 N.am  195  HIS195     -0.1973
     95  CA        10.0500  -17.6960    6.4160 C.3   195  HIS195      0.1656
     96  C          8.8850  -17.2270    7.2490 C.2   195  HIS195      0.2291
     97  O          8.1700  -16.3250    6.8420 O.2   195  HIS195     -0.2864
     98  CB         9.9210  -17.1630    4.9670 C.3   195  HIS195      0.0771
     99  CG        11.1290  -17.4530    4.1270 C.ar  195  HIS195      0.0820
    100  ND1       12.0930  -16.5040    3.8530 N.ar  195  HIS195     -0.2267
    101  CD2       11.5740  -18.6070    3.5750 C.ar  195  HIS195      0.1154
    102  CE1       13.0730  -17.0580    3.1590 C.ar  195  HIS195      0.1986
    103  NE2       12.7790  -18.3330    2.9670 N.ar  195  HIS195     -0.2212
@<TRIPOS>BOND
     1    41    39    1
     2    45    44    2
     3    47    46    1
     4    39    38    1
     5    46    48    1
     6    46    43    1
     7    44    43    1
     8    42    43    1
     9    42    36   am
    10    38    35    1
    11    38    40    1
    12    49    50    1
    13    50    51    1
    14    50    53    1
    15    35    36    1
    16    35    34    1
    17    36    37    2
    18    31    30    2
    19    55    54   ar
    20    55    57   ar
    21    51    52    2
    22    53    54    1
    23    54    56   ar
    24    34    30   am
    25    57    58   ar
    26    30    29    1
    27    58    56   ar
    28    58    60   ar
    29    56    59   ar
    30    29    32    1
    31    29    28    1
    32    27    26    2
    33    32    33    1
    34    71    69   ar
    35    71    72   ar
    36    60    62   ar
    37    59    61   ar
    38    28    26   am
    39    26    25    1
    40    69    68   ar
    41   103   102   ar
    42   103   101   ar
    43    18    19   ar
    44    18    16   ar
    45   102   100   ar
    46    72    74   ar
    47    72    70   ar
    48    62    61   ar
    49    25    24    1
    50    21    19   ar
    51    21    23   ar
    52    74    76   ar
    53   101    99   ar
    54    24    12   am
    55    68    70   ar
    56    68    67    1
    57    19    17   ar
    58    16    15   ar
    59   100    99   ar
    60    99    98    1
    61    23    22   ar
    62    70    73   ar
    63    67    64    1
    64    80    79    2
    65    17    15   ar
    66    17    20   ar
    67    15    14    1
    68    64    63    1
    69    64    65    1
    70    76    75   ar
    71    12    11    1
    72    12    13    2
    73    98    95    1
    74    11    14    1
    75    11    10    1
    76    22    20   ar
    77    77    65   am
    78    77    78    1
    79    73    75   ar
    80    90    89    2
    81     4     3    2
    82    79    78    1
    83    79    87   am
    84    65    66    2
    85    86    84   ar
    86    86    85   ar
    87    89    88    1
    88    89    94   am
    89    84    82   ar
    90    88    87    1
    91    88    91    1
    92    10     3   am
    93     3     2    1
    94    95    94    1
    95    95    96    1
    96    78    81    1
    97    85    83   ar
    98    93    91    1
    99    97    96    2
   100    82    83   ar
   101    82    81    1
   102    91    92    1
   103     2     1    1
   104     2     5    1
   105     5     6    1
   106     6     7    1
   107     7     8    1
   108     8     9    1
