@<TRIPOS>MOLECULE
tmp/4lecA00.pdb
 183 176 0 0 0
SMALL
GASTEIGER

@<TRIPOS>ATOM
      1  N         34.1970   10.6900   27.2520 N.3    28  VAL28      -0.1231
      2  CA        33.5660   11.0530   25.9820 C.3    28  VAL28       0.1692
      3  C         34.0670   10.2090   24.7590 C.2    28  VAL28       0.2591
      4  O         33.2310    9.6390   24.0560 O.2    28  VAL28      -0.2718
      5  CB        33.6950   12.5920   25.8210 C.3    28  VAL28       0.0266
      6  CG1       33.7490   13.0300   24.3760 C.3    28  VAL28       0.0020
      7  CG2       32.5570   13.3020   26.5690 C.3    28  VAL28       0.0020
      8  N         35.3920   10.0990   24.5450 N.am   29  ALA29      -0.1980
      9  CA        35.9960    9.3060   23.4660 C.3    29  ALA29       0.1597
     10  C         35.8210    7.7780   23.6520 C.2    29  ALA29       0.2287
     11  O         36.1080    7.0200   22.7260 O.2    29  ALA29      -0.2864
     12  CB        37.4870    9.6340   23.3500 C.3    29  ALA29       0.0319
     13  N         32.8800    6.1510   24.6860 N.3    31  VAL31      -0.1231
     14  CA        31.4800    5.7290   24.5610 C.3    31  VAL31       0.1692
     15  C         30.9860    6.0160   23.1430 C.2    31  VAL31       0.2592
     16  O         31.4710    6.9680   22.5260 O.2    31  VAL31      -0.2718
     17  CB        30.5220    6.3190   25.6170 C.3    31  VAL31       0.0266
     18  CG1       30.7670    5.7110   26.9920 C.3    31  VAL31       0.0020
     19  CG2       30.5690    7.8520   25.6460 C.3    31  VAL31       0.0020
     20  N         30.0320    5.1890   22.6300 N.am   32  VAL32      -0.1966
     21  CA        29.4120    5.3760   21.3110 C.3    32  VAL32       0.1727
     22  C         28.2650    6.3530   21.5340 C.2    32  VAL32       0.2616
     23  O         27.3950    6.1080   22.3750 O.2    32  VAL32      -0.2715
     24  CB        28.9020    4.0530   20.6600 C.3    32  VAL32       0.0290
     25  CG1       28.0960    4.3220   19.3820 C.3    32  VAL32       0.0023
     26  CG2       30.0380    3.0920   20.3720 C.3    32  VAL32       0.0023
     27  N         28.2720    7.4640   20.8000 N.am   33  TRP33      -0.1974
     28  CA        27.2340    8.4770   20.9090 C.3    33  TRP33       0.1640
     29  C         26.1850    8.1400   19.8790 C.2    33  TRP33       0.2290
     30  O         26.5120    7.4640   18.9060 O.2    33  TRP33      -0.2864
     31  CB        27.8430    9.8770   20.6830 C.3    33  TRP33       0.0576
     32  CG        28.7230   10.2940   21.8350 C.ar   33  TRP33       0.0006
     33  CD1       30.0230    9.9250   22.0580 C.ar   33  TRP33       0.0946
     34  CD2       28.3210   11.0620   22.9780 C.ar   33  TRP33       0.0152
     35  NE1       30.4580   10.4290   23.2590 N.ar   33  TRP33      -0.2442
     36  CE2       29.4280   11.1130   23.8570 C.ar   33  TRP33       0.0810
     37  CE3       27.1120   11.6730   23.3700 C.ar   33  TRP33       0.0012
     38  CZ2       29.3810   11.8020   25.0840 C.ar   33  TRP33       0.0191
     39  CZ3       27.0570   12.3240   24.6020 C.ar   33  TRP33       0.0001
     40  CH2       28.1820   12.3970   25.4370 C.ar   33  TRP33       0.0015
     41  N         26.8750    8.6310   16.0840 N.3    36  ALA36      -0.1245
     42  CA        27.6800    7.5830   15.4440 C.3    36  ALA36       0.1562
     43  C         26.7900    6.4400   14.9330 C.2    36  ALA36       0.2260
     44  O         27.0640    5.8940   13.8550 O.2    36  ALA36      -0.2867
     45  CB        28.7240    7.0520   16.4050 C.3    36  ALA36       0.0290
     46  N         37.8990    9.7740    9.1330 N.3    57  GLU57      -0.1245
     47  CA        36.9720   10.0420   10.2160 C.3    57  GLU57       0.1567
     48  C         37.7170   10.9300   11.2210 C.2    57  GLU57       0.2260
     49  O         38.8360   10.6110   11.6260 O.2    57  GLU57      -0.2867
     50  CB        36.4030    8.7720   10.8890 C.3    57  GLU57       0.0388
     51  CG        35.4460    9.1670   12.0070 C.3    57  GLU57       0.1160
     52  CD        34.5960    8.1430   12.7190 C.2    57  GLU57       0.3649
     53  OE1       34.9710    6.9510   12.7550 O.co2  57  GLU57      -0.2457
     54  OE2       33.5840    8.5620   13.3210 O.co2  57  GLU57      -0.2457
     55  N         37.6730   12.7740   14.9860 N.3    59  GLY59      -0.1210
     56  CA        37.2280   12.5150   16.3530 C.3    59  GLY59       0.1956
     57  C         36.4350   11.2310   16.4490 C.2    59  GLY59       0.2612
     58  O         35.2960   11.2470   16.9230 O.2    59  GLY59      -0.2717
     59  N         37.0270   10.1090   15.9340 N.am   60  ALA60      -0.1965
     60  CA        36.3690    8.7900   15.8500 C.3    60  ALA60       0.1728
     61  C         35.9240    8.1700   17.1860 C.2    60  ALA60       0.2617
     62  O         35.0210    7.3250   17.1880 O.2    60  ALA60      -0.2715
     63  CB        37.2520    7.8130   15.1150 C.3    60  ALA60       0.0334
     64  N         36.5560    8.5820   18.2780 N.am   61  GLY61      -0.1940
     65  CA        36.2850    8.0710   19.6180 C.3    61  GLY61       0.2014
     66  C         36.5700    6.5860   19.7530 C.2    61  GLY61       0.2639
     67  O         37.7190    6.1960   19.9290 O.2    61  GLY61      -0.2714
     68  N         35.5110    5.7560   19.6700 N.am   62  THR62      -0.1950
     69  CA        35.5770    4.2900   19.7250 C.3    62  THR62       0.1897
     70  C         35.8520    3.7480   18.3320 C.2    62  THR62       0.2313
     71  O         36.4160    2.6600   18.1940 O.2    62  THR62      -0.2863
     72  CB        34.2880    3.6890   20.2900 C.3    62  THR62       0.1794
     73  OG1       33.1770    4.1610   19.5220 O.3    62  THR62      -0.2208
     74  CG2       34.1060    3.9760   21.7820 C.3    62  THR62       0.0378
     75  N         41.6570   10.6880   15.6600 N.3    80  ASP80      -0.1225
     76  CA        41.3350   11.3560   16.9020 C.3    80  ASP80       0.1805
     77  C         42.6020   12.0240   17.4390 C.2    80  ASP80       0.2597
     78  O         43.6520   11.9810   16.7720 O.2    80  ASP80      -0.2718
     79  CB        40.6930   10.4060   17.9420 C.3    80  ASP80       0.1424
     80  CG        39.6660   11.1080   18.8220 C.2    80  ASP80       0.3668
     81  OD1       38.4720   10.7220   18.7690 O.co2  80  ASP80      -0.2456
     82  OD2       40.0580   12.0460   19.5710 O.co2  80  ASP80      -0.2456
     83  N         42.5030   12.6380   18.6340 N.am   81  ARG81      -0.1979
     84  CA        43.6420   13.2160   19.3140 C.3    81  ARG81       0.1597
     85  C         44.3740   12.1130   20.1040 C.2    81  ARG81       0.2287
     86  O         43.7820   11.0730   20.4210 O.2    81  ARG81      -0.2864
     87  CB        43.2260   14.4110   20.1850 C.3    81  ARG81       0.0334
     88  CG        42.2170   14.1130   21.2840 C.3    81  ARG81       0.0492
     89  CD        41.9090   15.3690   22.0860 C.3    81  ARG81       0.2205
     90  NE        40.8870   15.1060   23.0970 N.pl3  81  ARG81      -0.0865
     91  CZ        40.1890   16.0480   23.7300 C.cat  81  ARG81       0.5346
     92  NH1       39.2650   15.7100   24.6240 N.pl3  81  ARG81       0.1354
     93  NH2       40.3980   17.3300   23.4650 N.pl3  81  ARG81       0.1354
     94  N         43.0470    9.7370   22.9660 N.3    84  ALA84      -0.1245
     95  CA        41.9920    8.8050   22.5540 C.3    84  ALA84       0.1562
     96  C         42.5300    7.6760   21.6550 C.2    84  ALA84       0.2260
     97  O         41.8410    6.6890   21.4440 O.2    84  ALA84      -0.2867
     98  CB        40.9000    9.5700   21.8120 C.3    84  ALA84       0.0290
     99  N         45.2850   12.7460   14.5080 N.3   109  LEU109     -0.1231
    100  CA        44.9200   14.0100   13.8940 C.3   109  LEU109      0.1693
    101  C         44.2260   14.8330   14.9950 C.2   109  LEU109      0.2593
    102  O         43.0770   14.5590   15.3570 O.2   109  LEU109     -0.2718
    103  CB        44.0700   13.8360   12.6050 C.3   109  LEU109      0.0284
    104  CG        43.5230   15.0910   11.8400 C.3   109  LEU109      0.0019
    105  CD1       44.4810   16.2830   11.8540 C.3   109  LEU109      0.0001
    106  CD2       43.1610   14.7320   10.3890 C.3   109  LEU109      0.0001
    107  N         44.9950   15.7560   15.6060 N.am  110  THR110     -0.1939
    108  CA        44.5060   16.7100   16.6100 C.3   110  THR110      0.2028
    109  C         44.1320   17.9290   15.7620 C.2   110  THR110      0.2642
    110  O         44.9840   18.4070   15.0070 O.2   110  THR110     -0.2714
    111  CB        45.5740   17.0200   17.6820 C.3   110  THR110      0.1808
    112  OG1       45.9400   15.8090   18.3240 O.3   110  THR110     -0.2208
    113  CG2       45.0650   17.9930   18.7450 C.3   110  THR110      0.0379
    114  N         42.8490   18.3660   15.8190 N.am  111  TRP111     -0.1973
    115  CA        42.3080   19.4500   14.9900 C.3   111  TRP111      0.1640
    116  C         43.2160   20.6900   14.9450 C.2   111  TRP111      0.2290
    117  O         43.6430   21.2130   15.9910 O.2   111  TRP111     -0.2864
    118  CB        40.8440   19.8110   15.3720 C.3   111  TRP111      0.0576
    119  CG        39.9180   18.6180   15.3280 C.ar  111  TRP111      0.0006
    120  CD1       40.0650   17.4930   14.5640 C.ar  111  TRP111      0.0946
    121  CD2       38.7500   18.4070   16.1310 C.ar  111  TRP111      0.0152
    122  NE1       39.0630   16.5950   14.8400 N.ar  111  TRP111     -0.2442
    123  CE2       38.2340   17.1290   15.7940 C.ar  111  TRP111      0.0810
    124  CE3       38.1050   19.1580   17.1410 C.ar  111  TRP111      0.0012
    125  CZ2       37.1050   16.5790   16.4320 C.ar  111  TRP111      0.0191
    126  CZ3       36.9970   18.6130   17.7780 C.ar  111  TRP111      0.0001
    127  CH2       36.5080   17.3380   17.4320 C.ar  111  TRP111      0.0015
    128  N         31.0010   12.3380   13.6190 N.3   129  ALA129     -0.1231
    129  CA        29.7680   12.0870   14.3610 C.3   129  ALA129      0.1694
    130  C         29.8980   12.6820   15.7710 C.2   129  ALA129      0.2592
    131  O         30.7630   12.2510   16.5320 O.2   129  ALA129     -0.2718
    132  CB        29.4720   10.5840   14.4220 C.3   129  ALA129      0.0304
    133  N         29.0530   13.6750   16.1000 N.am  130  ASP130     -0.1960
    134  CA        28.9850   14.3500   17.4040 C.3   130  ASP130      0.1840
    135  C         30.3560   14.8570   17.9120 C.2   130  ASP130      0.2621
    136  O         30.7630   14.6070   19.0570 O.2   130  ASP130     -0.2715
    137  CB        28.3040   13.4670   18.4720 C.3   130  ASP130      0.1450
    138  CG        27.6080   14.2660   19.5630 C.2   130  ASP130      0.3671
    139  OD1       27.5010   15.5120   19.4190 O.co2 130  ASP130     -0.2456
    140  OD2       27.1500   13.6520   20.5320 O.co2 130  ASP130     -0.2456
    141  N         31.0150   15.6420   17.0700 N.am  131  ILE131     -0.1977
    142  CA        32.3380   16.1840   17.3520 C.3   131  ILE131      0.1596
    143  C         32.2710   17.7180   17.5390 C.2   131  ILE131      0.2287
    144  O         33.3090   18.3550   17.7290 O.2   131  ILE131     -0.2864
    145  CB        33.3580   15.7170   16.2630 C.3   131  ILE131      0.0276
    146  CG1       32.8840   16.0870   14.8440 C.3   131  ILE131      0.0022
    147  CG2       33.6140   14.2250   16.3630 C.3   131  ILE131      0.0022
    148  CD1       34.0620   16.2430   13.7710 C.3   131  ILE131      0.0001
    149  N         31.2350   20.4300   20.0000 N.3   133  TYR133     -0.1227
    150  CA        30.9580   20.6040   21.4350 C.3   133  TYR133      0.1736
    151  C         31.9810   21.4450   22.1620 C.2   133  TYR133      0.2595
    152  O         31.6440   21.9850   23.2050 O.2   133  TYR133     -0.2718
    153  CB        30.7940   19.2320   22.1510 C.3   133  TYR133      0.0548
    154  CG        32.0400   18.3860   22.3420 C.ar  133  TYR133     -0.0200
    155  CD1       32.5190   18.0940   23.6170 C.ar  133  TYR133     -0.0009
    156  CD2       32.6810   17.7890   21.2530 C.ar  133  TYR133     -0.0009
    157  CE1       33.6080   17.2450   23.8020 C.ar  133  TYR133      0.0417
    158  CE2       33.8130   17.0010   21.4230 C.ar  133  TYR133      0.0417
    159  CZ        34.2610   16.7120   22.7020 C.ar  133  TYR133      0.1957
    160  OH        35.3670   15.9150   22.8910 O.3   133  TYR133     -0.2866
    161  N         33.2250   21.5350   21.6620 N.am  134  LEU134     -0.1980
    162  CA        34.2930   22.2960   22.3380 C.3   134  LEU134      0.1596
    163  C         34.6080   23.5820   21.6050 C.2   134  LEU134      0.2287
    164  O         35.3780   23.5600   20.6440 O.2   134  LEU134     -0.2864
    165  CB        35.5720   21.4420   22.5230 C.3   134  LEU134      0.0297
    166  CG        35.4490   20.1710   23.3860 C.3   134  LEU134      0.0022
    167  CD1       36.7300   19.3450   23.3370 C.3   134  LEU134      0.0001
    168  CD2       35.0580   20.5080   24.8470 C.3   134  LEU134      0.0001
    169  N         38.1550   24.8740   20.2890 N.3   137  THR137     -0.1218
    170  CA        38.8580   24.2850   19.1390 C.3   137  THR137      0.1862
    171  C         37.9790   24.3200   17.8850 C.2   137  THR137      0.2287
    172  O         38.2590   23.6160   16.9100 O.2   137  THR137     -0.2866
    173  CB        39.4650   22.9040   19.4570 C.3   137  THR137      0.1770
    174  OG1       38.4340   22.0080   19.8750 O.3   137  THR137     -0.2211
    175  CG2       40.5750   22.9800   20.5100 C.3   137  THR137      0.0375
    176  N         40.2090   25.4300   15.0810 N.3   140  ASP140     -0.1239
    177  CA        41.0440   24.2520   14.7950 C.3   140  ASP140      0.1674
    178  C         40.3180   23.2440   13.8920 C.2   140  ASP140      0.2266
    179  O         40.9230   22.7240   12.9590 O.2   140  ASP140     -0.2867
    180  CB        41.4700   23.5530   16.1060 C.3   140  ASP140      0.1410
    181  CG        42.4910   24.2700   16.9880 C.2   140  ASP140      0.3668
    182  OD1       43.0260   25.3000   16.5590 O.co2 140  ASP140     -0.2456
    183  OD2       42.7750   23.7690   18.0950 O.co2 140  ASP140     -0.2456
@<TRIPOS>BOND
     1    46    47    1
     2    47    50    1
     3    47    48    1
     4   106   104    1
     5    50    51    1
     6    48    49    2
     7   104   105    1
     8   104   103    1
     9    51    52    1
    10   103   100    1
    11    52    53   ar
    12    52    54   ar
    13   179   178    2
    14   128   129    1
    15   148   146    1
    16    44    43    2
    17   178   177    1
    18   100    99    1
    19   100   101    1
    20   129   132    1
    21   129   130    1
    22   120   122   ar
    23   120   119   ar
    24   177   176    1
    25   177   180    1
    26   122   123   ar
    27   146   145    1
    28    43    42    1
    29   116   115    1
    30   116   117    2
    31    55    56    1
    32   115   118    1
    33   115   114    1
    34   101   102    2
    35   101   107   am
    36   110   109    2
    37    63    60    1
    38   119   118    1
    39   119   121   ar
    40    42    41    1
    41    42    45    1
    42   107   108    1
    43    75    76    1
    44   109   114   am
    45   109   108    1
    46   130   133   am
    47   130   131    2
    48   123   121   ar
    49   123   125   ar
    50    60    59    1
    51    60    61    1
    52    59    57   am
    53   133   134    1
    54   180   181    1
    55   121   124   ar
    56   145   147    1
    57   145   142    1
    58    56    57    1
    59   125   127   ar
    60    57    58    2
    61   182   181   ar
    62   108   111    1
    63    78    77    2
    64    76    77    1
    65    76    79    1
    66   172   171    2
    67   181   183   ar
    68   141   142    1
    69   141   135   am
    70   124   126   ar
    71    61    62    2
    72    61    64   am
    73   142   143    1
    74   134   135    1
    75   134   137    1
    76   127   126   ar
    77    77    83   am
    78   143   144    2
    79   111   112    1
    80   111   113    1
    81   171   170    1
    82   135   136    2
    83    79    80    1
    84    71    70    2
    85    64    65    1
    86    70    69    1
    87   137   138    1
    88    83    84    1
    89    81    80   ar
    90    80    82   ar
    91    30    29    2
    92   170   173    1
    93   170   169    1
    94    84    85    1
    95    84    87    1
    96    25    24    1
    97   139   138   ar
    98   173   174    1
    99   173   175    1
   100    73    72    1
   101   138   140   ar
   102    65    66    1
   103    68    69    1
   104    68    66   am
   105    69    72    1
   106    66    67    2
   107    29    28    1
   108   149   150    1
   109    85    86    2
   110    87    88    1
   111    72    74    1
   112    26    24    1
   113   164   163    2
   114    24    21    1
   115    31    28    1
   116    31    32    1
   117    27    28    1
   118    27    22   am
   119   156   158   ar
   120   156   154   ar
   121    88    89    1
   122    21    22    1
   123    21    20    1
   124   158   159   ar
   125   150   153    1
   126   150   151    1
   127    97    96    2
   128    22    23    2
   129   163   162    1
   130    96    95    1
   131   161   151   am
   132   161   162    1
   133    98    95    1
   134    32    33   ar
   135    32    34   ar
   136    33    35   ar
   137    89    90    1
   138   153   154    1
   139   151   152    2
   140   162   165    1
   141   154   155   ar
   142   165   166    1
   143    16    15    2
   144    95    94    1
   145    20    15   am
   146   159   160    1
   147   159   157   ar
   148    11    10    2
   149    34    37   ar
   150    34    36   ar
   151    90    91    2
   152    15    14    1
   153    35    36   ar
   154   167   166    1
   155    12     9    1
   156    37    39   ar
   157   166   168    1
   158    93    91    1
   159     9    10    1
   160     9     8    1
   161   155   157   ar
   162    91    92    1
   163    36    38   ar
   164     4     3    2
   165     6     5    1
   166     8     3   am
   167    14    13    1
   168    14    17    1
   169    39    40   ar
   170     3     2    1
   171    38    40   ar
   172    17    19    1
   173    17    18    1
   174     5     2    1
   175     5     7    1
   176     2     1    1
