@<TRIPOS>MOLECULE
tmp/4leiA00.pdb
 153 148 0 0 0
SMALL
GASTEIGER

@<TRIPOS>ATOM
      1  N         41.6680   -7.2520   50.0850 N.3    14  SER14      -0.1217
      2  CA        40.2290   -7.5070   50.0090 C.3    14  SER14       0.1889
      3  C         39.4110   -6.3980   50.6750 C.2    14  SER14       0.2288
      4  O         38.4240   -5.8970   50.1200 O.2    14  SER14      -0.2866
      5  CB        39.9240   -8.8280   50.6850 C.3    14  SER14       0.2089
      6  OG        40.2700   -8.7400   52.0560 O.3    14  SER14      -0.2183
      7  N         39.9350   -3.3190   48.3660 N.3    17  PHE17      -0.1241
      8  CA        39.2010   -3.4450   47.1160 C.3    17  PHE17       0.1605
      9  C         37.7510   -3.0570   47.3390 C.2    17  PHE17       0.2264
     10  O         37.1850   -2.2210   46.5970 O.2    17  PHE17      -0.2867
     11  CB        39.3230   -4.8690   46.5470 C.3    17  PHE17       0.0534
     12  CG        40.7090   -5.2020   46.0500 C.ar   17  PHE17      -0.0203
     13  CD1       41.6820   -4.1730   45.8790 C.ar   17  PHE17      -0.0042
     14  CD2       41.0520   -6.5250   45.7300 C.ar   17  PHE17      -0.0042
     15  CE1       42.9580   -4.4670   45.4160 C.ar   17  PHE17      -0.0003
     16  CE2       42.3270   -6.8180   45.2550 C.ar   17  PHE17      -0.0003
     17  CZ        43.2850   -5.7930   45.1010 C.ar   17  PHE17      -0.0000
     18  N         36.2490   -4.9740   42.0840 N.3   195  TYR195     -0.1227
     19  CA        37.6200   -4.5940   41.6880 C.3   195  TYR195      0.1736
     20  C         38.5670   -5.5930   42.3140 C.2   195  TYR195      0.2595
     21  O         38.5620   -5.7780   43.5430 O.2   195  TYR195     -0.2718
     22  CB        38.0250   -3.1660   42.0780 C.3   195  TYR195      0.0548
     23  CG        39.5250   -2.8450   41.8570 C.ar  195  TYR195     -0.0200
     24  CD1       40.5030   -3.2750   42.7730 C.ar  195  TYR195     -0.0009
     25  CD2       39.9550   -2.0950   40.7560 C.ar  195  TYR195     -0.0009
     26  CE1       41.8460   -2.9930   42.5960 C.ar  195  TYR195      0.0417
     27  CE2       41.3010   -1.7990   40.5780 C.ar  195  TYR195      0.0417
     28  CZ        42.2500   -2.2530   41.5030 C.ar  195  TYR195      0.1957
     29  OH        43.6110   -1.9630   41.3470 O.3   195  TYR195     -0.2866
     30  N         39.3850   -6.2020   41.4550 N.am  196  ASN196     -0.1974
     31  CA        40.0830   -7.4130   41.7780 C.3   196  ASN196      0.1688
     32  C         41.5840   -7.2900   41.6490 C.2   196  ASN196      0.2292
     33  O         42.3010   -8.2930   41.5350 O.2   196  ASN196     -0.2864
     34  CB        39.5500   -8.5280   40.9030 C.3   196  ASN196      0.1181
     35  CG        38.0820   -8.8290   41.1790 C.2   196  ASN196      0.2629
     36  OD1       37.3250   -9.1690   40.2530 O.2   196  ASN196     -0.2716
     37  ND2       37.6620   -8.7010   42.4550 N.am  196  ASN196     -0.0877
     38  N         39.7210  -20.6990   42.8560 N.3   217  THR217     -0.1203
     39  CA        40.4670  -19.6360   43.4880 C.3   217  THR217      0.1994
     40  C         40.3580  -19.6180   44.9860 C.2   217  THR217      0.2618
     41  O         39.4080  -20.1210   45.5840 O.2   217  THR217     -0.2717
     42  CB        40.0960  -18.2380   42.9510 C.3   217  THR217      0.1784
     43  OG1       41.0150  -17.2820   43.4870 O.3   217  THR217     -0.2211
     44  CG2       38.6930  -17.8480   43.3520 C.3   217  THR217      0.0376
     45  N         41.4200  -19.0890   45.5610 N.am  218  ARG218     -0.1965
     46  CA        41.3720  -18.4590   46.8390 C.3   218  ARG218      0.1729
     47  C         42.1130  -17.1610   46.6530 C.2   218  ARG218      0.2617
     48  O         43.2490  -17.1490   46.1640 O.2   218  ARG218     -0.2715
     49  CB        42.0520  -19.2690   47.9340 C.3   218  ARG218      0.0348
     50  CG        42.2390  -18.3940   49.1640 C.3   218  ARG218      0.0492
     51  CD        40.9140  -18.0650   49.8710 C.3   218  ARG218      0.2205
     52  NE        39.6880  -18.0390   49.0540 N.pl3 218  ARG218     -0.0865
     53  CZ        38.9170  -16.9670   48.8980 C.cat 218  ARG218      0.5346
     54  NH1       39.2480  -15.8260   49.4840 N.pl3 218  ARG218      0.1354
     55  NH2       37.8270  -17.0250   48.1440 N.pl3 218  ARG218      0.1354
     56  N         41.4720  -16.0690   47.0420 N.am  219  GLY219     -0.1940
     57  CA        42.0750  -14.7610   46.9070 C.3   219  GLY219      0.2014
     58  C         43.3580  -14.7010   47.6850 C.2   219  GLY219      0.2639
     59  O         43.7210  -15.6430   48.3750 O.2   219  GLY219     -0.2714
     60  N         44.0220  -13.5690   47.5890 N.am  220  LEU220     -0.1963
     61  CA        45.3490  -13.3910   48.1420 C.3   220  LEU220      0.1728
     62  C         45.3750  -13.6040   49.6440 C.2   220  LEU220      0.2617
     63  O         45.9880  -14.5550   50.1410 O.2   220  LEU220     -0.2715
     64  CB        45.8630  -11.9810   47.8270 C.3   220  LEU220      0.0311
     65  CG        45.1920  -11.1030   46.7460 C.3   220  LEU220      0.0022
     66  CD1       45.1100  -11.7830   45.3830 C.3   220  LEU220      0.0001
     67  CD2       43.8380  -10.5440   47.1950 C.3   220  LEU220      0.0001
     68  N         44.6780  -12.7160   50.3550 N.am  221  THR221     -0.1937
     69  CA        44.8100  -12.5580   51.8250 C.3   221  THR221      0.2028
     70  C         44.8470  -13.8930   52.5850 C.2   221  THR221      0.2642
     71  O         45.5670  -14.0170   53.5620 O.2   221  THR221     -0.2714
     72  CB        43.7510  -11.5610   52.4160 C.3   221  THR221      0.1808
     73  OG1       43.5400  -10.4460   51.5170 O.3   221  THR221     -0.2208
     74  CG2       44.1590  -11.0490   53.8120 C.3   221  THR221      0.0379
     75  N         44.1010  -14.8920   52.1110 N.am  222  LYS222     -0.1977
     76  CA        44.1590  -16.2320   52.7030 C.3   222  LYS222      0.1596
     77  C         45.4200  -16.9490   52.2340 C.2   222  LYS222      0.2287
     78  O         46.5310  -16.5340   52.5800 O.2   222  LYS222     -0.2864
     79  CB        42.8870  -17.0520   52.4120 C.3   222  LYS222      0.0298
     80  CG        42.5710  -18.1630   53.4290 C.3   222  LYS222      0.0038
     81  CD        43.1030  -19.5370   53.0160 C.3   222  LYS222      0.0206
     82  CE        43.1240  -20.5160   54.1850 C.3   222  LYS222      0.1093
     83  NZ        41.7660  -20.9120   54.6480 N.3   222  LYS222     -0.1314
     84  N         43.8390  -20.7390   40.3070 N.3   250  THR250     -0.1218
     85  CA        44.6220  -19.5130   40.4410 C.3   250  THR250      0.1862
     86  C         45.6780  -19.6210   41.5320 C.2   250  THR250      0.2287
     87  O         45.4870  -19.0970   42.6200 O.2   250  THR250     -0.2866
     88  CB        43.7290  -18.2610   40.6290 C.3   250  THR250      0.1770
     89  OG1       42.9750  -18.3510   41.8450 O.3   250  THR250     -0.2211
     90  CG2       42.7820  -18.1150   39.4760 C.3   250  THR250      0.0375
     91  N         49.2630  -17.3290   38.6700 N.3   266  GLU266     -0.1231
     92  CA        49.4680  -16.7080   40.0040 C.3   266  GLU266      0.1699
     93  C         48.3250  -15.7820   40.4010 C.2   266  GLU266      0.2592
     94  O         47.7880  -15.8830   41.5170 O.2   266  GLU266     -0.2718
     95  CB        50.8300  -16.0130   40.1570 C.3   266  GLU266      0.0402
     96  CG        51.8140  -16.8490   40.9680 C.3   266  GLU266      0.1161
     97  CD        52.8170  -16.0260   41.7660 C.2   266  GLU266      0.3649
     98  OE1       53.5960  -15.2710   41.1440 O.co2 266  GLU266     -0.2457
     99  OE2       52.8440  -16.1530   43.0170 O.co2 266  GLU266     -0.2457
    100  N         47.9820  -14.8960   39.4600 N.am  267  TYR267     -0.1962
    101  CA        46.8280  -13.9940   39.5060 C.3   267  TYR267      0.1771
    102  C         46.1830  -13.9690   38.1100 C.2   267  TYR267      0.2619
    103  O         46.8960  -13.8590   37.1280 O.2   267  TYR267     -0.2715
    104  CB        47.2630  -12.5750   39.9540 C.3   267  TYR267      0.0574
    105  CG        46.1590  -11.5320   39.9070 C.ar  267  TYR267     -0.0198
    106  CD1       45.2560  -11.3620   40.9910 C.ar  267  TYR267     -0.0009
    107  CD2       45.9940  -10.7290   38.7790 C.ar  267  TYR267     -0.0009
    108  CE1       44.2340  -10.4140   40.9470 C.ar  267  TYR267      0.0417
    109  CE2       44.9800   -9.7860   38.7230 C.ar  267  TYR267      0.0417
    110  CZ        44.1040   -9.6250   39.7970 C.ar  267  TYR267      0.1957
    111  OH        43.1170   -8.6640   39.6810 O.3   267  TYR267     -0.2866
    112  N         44.8550  -14.1360   38.0310 N.am  268  VAL268     -0.1977
    113  CA        44.0780  -13.7640   36.8200 C.3   268  VAL268      0.1596
    114  C         42.9450  -12.8370   37.2520 C.2   268  VAL268      0.2287
    115  O         42.2720  -13.1610   38.2180 O.2   268  VAL268     -0.2864
    116  CB        43.4430  -14.9720   36.0480 C.3   268  VAL268      0.0276
    117  CG1       44.0510  -16.3190   36.4620 C.3   268  VAL268      0.0022
    118  CG2       41.9180  -14.9910   36.1900 C.3   268  VAL268      0.0022
    119  N         39.8160  -11.7940   38.1920 N.3   270  LEU270     -0.1245
    120  CA        38.7590  -12.7330   38.4600 C.3   270  LEU270      0.1561
    121  C         37.4490  -12.3270   37.7640 C.2   270  LEU270      0.2260
    122  O         36.8260  -13.1530   37.0820 O.2   270  LEU270     -0.2867
    123  CB        38.5960  -12.9010   39.9810 C.3   270  LEU270      0.0270
    124  CG        37.2680  -13.4370   40.5020 C.3   270  LEU270      0.0019
    125  CD1       37.1010  -14.9310   40.2590 C.3   270  LEU270      0.0001
    126  CD2       37.1940  -13.0990   41.9740 C.3   270  LEU270      0.0001
    127  N         35.5040  -16.4370   51.1710 N.3   285  SER285     -0.1202
    128  CA        35.7560  -15.0490   51.4820 C.3   285  SER285      0.2020
    129  C         34.9390  -14.1210   50.5960 C.2   285  SER285      0.2619
    130  O         34.3020  -14.5760   49.6600 O.2   285  SER285     -0.2717
    131  CB        37.2130  -14.7360   51.4020 C.3   285  SER285      0.2103
    132  OG        37.3550  -13.4990   52.0420 O.3   285  SER285     -0.2182
    133  N         34.9330  -12.8310   50.8840 N.am  286  THR286     -0.1938
    134  CA        33.7770  -12.0490   50.4470 C.3   286  THR286      0.2028
    135  C         33.8790  -11.3460   49.1090 C.2   286  THR286      0.2643
    136  O         32.8780  -11.2890   48.3950 O.2   286  THR286     -0.2714
    137  CB        33.1650  -11.1440   51.5680 C.3   286  THR286      0.1808
    138  OG1       32.4670  -10.0220   50.9850 O.3   286  THR286     -0.2208
    139  CG2       34.2600  -10.6950   52.5780 C.3   286  THR286      0.0379
    140  N         35.0500  -10.8120   48.7670 N.am  287  THR287     -0.1936
    141  CA        35.1810  -10.0830   47.4940 C.3   287  THR287      0.2028
    142  C         35.0770  -11.0680   46.3370 C.2   287  THR287      0.2642
    143  O         34.3180  -10.8600   45.4010 O.2   287  THR287     -0.2714
    144  CB        36.4740   -9.2560   47.4020 C.3   287  THR287      0.1808
    145  OG1       37.4900   -9.8850   48.1870 O.3   287  THR287     -0.2208
    146  CG2       36.2460   -7.8590   47.9560 C.3   287  THR287      0.0379
    147  N         35.8340  -12.1530   46.4400 N.am  288  THR288     -0.1950
    148  CA        35.6800  -13.3360   45.6080 C.3   288  THR288      0.1897
    149  C         34.2200  -13.7670   45.4690 C.2   288  THR288      0.2313
    150  O         33.7770  -14.1210   44.3840 O.2   288  THR288     -0.2863
    151  CB        36.5100  -14.4880   46.2130 C.3   288  THR288      0.1794
    152  OG1       37.8670  -14.3490   45.7880 O.3   288  THR288     -0.2208
    153  CG2       36.0030  -15.8200   45.7950 C.3   288  THR288      0.0378
@<TRIPOS>BOND
     1   116   118    1
     2   116   117    1
     3   116   113    1
     4   113   114    1
     5   113   112    1
     6   122   121    2
     7   103   102    2
     8   114   115    2
     9   121   120    1
    10   112   102   am
    11   102   101    1
    12   119   120    1
    13   120   123    1
    14    91    92    1
    15   109   107   ar
    16   109   110   ar
    17   107   105   ar
    18   100   101    1
    19   100    93   am
    20    90    88    1
    21   101   104    1
    22   111   110    1
    23   110   108   ar
    24   105   104    1
    25   105   106   ar
    26   123   124    1
    27    92    95    1
    28    92    93    1
    29    95    96    1
    30    36    35    2
    31   125   124    1
    32    84    85    1
    33    93    94    2
    34    85    88    1
    35    85    86    1
    36   124   126    1
    37    27    25   ar
    38    27    28   ar
    39    88    89    1
    40    25    23   ar
    41    34    35    1
    42    34    31    1
    43   108   106   ar
    44    96    97    1
    45    98    97   ar
    46    35    37   am
    47    29    28    1
    48    30    31    1
    49    30    20   am
    50    28    26   ar
    51    86    87    2
    52    33    32    2
    53    32    31    1
    54    19    22    1
    55    19    18    1
    56    19    20    1
    57    97    99   ar
    58    23    22    1
    59    23    24   ar
    60    20    21    2
    61    26    24   ar
    62    38    39    1
    63    42    44    1
    64    42    43    1
    65    42    39    1
    66    39    40    1
    67   150   149    2
    68    40    45   am
    69    40    41    2
    70    17    16   ar
    71    17    15   ar
    72    16    14   ar
    73    66    65    1
    74   143   142    2
    75    15    13   ar
    76   149   148    1
    77    45    46    1
    78   148   151    1
    79   148   147    1
    80    14    12   ar
    81   152   151    1
    82   153   151    1
    83    13    12   ar
    84    12    11    1
    85    48    47    2
    86   142   147   am
    87   142   141    1
    88    11     8    1
    89    10     9    2
    90    47    46    1
    91    47    56   am
    92    65    67    1
    93    65    64    1
    94    46    49    1
    95    57    56    1
    96    57    58    1
    97     8     9    1
    98     8     7    1
    99   144   141    1
   100   144   146    1
   101   144   145    1
   102   141   140    1
   103    60    58   am
   104    60    61    1
   105    58    59    2
   106    64    61    1
   107    49    50    1
   108    61    62    1
   109    55    53    1
   110   136   135    2
   111   140   135   am
   112    53    52    2
   113    53    54    1
   114    52    51    1
   115   135   134    1
   116    50    51    1
   117    62    63    2
   118    62    68   am
   119   130   129    2
   120     2     1    1
   121     2     3    1
   122     2     5    1
   123     4     3    2
   124    68    69    1
   125   134   133    1
   126   134   137    1
   127   129   133   am
   128   129   128    1
   129     5     6    1
   130   138   137    1
   131   127   128    1
   132   131   128    1
   133   131   132    1
   134    73    72    1
   135   137   139    1
   136    69    72    1
   137    69    70    1
   138    75    70   am
   139    75    76    1
   140    77    78    2
   141    77    76    1
   142    79    76    1
   143    79    80    1
   144    72    74    1
   145    70    71    2
   146    81    80    1
   147    81    82    1
   148    82    83    1
