@<TRIPOS>MOLECULE
tmp/4lekA01.pdb
 191 180 0 0 0
SMALL
GASTEIGER

@<TRIPOS>ATOM
      1  N         -2.5340   25.1680    0.5330 N.3     5  LEU5       -0.1231
      2  CA        -3.6980   25.4140   -0.3130 C.3     5  LEU5        0.1693
      3  C         -3.2220   25.4010   -1.7540 C.2     5  LEU5        0.2592
      4  O         -2.2670   26.0940   -2.0970 O.2     5  LEU5       -0.2718
      5  CB        -4.3290   26.7800   -0.0150 C.3     5  LEU5        0.0284
      6  CG        -5.0000   27.0520    1.3280 C.3     5  LEU5        0.0019
      7  CD1       -5.3860   28.5230    1.4260 C.3     5  LEU5        0.0001
      8  CD2       -6.2200   26.1700    1.5290 C.3     5  LEU5        0.0001
      9  N         -3.8820   24.6120   -2.5960 N.am    6  VAL6       -0.1966
     10  CA        -3.5220   24.5590   -4.0190 C.3     6  VAL6        0.1727
     11  C         -4.7030   24.1470   -4.9000 C.2     6  VAL6        0.2616
     12  O         -5.5710   23.3770   -4.4770 O.2     6  VAL6       -0.2715
     13  CB        -2.2730   23.6430   -4.2860 C.3     6  VAL6        0.0290
     14  CG1       -2.5840   22.1790   -3.9810 C.3     6  VAL6        0.0023
     15  CG2       -1.7620   23.8030   -5.7250 C.3     6  VAL6        0.0023
     16  N         -4.7340   24.7010   -6.1110 N.am    7  ALA7       -0.1977
     17  CA        -5.5870   24.2130   -7.1820 C.3     7  ALA7        0.1597
     18  C         -4.6730   23.6440   -8.2570 C.2     7  ALA7        0.2287
     19  O         -3.7990   24.3450   -8.7750 O.2     7  ALA7       -0.2864
     20  CB        -6.4430   25.3350   -7.7550 C.3     7  ALA7        0.0319
     21  N         -0.3500   24.0620  -12.1760 N.3    14  ILE14      -0.1245
     22  CA        -0.8570   25.0950  -11.2610 C.3    14  ILE14       0.1561
     23  C         -0.8580   26.5120  -11.8520 C.2    14  ILE14       0.2260
     24  O         -1.5860   27.3840  -11.3800 O.2    14  ILE14      -0.2867
     25  CB        -0.1210   25.0990   -9.8820 C.3    14  ILE14       0.0252
     26  CG1        1.3840   25.3580  -10.0420 C.3    14  ILE14       0.0019
     27  CG2       -0.3940   23.8020   -9.1210 C.3    14  ILE14       0.0019
     28  CD1        2.0810   25.6640   -8.7190 C.3    14  ILE14       0.0001
     29  N          2.5680   33.1960  -14.9970 N.3    18  ASN18      -0.1225
     30  CA         2.3260   33.8660  -13.7120 C.3    18  ASN18       0.1785
     31  C          0.8600   34.1360  -13.3600 C.2    18  ASN18       0.2597
     32  O          0.5530   35.0040  -12.5380 O.2    18  ASN18      -0.2718
     33  CB         3.1980   35.1230  -13.5820 C.3    18  ASN18       0.1169
     34  CG         4.6590   34.7810  -13.3710 C.2    18  ASN18       0.2627
     35  OD1        4.9820   33.8600  -12.6160 O.2    18  ASN18      -0.2716
     36  ND2        5.5450   35.5050  -14.0390 N.am   18  ASN18      -0.0877
     37  N         -0.0360   33.3670  -13.9720 N.am   19  GLN19      -0.1965
     38  CA        -1.4630   33.4340  -13.6530 C.3    19  GLN19       0.1733
     39  C         -2.0500   32.0290  -13.5640 C.2    19  GLN19       0.2616
     40  O         -1.3960   31.0510  -13.9360 O.2    19  GLN19      -0.2715
     41  CB        -2.2250   34.2690  -14.6960 C.3    19  GLN19       0.0408
     42  CG        -1.8200   35.7560  -14.7790 C.3    19  GLN19       0.0908
     43  CD        -2.0600   36.5380  -13.4870 C.2    19  GLN19       0.2608
     44  OE1       -2.9450   36.2090  -12.6930 O.2    19  GLN19      -0.2717
     45  NE2       -1.2680   37.5850  -13.2760 N.am   19  GLN19      -0.0878
     46  N         -3.2770   31.9310  -13.0550 N.am   20  LEU20      -0.1977
     47  CA        -4.0180   30.6670  -13.0890 C.3    20  LEU20       0.1596
     48  C         -4.4250   30.3470  -14.5280 C.2    20  LEU20       0.2287
     49  O         -4.8570   31.2410  -15.2540 O.2    20  LEU20      -0.2864
     50  CB        -5.2610   30.7480  -12.2000 C.3    20  LEU20       0.0297
     51  CG        -5.0310   30.9920  -10.7060 C.3    20  LEU20       0.0022
     52  CD1       -6.3330   31.3760   -9.9950 C.3    20  LEU20       0.0001
     53  CD2       -4.3980   29.7730  -10.0570 C.3    20  LEU20       0.0001
     54  N        -13.3630   28.3380   -6.7740 N.3    27  ASP27      -0.1225
     55  CA       -12.0890   28.0270   -6.1200 C.3    27  ASP27       0.1805
     56  C        -11.6250   29.1960   -5.2580 C.2    27  ASP27       0.2597
     57  O        -11.1550   29.0030   -4.1380 O.2    27  ASP27      -0.2718
     58  CB       -10.9980   27.6520   -7.1290 C.3    27  ASP27       0.1424
     59  CG        -9.6240   27.5250   -6.4780 C.2    27  ASP27       0.3668
     60  OD1       -9.4070   26.5750   -5.6950 O.co2  27  ASP27      -0.2456
     61  OD2       -8.7620   28.3880   -6.7370 O.co2  27  ASP27      -0.2456
     62  N        -11.7600   30.4090   -5.7910 N.am   28  LEU28      -0.1979
     63  CA       -11.3710   31.6090   -5.0640 C.3    28  LEU28       0.1596
     64  C        -12.2150   31.7850   -3.7990 C.2    28  LEU28       0.2287
     65  O        -11.6860   32.1450   -2.7450 O.2    28  LEU28      -0.2864
     66  CB       -11.4420   32.8410   -5.9770 C.3    28  LEU28       0.0297
     67  CG       -10.2100   33.1510   -6.8470 C.3    28  LEU28       0.0022
     68  CD1       -9.8280   32.0320   -7.8010 C.3    28  LEU28       0.0001
     69  CD2      -10.4180   34.4480   -7.6230 C.3    28  LEU28       0.0001
     70  N        -13.6920   29.2920   -2.1800 N.3    30  HIS30      -0.1226
     71  CA       -13.2200   28.1850   -1.3430 C.3    30  HIS30       0.1752
     72  C        -12.0090   28.6090   -0.5110 C.2    30  HIS30       0.2596
     73  O        -11.9790   28.4200    0.7060 O.2    30  HIS30      -0.2718
     74  CB       -12.8770   26.9960   -2.2480 C.3    30  HIS30       0.0759
     75  CG       -12.3440   25.7980   -1.5260 C.ar   30  HIS30       0.0818
     76  ND1      -13.1290   25.0070   -0.7140 N.ar   30  HIS30      -0.2268
     77  CD2      -11.1150   25.2300   -1.5300 C.ar   30  HIS30       0.1154
     78  CE1      -12.4010   24.0170   -0.2300 C.ar   30  HIS30       0.1986
     79  NE2      -11.1750   24.1280   -0.7110 N.ar   30  HIS30      -0.2212
     80  N        -11.0300   29.2070   -1.1860 N.am   31  VAL31      -0.1966
     81  CA        -9.7910   29.6710   -0.5690 C.3    31  VAL31       0.1727
     82  C        -10.0370   30.8300    0.3980 C.2    31  VAL31       0.2616
     83  O         -9.4200   30.8970    1.4650 O.2    31  VAL31      -0.2715
     84  CB        -8.7620   30.0610   -1.6630 C.3    31  VAL31       0.0290
     85  CG1       -7.6430   30.9300   -1.1030 C.3    31  VAL31       0.0023
     86  CG2       -8.2090   28.8110   -2.2980 C.3    31  VAL31       0.0023
     87  N        -10.9450   31.7270    0.0210 N.am   32  LYS32      -0.1977
     88  CA       -11.3280   32.8510    0.8730 C.3    32  LYS32       0.1596
     89  C        -11.9040   32.3500    2.1970 C.2    32  LYS32       0.2287
     90  O        -11.4880   32.7990    3.2670 O.2    32  LYS32      -0.2864
     91  CB       -12.3370   33.7530    0.1560 C.3    32  LYS32       0.0298
     92  CG       -12.5890   35.0820    0.8560 C.3    32  LYS32       0.0038
     93  CD       -13.8250   35.7810    0.3080 C.3    32  LYS32       0.0206
     94  CE       -14.0680   37.0940    1.0360 C.3    32  LYS32       0.1093
     95  NZ       -15.3760   37.7160    0.6740 N.3    32  LYS32      -0.1314
     96  N         -9.2070   30.6000    4.5510 N.3    35  SER35      -0.1217
     97  CA        -8.0770   31.4030    5.0340 C.3    35  SER35       0.1889
     98  C         -8.4390   32.7010    5.7690 C.2    35  SER35       0.2288
     99  O         -7.5580   33.3500    6.3370 O.2    35  SER35      -0.2866
    100  CB        -7.1140   31.7090    3.8800 C.3    35  SER35       0.2089
    101  OG        -7.7370   32.5060    2.8900 O.3    35  SER35      -0.2183
    102  N          4.0020   34.9070   -6.8800 N.3    46  THR46      -0.1218
    103  CA         2.5780   34.7710   -6.5730 C.3    46  THR46       0.1862
    104  C          2.0080   36.0920   -6.0590 C.2    46  THR46       0.2287
    105  O          0.9290   36.5230   -6.4870 O.2    46  THR46      -0.2866
    106  CB         2.3170   33.6290   -5.5580 C.3    46  THR46       0.1770
    107  OG1        2.6760   32.3760   -6.1560 O.3    46  THR46      -0.2211
    108  CG2        0.8430   33.5780   -5.1510 C.3    46  THR46       0.0375
    109  N          1.6420   38.5570   -8.8420 N.3    49  SER49      -0.1202
    110  CA         0.5360   38.0870   -9.6820 C.3    49  SER49       0.2020
    111  C         -0.8170   38.5810   -9.1680 C.2    49  SER49       0.2618
    112  O         -1.6540   39.0420   -9.9510 O.2    49  SER49      -0.2717
    113  CB         0.5210   36.5550   -9.7630 C.3    49  SER49       0.2103
    114  OG         1.7180   36.0460  -10.3280 O.3    49  SER49      -0.2182
    115  N         -1.0260   38.4690   -7.8560 N.am   50  ILE50      -0.1979
    116  CA        -2.2560   38.9370   -7.2100 C.3    50  ILE50       0.1595
    117  C         -2.2720   40.4690   -7.1890 C.2    50  ILE50       0.2287
    118  O         -3.3160   41.0870   -7.4090 O.2    50  ILE50      -0.2864
    119  CB        -2.4210   38.3510   -5.7790 C.3    50  ILE50       0.0276
    120  CG1       -2.3990   36.8160   -5.8200 C.3    50  ILE50       0.0022
    121  CG2       -3.7220   38.8490   -5.1290 C.3    50  ILE50       0.0022
    122  CD1       -2.1800   36.1440   -4.4670 C.3    50  ILE50       0.0001
    123  N         -1.8640   42.7660   -4.8550 N.3    52  LYS52      -0.1245
    124  CA        -2.2070   43.4440   -3.6030 C.3    52  LYS52       0.1561
    125  C         -2.4380   42.4000   -2.5090 C.2    52  LYS52       0.2260
    126  O         -2.7840   41.2570   -2.8200 O.2    52  LYS52      -0.2867
    127  CB        -3.4490   44.3360   -3.7900 C.3    52  LYS52       0.0271
    128  CG        -4.6550   43.6500   -4.4480 C.3    52  LYS52       0.0035
    129  CD        -5.7210   43.2870   -3.4290 C.3    52  LYS52       0.0206
    130  CE        -6.7650   42.3400   -4.0050 C.3    52  LYS52       0.1093
    131  NZ        -7.9590   42.2550   -3.1110 N.3    52  LYS52      -0.1314
    132  N         -4.4180   40.3160    0.2160 N.3    54  LEU54      -0.1245
    133  CA        -5.8230   39.9540    0.3390 C.3    54  LEU54       0.1561
    134  C         -6.3360   40.3820    1.7130 C.2    54  LEU54       0.2260
    135  O         -5.7170   40.0600    2.7310 O.2    54  LEU54      -0.2867
    136  CB        -6.0260   38.4500    0.1180 C.3    54  LEU54       0.0270
    137  CG        -5.5590   37.8520   -1.2180 C.3    54  LEU54       0.0019
    138  CD1       -5.7080   36.3430   -1.1980 C.3    54  LEU54       0.0001
    139  CD2       -6.3110   38.4510   -2.4080 C.3    54  LEU54       0.0001
    140  N         -6.9060   38.7070    6.2080 N.3    57  ARG57      -0.1245
    141  CA        -5.9760   37.6370    6.5490 C.3    57  ARG57       0.1563
    142  C         -4.5700   38.2290    6.5700 C.2    57  ARG57       0.2260
    143  O         -4.3220   39.2710    5.9550 O.2    57  ARG57      -0.2867
    144  CB        -6.0860   36.4690    5.5550 C.3    57  ARG57       0.0307
    145  CG        -5.7620   36.8180    4.1060 C.3    57  ARG57       0.0489
    146  CD        -6.7520   36.1920    3.1290 C.3    57  ARG57       0.2205
    147  NE        -8.0760   36.8080    3.2170 N.pl3  57  ARG57      -0.0865
    148  CZ        -9.2240   36.1430    3.3110 C.cat  57  ARG57       0.5346
    149  NH1       -9.2430   34.8140    3.3070 N.pl3  57  ARG57       0.1354
    150  NH2      -10.3670   36.8110    3.3930 N.pl3  57  ARG57       0.1354
    151  N          0.5620   29.2300    0.2800 N.3    92  PHE92      -0.1241
    152  CA        -0.3470   29.7840   -0.7320 C.3    92  PHE92       0.1605
    153  C          0.1930   29.6940   -2.1690 C.2    92  PHE92       0.2264
    154  O         -0.5070   30.0350   -3.1320 O.2    92  PHE92      -0.2867
    155  CB        -0.6410   31.2450   -0.3640 C.3    92  PHE92       0.0534
    156  CG        -1.9560   31.7710   -0.8790 C.ar   92  PHE92      -0.0203
    157  CD1       -3.1410   31.0660   -0.6710 C.ar   92  PHE92      -0.0042
    158  CD2       -2.0120   33.0070   -1.5230 C.ar   92  PHE92      -0.0042
    159  CE1       -4.3560   31.5700   -1.1230 C.ar   92  PHE92      -0.0003
    160  CE2       -3.2240   33.5230   -1.9770 C.ar   92  PHE92      -0.0003
    161  CZ        -4.4020   32.8020   -1.7750 C.ar   92  PHE92      -0.0000
    162  N          5.5710   25.4260   -2.8820 N.3    98  PHE98      -0.1241
    163  CA         4.9880   24.0880   -2.7560 C.3    98  PHE98       0.1605
    164  C          6.0650   23.0020   -2.7090 C.2    98  PHE98       0.2264
    165  O          5.9920   22.0790   -1.8970 O.2    98  PHE98      -0.2867
    166  CB         4.0040   23.8090   -3.8930 C.3    98  PHE98       0.0534
    167  CG         2.7460   24.6450   -3.8400 C.ar   98  PHE98      -0.0203
    168  CD1        2.2150   25.1830   -5.0130 C.ar   98  PHE98      -0.0042
    169  CD2        2.0890   24.8870   -2.6290 C.ar   98  PHE98      -0.0042
    170  CE1        1.0500   25.9500   -4.9890 C.ar   98  PHE98      -0.0003
    171  CE2        0.9210   25.6560   -2.5930 C.ar   98  PHE98      -0.0003
    172  CZ         0.4000   26.1850   -3.7760 C.ar   98  PHE98      -0.0000
    173  N         -5.2510   21.3120    1.4210 N.3   109  TYR109     -0.1241
    174  CA        -6.5730   21.5650    0.8630 C.3   109  TYR109      0.1605
    175  C         -6.3910   21.7800   -0.6290 C.2   109  TYR109      0.2264
    176  O         -5.9000   22.8300   -1.0650 O.2   109  TYR109     -0.2867
    177  CB        -7.2210   22.7940    1.5060 C.3   109  TYR109      0.0534
    178  CG        -7.5390   22.6420    2.9780 C.ar  109  TYR109     -0.0201
    179  CD1       -6.5820   22.9320    3.9520 C.ar  109  TYR109     -0.0009
    180  CD2       -8.8010   22.2180    3.4000 C.ar  109  TYR109     -0.0009
    181  CE1       -6.8660   22.7940    5.3040 C.ar  109  TYR109      0.0417
    182  CE2       -9.0990   22.0780    4.7560 C.ar  109  TYR109      0.0417
    183  CZ        -8.1280   22.3700    5.7020 C.ar  109  TYR109      0.1957
    184  OH        -8.4150   22.2400    7.0430 O.3   109  TYR109     -0.2866
    185  N         -7.8330   21.8390   -4.5670 N.3   111  THR111     -0.1218
    186  CA        -8.8980   21.8890   -5.5480 C.3   111  THR111      0.1862
    187  C         -8.3590   21.1800   -6.7900 C.2   111  THR111      0.2287
    188  O         -7.4850   21.7040   -7.4910 O.2   111  THR111     -0.2866
    189  CB        -9.3160   23.3470   -5.8830 C.3   111  THR111      0.1770
    190  OG1       -9.7490   24.0240   -4.6900 O.3   111  THR111     -0.2211
    191  CG2      -10.4540   23.3600   -6.9040 C.3   111  THR111      0.0375
@<TRIPOS>BOND
     1    49    48    2
     2    29    30    1
     3    42    41    1
     4    42    43    1
     5    41    38    1
     6    48    47    1
     7    36    34   am
     8    37    38    1
     9    37    31   am
    10    40    39    2
    11    30    33    1
    12    30    31    1
    13    38    39    1
    14    33    34    1
    15    39    46   am
    16    43    45   am
    17    43    44    2
    18    34    35    2
    19    31    32    2
    20    47    46    1
    21    47    50    1
    22    50    51    1
    23    21    22    1
    24    23    24    2
    25    23    22    1
    26    22    25    1
    27    51    53    1
    28    51    52    1
    29   114   113    1
    30    26    25    1
    31    26    28    1
    32   112   111    2
    33    25    27    1
    34   113   110    1
    35   110   111    1
    36   110   109    1
    37   111   115   am
    38    19    18    2
    39    18    17    1
    40   115   116    1
    41    68    67    1
    42    20    17    1
    43    69    67    1
    44   188   187    2
    45   118   117    2
    46   116   117    1
    47   116   119    1
    48    17    16    1
    49    58    59    1
    50    58    55    1
    51   191   189    1
    52   102   103    1
    53    67    66    1
    54   187   186    1
    55    54    55    1
    56    61    59   ar
    57   103   104    1
    58   103   106    1
    59   105   104    2
    60    59    60   ar
    61   107   106    1
    62    55    56    1
    63    16    11   am
    64    66    63    1
    65   189   186    1
    66   189   190    1
    67   120   119    1
    68   120   122    1
    69    62    56   am
    70    62    63    1
    71   119   121    1
    72    15    13    1
    73   106   108    1
    74   186   185    1
    75    56    57    2
    76    63    64    1
    77   168   170   ar
    78   168   167   ar
    79   170   172   ar
    80    11    12    2
    81    11    10    1
    82   123   124    1
    83   128   127    1
    84   128   129    1
    85    13    10    1
    86    13    14    1
    87    10     9    1
    88   130   129    1
    89   130   131    1
    90   166   167    1
    91   166   163    1
    92   167   169   ar
    93    64    65    2
    94   127   124    1
    95   172   171   ar
    96   124   125    1
    97   154   153    2
    98   162   163    1
    99   126   125    2
   100   163   164    1
   101   164   165    2
   102   169   171   ar
   103     9     3   am
   104   139   137    1
   105    86    84    1
   106    74    75    1
   107    74    71    1
   108    70    71    1
   109   153   152    1
   110     4     3    2
   111   160   161   ar
   112   160   158   ar
   113   161   159   ar
   114     3     2    1
   115    84    85    1
   116    84    81    1
   117    77    75   ar
   118    77    79   ar
   119    75    76   ar
   120   158   156   ar
   121    71    72    1
   122   137   138    1
   123   137   136    1
   124    80    81    1
   125    80    72   am
   126   159   157   ar
   127   176   175    2
   128   156   157   ar
   129   156   155    1
   130   152   155    1
   131   152   151    1
   132    76    78   ar
   133    79    78   ar
   134   175   174    1
   135    81    82    1
   136    72    73    2
   137     2     5    1
   138     2     1    1
   139     5     6    1
   140    87    82   am
   141    87    88    1
   142   136   133    1
   143    91    92    1
   144    91    88    1
   145   132   133    1
   146    93    92    1
   147    93    94    1
   148   133   134    1
   149    82    83    2
   150    95    94    1
   151   174   173    1
   152   174   177    1
   153    88    89    1
   154     6     7    1
   155     6     8    1
   156   177   178    1
   157   134   135    2
   158    89    90    2
   159   101   100    1
   160   178   180   ar
   161   178   179   ar
   162   146   147    1
   163   146   145    1
   164   147   148    2
   165   149   148    1
   166   148   150    1
   167   180   182   ar
   168   100    97    1
   169   179   181   ar
   170   145   144    1
   171    96    97    1
   172   182   183   ar
   173    97    98    1
   174   181   183   ar
   175   144   141    1
   176   183   184    1
   177    98    99    2
   178   143   142    2
   179   140   141    1
   180   141   142    1
