@<TRIPOS>MOLECULE
tmp/4lemB00.pdb
 143 137 0 0 0
SMALL
GASTEIGER

@<TRIPOS>ATOM
      1  N        -79.3060  -35.1250   46.4150 N.3   185  TYR185     -0.1241
      2  CA       -80.6520  -35.6330   46.3070 C.3   185  TYR185      0.1605
      3  C        -81.4110  -34.6610   45.3920 C.2   185  TYR185      0.2264
      4  O        -81.5770  -33.5160   45.7380 O.2   185  TYR185     -0.2867
      5  CB       -81.2440  -35.6570   47.7420 C.3   185  TYR185      0.0534
      6  CG       -82.6640  -36.0950   47.9140 C.ar  185  TYR185     -0.0201
      7  CD1      -83.3450  -36.7510   46.9120 C.ar  185  TYR185     -0.0009
      8  CD2      -83.3190  -35.9220   49.1520 C.ar  185  TYR185     -0.0009
      9  CE1      -84.6430  -37.1870   47.1000 C.ar  185  TYR185      0.0417
     10  CE2      -84.6270  -36.3670   49.3340 C.ar  185  TYR185      0.0417
     11  CZ       -85.2850  -36.9600   48.2910 C.ar  185  TYR185      0.1957
     12  OH       -86.5800  -37.3950   48.4420 O.3   185  TYR185     -0.2866
     13  N        -84.8720  -33.7370   43.5300 N.3   187  ILE187     -0.1245
     14  CA       -86.3060  -33.9760   43.5620 C.3   187  ILE187      0.1561
     15  C        -86.9140  -33.1020   42.5330 C.2   187  ILE187      0.2260
     16  O        -86.7300  -31.8720   42.5960 O.2   187  ILE187     -0.2867
     17  CB       -86.8820  -33.5270   44.9220 C.3   187  ILE187      0.0252
     18  CG1      -86.1030  -34.2060   46.0450 C.3   187  ILE187      0.0019
     19  CG2      -88.3940  -33.7720   44.9820 C.3   187  ILE187      0.0019
     20  CD1      -86.2570  -33.5210   47.3770 C.3   187  ILE187      0.0001
     21  N        -85.4270  -38.3720   42.4430 N.3   213  LYS213     -0.1245
     22  CA       -86.8060  -38.7820   42.7090 C.3   213  LYS213      0.1561
     23  C        -87.6810  -37.8680   41.8470 C.2   213  LYS213      0.2260
     24  O        -87.8440  -36.6820   42.1550 O.2   213  LYS213     -0.2867
     25  CB       -87.1090  -38.6550   44.1970 C.3   213  LYS213      0.0271
     26  CG       -88.1910  -39.5650   44.7410 C.3   213  LYS213      0.0035
     27  CD       -89.5520  -39.4310   44.0680 C.3   213  LYS213      0.0206
     28  CE       -90.1840  -38.0690   44.3490 C.3   213  LYS213      0.1093
     29  NZ       -91.5170  -37.9320   43.7660 N.3   213  LYS213     -0.1314
     30  N        -93.7420  -41.4690   45.6210 N.3   245  ASP245     -0.1225
     31  CA       -94.1700  -40.2590   46.2740 C.3   245  ASP245      0.1805
     32  C        -93.0360  -39.5780   46.9980 C.2   245  ASP245      0.2598
     33  O        -93.2220  -38.4830   47.5510 O.2   245  ASP245     -0.2718
     34  CB       -95.3220  -40.5120   47.2480 C.3   245  ASP245      0.1424
     35  CG       -94.9840  -41.5630   48.3180 C.2   245  ASP245      0.3668
     36  OD1      -93.8260  -41.6800   48.7910 O.co2 245  ASP245     -0.2456
     37  OD2      -95.9230  -42.2630   48.6650 O.co2 245  ASP245     -0.2456
     38  N        -91.8690  -40.2010   47.0110 N.am  246  GLY246     -0.1942
     39  CA       -90.7050  -39.6220   47.6630 C.3   246  GLY246      0.2014
     40  C        -90.6620  -39.6930   49.1870 C.2   246  GLY246      0.2638
     41  O        -89.6630  -39.2720   49.7860 O.2   246  GLY246     -0.2714
     42  N        -91.6980  -40.2050   49.8540 N.am  247  PHE247     -0.1973
     43  CA       -91.6970  -40.0970   51.3490 C.3   247  PHE247      0.1639
     44  C        -90.6170  -40.9230   51.9980 C.2   247  PHE247      0.2290
     45  O        -89.8600  -40.4680   52.8720 O.2   247  PHE247     -0.2864
     46  CB       -93.0500  -40.4850   51.9480 C.3   247  PHE247      0.0560
     47  CG       -94.2050  -39.7690   51.3680 C.ar  247  PHE247     -0.0200
     48  CD1      -94.0660  -38.5120   50.7800 C.ar  247  PHE247     -0.0042
     49  CD2      -95.4350  -40.3490   51.3850 C.ar  247  PHE247     -0.0042
     50  CE1      -95.1540  -37.8600   50.2310 C.ar  247  PHE247     -0.0003
     51  CE2      -96.5570  -39.7070   50.8160 C.ar  247  PHE247     -0.0003
     52  CZ       -96.4250  -38.4680   50.2420 C.ar  247  PHE247     -0.0000
     53  N        -87.0120  -39.4650   51.1480 N.3   250  SER250     -0.1202
     54  CA       -86.5890  -38.3760   52.0700 C.3   250  SER250      0.2020
     55  C        -86.2830  -38.8950   53.4530 C.2   250  SER250      0.2618
     56  O        -85.3190  -38.4510   54.0300 O.2   250  SER250     -0.2717
     57  CB       -87.5990  -37.2570   52.1700 C.3   250  SER250      0.2103
     58  OG       -87.8040  -36.6410   50.9110 O.3   250  SER250     -0.2182
     59  N        -87.0550  -39.8440   54.0050 N.am  251  ASP251     -0.1973
     60  CA       -86.6670  -40.4200   55.3620 C.3   251  ASP251      0.1709
     61  C        -85.2550  -40.8610   55.3540 C.2   251  ASP251      0.2293
     62  O        -84.4320  -40.4830   56.2190 O.2   251  ASP251     -0.2864
     63  CB       -87.5030  -41.6430   55.7300 C.3   251  ASP251      0.1436
     64  CG       -88.9370  -41.2870   56.1590 C.2   251  ASP251      0.3671
     65  OD1      -89.2140  -40.1020   56.4700 O.co2 251  ASP251     -0.2456
     66  OD2      -89.7890  -42.2070   56.1600 O.co2 251  ASP251     -0.2456
     67  N        -82.4480  -37.8500   54.2110 N.3   254  LEU254     -0.1245
     68  CA       -82.2040  -36.7900   55.1720 C.3   254  LEU254      0.1561
     69  C        -81.6100  -37.2560   56.4890 C.2   254  LEU254      0.2260
     70  O        -81.0380  -36.4700   57.1820 O.2   254  LEU254     -0.2867
     71  CB       -83.4790  -35.9770   55.4370 C.3   254  LEU254      0.0270
     72  CG       -83.5380  -34.8370   54.4330 C.3   254  LEU254      0.0019
     73  CD1      -84.0290  -35.3160   53.0860 C.3   254  LEU254      0.0001
     74  CD2      -84.4330  -33.7520   54.9230 C.3   254  LEU254      0.0001
     75  N        -83.8150  -29.0520   44.1170 N.3   264  PHE264     -0.1227
     76  CA       -85.2440  -29.3040   44.0870 C.3   264  PHE264      0.1736
     77  C        -86.0420  -28.0990   43.6090 C.2   264  PHE264      0.2596
     78  O        -85.5030  -27.0520   43.2690 O.2   264  PHE264     -0.2718
     79  CB       -85.6800  -29.7150   45.5180 C.3   264  PHE264      0.0547
     80  CG       -85.5730  -28.5870   46.5140 C.ar  264  PHE264     -0.0202
     81  CD1      -84.3420  -28.2030   47.0030 C.ar  264  PHE264     -0.0042
     82  CD2      -86.7080  -27.8760   46.9190 C.ar  264  PHE264     -0.0042
     83  CE1      -84.2280  -27.1260   47.8960 C.ar  264  PHE264     -0.0003
     84  CE2      -86.6050  -26.8380   47.8100 C.ar  264  PHE264     -0.0003
     85  CZ       -85.3580  -26.4380   48.2780 C.ar  264  PHE264     -0.0000
     86  N        -87.3520  -28.2410   43.5650 N.am  265  THR265     -0.1939
     87  CA       -88.2000  -27.1120   43.4100 C.3   265  THR265      0.2031
     88  C        -89.2570  -27.1480   44.4910 C.2   265  THR265      0.2682
     89  O        -89.6500  -28.2170   44.9640 O.2   265  THR265     -0.2710
     90  CB       -88.8920  -27.0660   42.0550 C.3   265  THR265      0.1808
     91  OG1      -89.9630  -27.9840   42.0630 O.3   265  THR265     -0.2208
     92  CG2      -87.9020  -27.4080   40.9540 C.3   265  THR265      0.0379
     93  N        -89.6890  -25.9600   44.9030 N.am  266  GLY266     -0.1715
     94  CA       -90.7260  -25.8450   45.9390 C.2   266  GLY266      0.1480
     95  C        -91.0590  -24.4340   46.3990 C.2   266  GLY266      0.2821
     96  O        -90.4420  -23.4540   46.0070 O.2   266  GLY266     -0.2669
     97  N        -92.0730  -24.3660   47.2240 N.am  267  SER267     -0.1915
     98  CA       -92.5560  -23.1630   47.7990 C.3   267  SER267      0.1927
     99  C        -91.5930  -22.6560   48.8650 C.2   267  SER267      0.2314
    100  O        -90.6740  -23.3620   49.3300 O.2   267  SER267     -0.2863
    101  CB       -93.9410  -23.4890   48.4290 C.3   267  SER267      0.2116
    102  OG       -93.7750  -24.2340   49.6260 O.3   267  SER267     -0.2180
    103  N        -92.3890  -22.2650   51.8280 N.3   269  ALA269     -0.1231
    104  CA       -92.6140  -23.0230   53.0630 C.3   269  ALA269      0.1694
    105  C        -91.7700  -24.2950   53.0070 C.2   269  ALA269      0.2592
    106  O        -91.2570  -24.7860   54.0400 O.2   269  ALA269     -0.2718
    107  CB       -94.1180  -23.3880   53.2140 C.3   269  ALA269      0.0304
    108  N        -91.6610  -24.8670   51.8120 N.am  270  THR270     -0.1953
    109  CA       -90.8220  -26.0550   51.6410 C.3   270  THR270      0.1897
    110  C        -89.3620  -25.6440   51.9420 C.2   270  THR270      0.2313
    111  O        -88.6360  -26.3120   52.7060 O.2   270  THR270     -0.2863
    112  CB       -91.0310  -26.7150   50.2660 C.3   270  THR270      0.1794
    113  OG1      -92.3490  -27.2930   50.1790 O.3   270  THR270     -0.2208
    114  CG2      -90.0340  -27.7660   50.0410 C.3   270  THR270      0.0378
    115  N        -89.0040  -25.2770   55.6990 N.3   273  HIS273     -0.1226
    116  CA       -89.0220  -26.6030   56.3230 C.3   273  HIS273      0.1752
    117  C        -87.6410  -27.2870   56.2220 C.2   273  HIS273      0.2595
    118  O        -87.1320  -27.8050   57.2020 O.2   273  HIS273     -0.2718
    119  CB       -90.0770  -27.5010   55.7030 C.3   273  HIS273      0.0759
    120  CG       -90.0380  -28.8950   56.2580 C.ar  273  HIS273      0.0818
    121  ND1      -90.5750  -29.2210   57.4840 N.ar  273  HIS273     -0.2268
    122  CD2      -89.5210  -30.0420   55.7660 C.ar  273  HIS273      0.1154
    123  CE1      -90.3750  -30.5010   57.7360 C.ar  273  HIS273      0.1986
    124  NE2      -89.7430  -31.0200   56.7060 N.ar  273  HIS273     -0.2212
    125  N        -87.0110  -27.2260   55.0400 N.am  274  LEU274     -0.1980
    126  CA       -85.7210  -27.8660   54.8580 C.3   274  LEU274      0.1596
    127  C        -84.6620  -27.1360   55.6180 C.2   274  LEU274      0.2287
    128  O        -83.8120  -27.7750   56.1870 O.2   274  LEU274     -0.2864
    129  CB       -85.3570  -28.0210   53.3790 C.3   274  LEU274      0.0297
    130  CG       -86.2620  -28.9810   52.6120 C.3   274  LEU274      0.0022
    131  CD1      -86.0120  -28.8640   51.1190 C.3   274  LEU274      0.0001
    132  CD2      -86.0400  -30.4040   53.0460 C.3   274  LEU274      0.0001
    133  N       -105.9810  -34.3340   41.7310 N.3   373  ARG373     -0.1245
    134  CA      -105.7610  -33.2850   42.7400 C.3   373  ARG373      0.1563
    135  C       -105.6810  -31.9140   42.1190 C.2   373  ARG373      0.2260
    136  O       -106.2340  -30.9660   42.6640 O.2   373  ARG373     -0.2867
    137  CB      -104.5180  -33.5300   43.6070 C.3   373  ARG373      0.0307
    138  CG      -104.6600  -34.7950   44.4530 C.3   373  ARG373      0.0489
    139  CD      -103.4840  -35.0490   45.4010 C.3   373  ARG373      0.2205
    140  NE      -102.3030  -35.5230   44.6770 N.pl3 373  ARG373     -0.0865
    141  CZ      -101.0330  -35.3290   45.0430 C.cat 373  ARG373      0.5346
    142  NH1     -100.0510  -35.8110   44.2780 N.pl3 373  ARG373      0.1354
    143  NH2     -100.7320  -34.6570   46.1560 N.pl3 373  ARG373      0.1354
@<TRIPOS>BOND
     1    92    90    1
     2   133   134    1
     3    23    24    2
     4    23    22    1
     5    90    91    1
     6    90    87    1
     7   135   136    2
     8   135   134    1
     9    21    22    1
    10    15    16    2
    11    15    14    1
    12    22    25    1
    13   134   137    1
    14    78    77    2
    15    87    86    1
    16    87    88    1
    17    13    14    1
    18    14    17    1
    19    86    77   am
    20   137   138    1
    21    77    76    1
    22    29    28    1
    23    27    28    1
    24    27    26    1
    25    76    75    1
    26    76    79    1
    27    25    26    1
    28   142   141    1
    29   138   139    1
    30    88    93    1
    31    88    89    2
    32   140   141    2
    33   140   139    1
    34    93    94    2
    35    17    19    1
    36    17    18    1
    37   141   143    1
    38     3     4    2
    39     3     2    1
    40    79    80    1
    41    30    31    1
    42    94    95    1
    43    96    95    2
    44    18    20    1
    45    31    32    1
    46    31    34    1
    47     2     1    1
    48     2     5    1
    49    95    97   am
    50    80    82   ar
    51    80    81   ar
    52     7     9   ar
    53     7     6   ar
    54    82    84   ar
    55    32    38   am
    56    32    33    2
    57    81    83   ar
    58    38    39    1
    59     9    11   ar
    60    97    98    1
    61    34    35    1
    62    39    40    1
    63     5     6    1
    64    98   101    1
    65    98    99    1
    66    84    85   ar
    67    83    85   ar
    68     6     8   ar
    69    11    12    1
    70    11    10   ar
    71    35    37   ar
    72    35    36   ar
    73   101   102    1
    74    99   100    2
    75     8    10   ar
    76    40    41    2
    77    40    42   am
    78    42    43    1
    79   114   112    1
    80   113   112    1
    81    50    52   ar
    82    50    48   ar
    83    52    51   ar
    84   112   109    1
    85    48    47   ar
    86    51    49   ar
    87    58    57    1
    88   131   130    1
    89    53    54    1
    90    43    46    1
    91    43    44    1
    92    47    49   ar
    93    47    46    1
    94   109   108    1
    95   109   110    1
    96   108   105   am
    97   103   104    1
    98   110   111    2
    99    44    45    2
   100    54    57    1
   101    54    55    1
   102   130   132    1
   103   130   129    1
   104   105   104    1
   105   105   106    2
   106   104   107    1
   107    73    72    1
   108   129   126    1
   109    55    59   am
   110    55    56    2
   111    59    60    1
   112    67    68    1
   113    72    74    1
   114    72    71    1
   115   126   125    1
   116   126   127    1
   117   125   117   am
   118    68    71    1
   119    68    69    1
   120    61    60    1
   121    61    62    2
   122    60    63    1
   123   127   128    2
   124   115   116    1
   125   119   120    1
   126   119   116    1
   127    63    64    1
   128   122   120   ar
   129   122   124   ar
   130    64    66   ar
   131    64    65   ar
   132   117   116    1
   133   117   118    2
   134   120   121   ar
   135    69    70    2
   136   124   123   ar
   137   121   123   ar
