@<TRIPOS>MOLECULE
tmp/4lenA00.pdb
 81 74 0 0 0
SMALL
GASTEIGER

@<TRIPOS>ATOM
      1  N         -2.5950   58.2080   15.2170 N.3    45  SER45      -0.1217
      2  CA        -2.1910   57.3410   16.3360 C.3    45  SER45       0.1889
      3  C         -0.7930   57.6100   16.8930 C.2    45  SER45       0.2288
      4  O         -0.4390   57.0510   17.9270 O.2    45  SER45      -0.2866
      5  CB        -2.3210   55.8540   15.9810 C.3    45  SER45       0.2089
      6  OG        -3.6740   55.4260   16.0120 O.3    45  SER45      -0.2183
      7  N        -13.5440   51.9350   16.6980 N.3    79  ASN79      -0.1225
      8  CA       -13.4840   51.5000   15.3000 C.3    79  ASN79       0.1785
      9  C        -12.3750   50.4750   15.0950 C.2    79  ASN79       0.2597
     10  O        -12.3750   49.7530   14.0940 O.2    79  ASN79      -0.2718
     11  CB       -13.3290   52.6330   14.2850 C.3    79  ASN79       0.1169
     12  CG       -12.1200   53.5060   14.5590 C.2    79  ASN79       0.2627
     13  OD1      -11.7070   53.6880   15.7130 O.2    79  ASN79      -0.2716
     14  ND2      -11.5510   54.0650   13.4990 N.am   79  ASN79      -0.0877
     15  N        -11.4300   50.4250   16.0300 N.am   80  TYR80      -0.1976
     16  CA       -10.3100   49.4990   15.9440 C.3    80  TYR80       0.1639
     17  C         -9.7920   49.1510   17.3310 C.2    80  TYR80       0.2290
     18  O         -9.0790   49.9380   17.9650 O.2    80  TYR80      -0.2864
     19  CB        -9.1790   50.0720   15.0870 C.3    80  TYR80       0.0560
     20  CG        -8.1060   49.0520   14.8280 C.ar   80  TYR80      -0.0198
     21  CD1       -8.3950   47.8910   14.1100 C.ar   80  TYR80      -0.0009
     22  CD2       -6.8120   49.2240   15.3220 C.ar   80  TYR80      -0.0009
     23  CE1       -7.4260   46.9300   13.8820 C.ar   80  TYR80       0.0417
     24  CE2       -5.8300   48.2690   15.0890 C.ar   80  TYR80       0.0417
     25  CZ        -6.1490   47.1250   14.3720 C.ar   80  TYR80       0.1957
     26  OH        -5.1990   46.1640   14.1370 O.3    80  TYR80      -0.2866
     27  N         -1.8930   49.6900   18.3440 N.3   105  SER105     -0.1217
     28  CA        -2.6500   50.8920   17.9560 C.3   105  SER105      0.1889
     29  C         -4.1450   50.7750   18.3130 C.2   105  SER105      0.2288
     30  O         -5.0150   51.2640   17.5930 O.2   105  SER105     -0.2866
     31  CB        -2.4240   51.2330   16.4770 C.3   105  SER105      0.2089
     32  OG        -2.4950   52.6420   16.2980 O.3   105  SER105     -0.2183
     33  N         -7.5360   51.6110   19.6900 N.3   107  ASN107     -0.1240
     34  CA        -8.1750   52.9130   19.9110 C.3   107  ASN107      0.1653
     35  C         -8.9810   53.0330   21.1950 C.2   107  ASN107      0.2266
     36  O         -9.0400   54.1090   21.7920 O.2   107  ASN107     -0.2867
     37  CB        -9.0490   53.2880   18.7190 C.3   107  ASN107      0.1155
     38  CG        -8.2400   53.7480   17.5280 C.2   107  ASN107      0.2627
     39  OD1       -7.0440   54.0380   17.6410 O.2   107  ASN107     -0.2716
     40  ND2       -8.8960   53.8320   16.3670 N.am  107  ASN107     -0.0877
     41  N        -10.3840   59.1730   20.2530 N.3   141  GLU141     -0.1245
     42  CA       -10.5620   58.2550   19.1290 C.3   141  GLU141      0.1567
     43  C        -12.0540   57.9770   18.9260 C.2   141  GLU141      0.2260
     44  O        -12.7760   57.7670   19.9010 O.2   141  GLU141     -0.2867
     45  CB        -9.8190   56.9350   19.3850 C.3   141  GLU141      0.0388
     46  CG        -8.3030   57.0430   19.3920 C.3   141  GLU141      0.1160
     47  CD        -7.7170   57.1380   18.0020 C.2   141  GLU141      0.3649
     48  OE1       -6.4750   57.2090   17.8730 O.co2 141  GLU141     -0.2457
     49  OE2       -8.4850   57.1210   17.0230 O.co2 141  GLU141     -0.2457
     50  N         -8.7540   61.4720   14.1000 N.3   145  ASN145     -0.1240
     51  CA        -8.1910   61.0830   12.7990 C.3   145  ASN145      0.1653
     52  C         -8.7960   61.7680   11.5770 C.2   145  ASN145      0.2266
     53  O         -8.4760   61.3870   10.4560 O.2   145  ASN145     -0.2867
     54  CB        -8.2870   59.5670   12.6130 C.3   145  ASN145      0.1155
     55  CG        -7.5830   58.8110   13.7120 C.2   145  ASN145      0.2627
     56  OD1       -6.3540   58.8530   13.8270 O.2   145  ASN145     -0.2716
     57  ND2       -8.3580   58.1150   14.5410 N.am  145  ASN145     -0.0877
     58  N          3.2780   47.1750   14.2480 N.3   191  THR191     -0.1218
     59  CA         2.6790   47.7930   13.0550 C.3   191  THR191      0.1862
     60  C          3.6730   48.5260   12.1580 C.2   191  THR191      0.2287
     61  O          3.2590   49.1590   11.1890 O.2   191  THR191     -0.2866
     62  CB         1.5880   48.8280   13.4420 C.3   191  THR191      0.1770
     63  OG1        2.1950   49.9410   14.1220 O.3   191  THR191     -0.2211
     64  CG2        0.5140   48.2160   14.3350 C.3   191  THR191      0.0375
     65  N          3.3110   54.1160   14.6100 N.3   210  THR210     -0.1203
     66  CA         2.6930   54.5320   13.3590 C.3   210  THR210      0.1994
     67  C          1.4000   55.2970   13.6050 C.2   210  THR210      0.2618
     68  O          0.8610   55.3200   14.7140 O.2   210  THR210     -0.2717
     69  CB         2.3400   53.3080   12.4910 C.3   210  THR210      0.1784
     70  OG1        1.5600   52.4000   13.2750 O.3   210  THR210     -0.2211
     71  CG2        3.5950   52.5900   11.9790 C.3   210  THR210      0.0376
     72  N          0.9050   55.9370   12.5550 N.am  211  GLY211     -0.1942
     73  CA        -0.4220   56.5190   12.5940 C.3   211  GLY211      0.2014
     74  C         -1.0030   56.5340   11.2040 C.2   211  GLY211      0.2639
     75  O         -0.2740   56.6360   10.2140 O.2   211  GLY211     -0.2714
     76  N         -2.3210   56.4130   11.1300 N.am  212  SER212     -0.1949
     77  CA        -3.0240   56.5790    9.8710 C.3   212  SER212      0.1924
     78  C         -4.3750   57.2030   10.1210 C.2   212  SER212      0.2314
     79  O         -4.9830   57.0220   11.1850 O.2   212  SER212     -0.2863
     80  CB        -3.1750   55.2480    9.1380 C.3   212  SER212      0.2116
     81  OG        -3.8900   54.3290    9.9240 O.3   212  SER212     -0.2180
@<TRIPOS>BOND
     1    80    77    1
     2    80    81    1
     3    77    78    1
     4    77    76    1
     5    78    79    2
     6    75    74    2
     7    53    52    2
     8    76    74   am
     9    61    60    2
    10    74    73    1
    11    52    51    1
    12    71    69    1
    13    60    59    1
    14    69    70    1
    15    69    66    1
    16    72    73    1
    17    72    67   am
    18    54    51    1
    19    54    55    1
    20    51    50    1
    21    59    62    1
    22    59    58    1
    23    66    67    1
    24    66    65    1
    25    62    63    1
    26    62    64    1
    27    14    12   am
    28    67    68    2
    29    55    56    2
    30    55    57   am
    31    23    21   ar
    32    23    25   ar
    33    10     9    2
    34    21    20   ar
    35    26    25    1
    36    11    12    1
    37    11     8    1
    38    25    24   ar
    39    12    13    2
    40    20    19    1
    41    20    22   ar
    42    19    16    1
    43    24    22   ar
    44     9     8    1
    45     9    15   am
    46     1     2    1
    47     8     7    1
    48    16    15    1
    49    16    17    1
    50     5     6    1
    51     5     2    1
    52    32    31    1
    53     2     3    1
    54    40    38   am
    55    31    28    1
    56     3     4    2
    57    49    47   ar
    58    17    18    2
    59    38    39    2
    60    38    37    1
    61    30    29    2
    62    48    47   ar
    63    28    29    1
    64    28    27    1
    65    47    46    1
    66    37    34    1
    67    43    42    1
    68    43    44    2
    69    42    45    1
    70    42    41    1
    71    45    46    1
    72    33    34    1
    73    34    35    1
    74    35    36    2
