@<TRIPOS>MOLECULE
tmp/4leoC00.pdb
 95 89 0 0 0
SMALL
GASTEIGER

@<TRIPOS>ATOM
      1  N         25.1000   33.5810  -23.8260 N.3    28  GLU28      -0.1245
      2  CA        23.8110   34.1090  -24.2460 C.3    28  GLU28       0.1567
      3  C         23.0250   33.0270  -24.9910 C.2    28  GLU28       0.2260
      4  O         21.7950   32.9760  -24.9210 O.2    28  GLU28      -0.2867
      5  CB        24.0480   35.3130  -25.1640 C.3    28  GLU28       0.0388
      6  CG        22.9270   36.3300  -25.2430 C.3    28  GLU28       0.1160
      7  CD        23.3280   37.5690  -26.0320 C.2    28  GLU28       0.3649
      8  OE1       24.5420   37.8540  -26.1190 O.co2  28  GLU28      -0.2457
      9  OE2       22.4320   38.2530  -26.5730 O.co2  28  GLU28      -0.2457
     10  N         19.7380   33.8000  -23.5790 N.3    52  ARG52      -0.1231
     11  CA        18.5790   34.1490  -24.3920 C.3    52  ARG52       0.1694
     12  C         17.9700   32.9230  -25.0640 C.2    52  ARG52       0.2591
     13  O         16.7500   32.8180  -25.1950 O.2    52  ARG52      -0.2718
     14  CB        18.9580   35.1770  -25.4610 C.3    52  ARG52       0.0321
     15  CG        17.7620   35.7500  -26.2090 C.3    52  ARG52       0.0489
     16  CD        18.1620   36.3780  -27.5360 C.3    52  ARG52       0.2205
     17  NE        18.4700   35.3730  -28.5500 N.pl3  52  ARG52      -0.0865
     18  CZ        19.7000   35.0320  -28.9200 C.cat  52  ARG52       0.5346
     19  NH1       20.7510   35.6220  -28.3660 N.pl3  52  ARG52       0.1354
     20  NH2       19.8810   34.1050  -29.8510 N.pl3  52  ARG52       0.1354
     21  N         18.8250   31.9990  -25.4880 N.am   53  GLU53      -0.1979
     22  CA        18.3770   30.8410  -26.2510 C.3    53  GLU53       0.1602
     23  C         19.0390   29.5480  -25.7820 C.2    53  GLU53       0.2287
     24  O         20.2260   29.5280  -25.4560 O.2    53  GLU53      -0.2864
     25  CB        18.6450   31.0640  -27.7440 C.3    53  GLU53       0.0415
     26  CG        18.2300   29.9130  -28.6460 C.3    53  GLU53       0.1163
     27  CD        18.4830   30.2040  -30.1140 C.2    53  GLU53       0.3649
     28  OE1       19.1620   29.3900  -30.7750 O.co2  53  GLU53      -0.2457
     29  OE2       17.9990   31.2450  -30.6080 O.co2  53  GLU53      -0.2457
     30  N         15.6870   40.8560  -38.8130 N.3   212  THR212     -0.1218
     31  CA        16.1420   41.1200  -37.4550 C.3   212  THR212      0.1862
     32  C         15.0260   41.0330  -36.4230 C.2   212  THR212      0.2287
     33  O         15.2050   41.4330  -35.2730 O.2   212  THR212     -0.2866
     34  CB        16.7690   42.5210  -37.3810 C.3   212  THR212      0.1770
     35  OG1       15.8880   43.4670  -38.0010 O.3   212  THR212     -0.2211
     36  CG2       18.0900   42.5370  -38.1180 C.3   212  THR212      0.0375
     37  N         13.0710   38.1150  -35.8100 N.3   214  CYS214     -0.1221
     38  CA        12.7310   36.7410  -35.4550 C.3   214  CYS214      0.1808
     39  C         12.9210   36.4800  -33.9640 C.2   214  CYS214      0.2601
     40  O         13.7250   37.1410  -33.3060 O.2   214  CYS214     -0.2717
     41  CB        13.5820   35.7570  -36.2620 C.3   214  CYS214      0.0970
     42  SG        13.4650   35.9640  -38.0520 S.3   214  CYS214     -0.0800
     43  N         12.1680   35.5210  -33.4340 N.am  215  PHE215     -0.1962
     44  CA        12.3750   35.0580  -32.0680 C.3   215  PHE215      0.1771
     45  C         13.5490   34.0900  -32.0620 C.2   215  PHE215      0.2619
     46  O         14.3350   34.0460  -31.1150 O.2   215  PHE215     -0.2715
     47  CB        11.1220   34.3600  -31.5360 C.3   215  PHE215      0.0574
     48  CG         9.9510   35.2800  -31.3290 C.ar  215  PHE215     -0.0200
     49  CD1        8.6560   34.7850  -31.3460 C.ar  215  PHE215     -0.0042
     50  CD2       10.1430   36.6340  -31.1090 C.ar  215  PHE215     -0.0042
     51  CE1        7.5740   35.6250  -31.1560 C.ar  215  PHE215     -0.0003
     52  CE2        9.0660   37.4790  -30.9160 C.ar  215  PHE215     -0.0003
     53  CZ         7.7800   36.9730  -30.9390 C.ar  215  PHE215     -0.0000
     54  N         13.6560   33.3170  -33.1380 N.am  216  ALA216     -0.1963
     55  CA        14.7450   32.3660  -33.3150 C.3   216  ALA216      0.1728
     56  C         15.0370   32.1910  -34.8010 C.2   216  ALA216      0.2616
     57  O         14.1240   32.2180  -35.6270 O.2   216  ALA216     -0.2715
     58  CB        14.3920   31.0310  -32.6800 C.3   216  ALA216      0.0334
     59  N         16.3110   32.0160  -35.1390 N.am  217  CYS217     -0.1968
     60  CA        16.7180   31.8750  -36.5340 C.3   217  CYS217      0.1712
     61  C         16.5000   30.4580  -37.0510 C.2   217  CYS217      0.2296
     62  O         16.7240   29.4830  -36.3350 O.2   217  CYS217     -0.2864
     63  CB        18.1810   32.2840  -36.7120 C.3   217  CYS217      0.0983
     64  SG        18.4940   34.0460  -36.4510 S.3   217  CYS217     -0.0798
     65  N         22.5330   33.0710  -37.3160 N.3   221  ASN221     -0.1240
     66  CA        22.3910   34.4610  -36.8950 C.3   221  ASN221      0.1653
     67  C         23.6730   35.2320  -37.1940 C.2   221  ASN221      0.2266
     68  O         24.7540   34.8530  -36.7430 O.2   221  ASN221     -0.2867
     69  CB        22.0630   34.5410  -35.4000 C.3   221  ASN221      0.1155
     70  CG        21.6870   35.9490  -34.9490 C.2   221  ASN221      0.2627
     71  OD1       21.9000   36.9270  -35.6660 O.2   221  ASN221     -0.2716
     72  ND2       21.1300   36.0540  -33.7480 N.am  221  ASN221     -0.0877
     73  N         25.0690   38.7340  -36.5100 N.3   223  SER223     -0.1202
     74  CA        25.0770   40.0360  -35.8440 C.3   223  SER223      0.2020
     75  C         23.6950   40.6790  -35.7310 C.2   223  SER223      0.2619
     76  O         23.5670   41.9020  -35.7750 O.2   223  SER223     -0.2717
     77  CB        26.0500   40.9920  -36.5400 C.3   223  SER223      0.2103
     78  OG        27.3760   40.4950  -36.4910 O.3   223  SER223     -0.2182
     79  N         22.6640   39.8510  -35.5890 N.am  224  GLY224     -0.1956
     80  CA        21.3120   40.3500  -35.4200 C.3   224  GLY224      0.1869
     81  C         20.3420   39.8980  -36.4950 C.2   224  GLY224      0.2309
     82  O         19.1270   39.9310  -36.2950 O.2   224  GLY224     -0.2863
     83  N         18.8930   36.9710  -39.2140 N.3   226  CYS226     -0.1235
     84  CA        18.7890   35.5480  -39.5100 C.3   226  CYS226      0.1677
     85  C         19.0880   35.2880  -40.9820 C.2   226  CYS226      0.2270
     86  O         18.3340   35.7050  -41.8620 O.2   226  CYS226     -0.2867
     87  CB        17.4000   35.0210  -39.1480 C.3   226  CYS226      0.0956
     88  SG        17.0200   35.0900  -37.3830 S.3   226  CYS226     -0.0801
     89  N         25.2890   30.3630  -35.0170 N.3   256  VAL256     -0.1245
     90  CA        25.7340   31.7510  -34.9700 C.3   256  VAL256      0.1561
     91  C         26.9400   31.9720  -35.8800 C.2   256  VAL256      0.2260
     92  O         27.8630   31.1580  -35.9100 O.2   256  VAL256     -0.2867
     93  CB        26.1110   32.1740  -33.5330 C.3   256  VAL256      0.0252
     94  CG1       26.3440   33.6760  -33.4640 C.3   256  VAL256      0.0019
     95  CG2       25.0280   31.7590  -32.5490 C.3   256  VAL256      0.0019
@<TRIPOS>BOND
     1    86    85    2
     2    85    84    1
     3    84    83    1
     4    84    87    1
     5    87    88    1
     6    30    31    1
     7    36    34    1
     8    42    41    1
     9    35    34    1
    10    31    34    1
    11    31    32    1
    12    88    64    1
    13    65    66    1
    14    67    66    1
    15    67    68    2
    16    61    60    1
    17    61    62    2
    18    66    69    1
    19    63    60    1
    20    63    64    1
    21    77    78    1
    22    77    74    1
    23    60    59    1
    24    73    74    1
    25    81    82    2
    26    81    80    1
    27    32    33    2
    28    41    38    1
    29    92    91    2
    30    91    90    1
    31    74    75    1
    32    37    38    1
    33    76    75    2
    34    75    79   am
    35    71    70    2
    36    57    56    2
    37    79    80    1
    38    38    39    1
    39    69    70    1
    40    59    56   am
    41    89    90    1
    42    90    93    1
    43    70    72   am
    44    56    55    1
    45    39    43   am
    46    39    40    2
    47    93    94    1
    48    93    95    1
    49    43    44    1
    50    55    54    1
    51    55    58    1
    52    54    45   am
    53    44    45    1
    54    44    47    1
    55    45    46    2
    56    47    48    1
    57    49    48   ar
    58    49    51   ar
    59    48    50   ar
    60    51    53   ar
    61    50    52   ar
    62    53    52   ar
    63    28    27   ar
    64    29    27   ar
    65    27    26    1
    66    20    18    1
    67    18    17    2
    68    18    19    1
    69    26    25    1
    70    17    16    1
    71    25    22    1
    72    16    15    1
    73     9     7   ar
    74    22    23    1
    75    22    21    1
    76    15    14    1
    77     8     7   ar
    78     7     6    1
    79    23    24    2
    80    21    12   am
    81    14    11    1
    82     6     5    1
    83    13    12    2
    84     5     2    1
    85    12    11    1
    86     3     4    2
    87     3     2    1
    88    11    10    1
    89     2     1    1
