@<TRIPOS>MOLECULE
tmp/4lepA00.pdb
 118 111 0 0 0
SMALL
GASTEIGER

@<TRIPOS>ATOM
      1  N         29.7560   44.7530  230.1180 N.3    13  GLU13      -0.1245
      2  CA        28.6240   43.8760  230.3920 C.3    13  GLU13       0.1567
      3  C         28.8130   43.1010  231.7200 C.2    13  GLU13       0.2260
      4  O         27.8570   42.9650  232.5160 O.2    13  GLU13      -0.2867
      5  CB        28.4040   42.9120  229.2280 C.3    13  GLU13       0.0388
      6  CG        27.2380   41.9120  229.3950 C.3    13  GLU13       0.1160
      7  CD        25.8100   42.5210  229.2880 C.2    13  GLU13       0.3649
      8  OE1       25.6490   43.6520  228.7610 O.co2  13  GLU13      -0.2457
      9  OE2       24.8330   41.8430  229.6950 O.co2  13  GLU13      -0.2457
     10  N         26.0710   43.5100  234.7790 N.3    17  ARG17      -0.1245
     11  CA        25.3100   42.4070  235.3370 C.3    17  ARG17       0.1563
     12  C         25.7610   42.0890  236.7560 C.2    17  ARG17       0.2260
     13  O         25.0090   41.5040  237.5340 O.2    17  ARG17      -0.2867
     14  CB        25.4380   41.1710  234.4630 C.3    17  ARG17       0.0307
     15  CG        24.9110   41.3370  233.0640 C.3    17  ARG17       0.0489
     16  CD        23.3950   41.2230  232.9850 C.3    17  ARG17       0.2205
     17  NE        22.7490   42.5280  233.0050 N.pl3  17  ARG17      -0.0865
     18  CZ        21.4610   42.7220  232.7470 C.cat  17  ARG17       0.5346
     19  NH1       20.6920   41.6940  232.4010 N.pl3  17  ARG17       0.1354
     20  NH2       20.9540   43.9520  232.7810 N.pl3  17  ARG17       0.1354
     21  N         22.5660   41.6860  238.9890 N.3    21  TYR21      -0.1241
     22  CA        22.2100   40.4700  239.7170 C.3    21  TYR21       0.1605
     23  C         22.5330   40.5930  241.2010 C.2    21  TYR21       0.2264
     24  O         21.8760   39.9600  242.0720 O.2    21  TYR21      -0.2867
     25  CB        22.8180   39.2150  239.0720 C.3    21  TYR21       0.0534
     26  CG        22.1000   38.8310  237.8050 C.ar   21  TYR21      -0.0201
     27  CD1       20.7680   38.4550  237.8430 C.ar   21  TYR21      -0.0009
     28  CD2       22.7380   38.8590  236.5730 C.ar   21  TYR21      -0.0009
     29  CE1       20.0840   38.1110  236.7010 C.ar   21  TYR21       0.0417
     30  CE2       22.0520   38.5130  235.4110 C.ar   21  TYR21       0.0417
     31  CZ        20.7200   38.1370  235.4910 C.ar   21  TYR21       0.1957
     32  OH        19.9980   37.7750  234.3760 O.3    21  TYR21      -0.2866
     33  N         21.2670   47.1560  227.7050 N.3   113  LYS113     -0.1245
     34  CA        21.2190   45.7550  227.2640 C.3   113  LYS113      0.1561
     35  C         21.2010   45.5100  225.7490 C.2   113  LYS113      0.2260
     36  O         22.0400   44.7460  225.2510 O.2   113  LYS113     -0.2867
     37  CB        20.0730   44.9850  227.9530 C.3   113  LYS113      0.0271
     38  CG        20.3040   43.4720  228.0470 C.3   113  LYS113      0.0035
     39  CD        18.9900   42.6780  228.1100 C.3   113  LYS113      0.0206
     40  CE        18.3370   42.7660  229.4980 C.3   113  LYS113      0.1093
     41  NZ        17.0670   41.9900  229.6210 N.3   113  LYS113     -0.1314
     42  N         28.2060   35.4590  226.7590 N.3   139  TYR139     -0.1241
     43  CA        27.2090   34.8790  227.6400 C.3   139  TYR139      0.1605
     44  C         27.9250   34.5080  228.9260 C.2   139  TYR139      0.2264
     45  O         27.4480   34.8020  230.0360 O.2   139  TYR139     -0.2867
     46  CB        26.5420   33.6690  226.9630 C.3   139  TYR139      0.0534
     47  CG        25.6070   32.8270  227.8120 C.ar  139  TYR139     -0.0201
     48  CD1       24.3230   33.2610  228.1180 C.ar  139  TYR139     -0.0009
     49  CD2       25.9910   31.5710  228.2610 C.ar  139  TYR139     -0.0009
     50  CE1       23.4540   32.4710  228.8850 C.ar  139  TYR139      0.0417
     51  CE2       25.1350   30.7720  229.0270 C.ar  139  TYR139      0.0417
     52  CZ        23.8620   31.2210  229.3370 C.ar  139  TYR139      0.1957
     53  OH        23.0050   30.4310  230.0990 O.3   139  TYR139     -0.2866
     54  N         28.6670   37.2210  231.3980 N.3   142  VAL142     -0.1231
     55  CA        27.6160   37.5810  232.3230 C.3   142  VAL142      0.1692
     56  C         27.7670   36.6970  233.5650 C.2   142  VAL142      0.2592
     57  O         27.8470   37.1950  234.7050 O.2   142  VAL142     -0.2718
     58  CB        26.2320   37.4240  231.6540 C.3   142  VAL142      0.0266
     59  CG1       25.1030   37.6440  232.6540 C.3   142  VAL142      0.0020
     60  CG2       26.1220   38.3880  230.4490 C.3   142  VAL142      0.0020
     61  N         27.9080   35.3970  233.3230 N.am  143  ASN143     -0.1974
     62  CA        27.9880   34.4140  234.3910 C.3   143  ASN143      0.1688
     63  C         29.1570   34.5910  235.3330 C.2   143  ASN143      0.2292
     64  O         29.0000   34.3680  236.5340 O.2   143  ASN143     -0.2864
     65  CB        28.0070   33.0150  233.8220 C.3   143  ASN143      0.1181
     66  CG        26.7130   32.6530  233.1860 C.2   143  ASN143      0.2629
     67  OD1       25.7380   32.3710  233.8710 O.2   143  ASN143     -0.2716
     68  ND2       26.6810   32.6710  231.8620 N.am  143  ASN143     -0.0877
     69  N         28.0900   37.9390  237.4140 N.3   146  SER146     -0.1217
     70  CA        26.9670   37.6560  238.3090 C.3   146  SER146      0.1889
     71  C         27.3490   36.6320  239.3730 C.2   146  SER146      0.2288
     72  O         26.5920   36.3910  240.3190 O.2   146  SER146     -0.2866
     73  CB        25.7730   37.1510  237.5240 C.3   146  SER146      0.2089
     74  OG        26.1150   35.9450  236.8620 O.3   146  SER146     -0.2183
     75  N         11.3330   29.5660  235.3850 N.3   273  TYR273     -0.1241
     76  CA        12.6210   30.1880  235.6780 C.3   273  TYR273      0.1605
     77  C         12.5100   31.3060  236.7020 C.2   273  TYR273      0.2264
     78  O         13.4830   31.6560  237.3850 O.2   273  TYR273     -0.2867
     79  CB        13.3190   30.6280  234.3660 C.3   273  TYR273      0.0534
     80  CG        14.7510   31.0920  234.5000 C.ar  273  TYR273     -0.0201
     81  CD1       15.8110   30.2090  234.6240 C.ar  273  TYR273     -0.0009
     82  CD2       15.0320   32.4440  234.4850 C.ar  273  TYR273     -0.0009
     83  CE1       17.1170   30.6740  234.7280 C.ar  273  TYR273      0.0417
     84  CE2       16.3270   32.9150  234.5910 C.ar  273  TYR273      0.0417
     85  CZ        17.3670   32.0230  234.7140 C.ar  273  TYR273      0.1957
     86  OH        18.6560   32.4860  234.8240 O.3   273  TYR273     -0.2866
     87  N         23.2840   29.4720  240.2700 N.3   304  ASN304     -0.1226
     88  CA        22.9040   29.4780  238.8720 C.3   304  ASN304      0.1770
     89  C         24.0640   29.7610  237.9040 C.2   304  ASN304      0.2439
     90  O         24.3630   28.9150  237.0510 O.2   304  ASN304     -0.2733
     91  CB        21.6700   30.3440  238.6160 C.3   304  ASN304      0.1168
     92  CG        21.2150   30.2550  237.1930 C.2   304  ASN304      0.2627
     93  OD1       21.5870   31.0860  236.3670 O.2   304  ASN304     -0.2716
     94  ND2       20.4520   29.2150  236.8780 N.am  304  ASN304     -0.0877
     95  N         24.7410   30.9200  238.0420 N.am  305  PRO305     -0.2729
     96  CA        25.8890   31.2020  237.1590 C.3   305  PRO305      0.1401
     97  C         27.0800   30.2490  237.3570 C.2   305  PRO305      0.2269
     98  O         27.8100   29.9300  236.4160 O.2   305  PRO305     -0.2865
     99  CB        26.2880   32.6450  237.5350 C.3   305  PRO305      0.0296
    100  CG        25.1140   33.2020  238.2640 C.3   305  PRO305      0.0237
    101  CD        24.4910   32.0350  238.9710 C.3   305  PRO305      0.0939
    102  N         26.2850   27.0330  235.5060 N.3   308  ILE308     -0.1245
    103  CA        26.3410   27.2980  234.0730 C.3   308  ILE308      0.1561
    104  C         27.7760   27.3200  233.5750 C.2   308  ILE308      0.2260
    105  O         28.0840   26.7620  232.5160 O.2   308  ILE308     -0.2867
    106  CB        25.6150   28.5880  233.6860 C.3   308  ILE308      0.0252
    107  CG1       24.1010   28.3680  233.7270 C.3   308  ILE308      0.0019
    108  CG2       26.0610   29.0540  232.2930 C.3   308  ILE308      0.0019
    109  CD1       23.2830   29.6570  233.8790 C.3   308  ILE308      0.0001
    110  N         18.1680   25.4980  231.5240 N.3   371  GLU371     -0.1245
    111  CA        18.3020   26.8250  230.9260 C.3   371  GLU371      0.1567
    112  C         19.3390   26.7960  229.8220 C.2   371  GLU371      0.2260
    113  O         19.1910   27.4600  228.7980 O.2   371  GLU371     -0.2867
    114  CB        18.7280   27.8470  231.9840 C.3   371  GLU371      0.0388
    115  CG        18.6380   29.3060  231.5450 C.3   371  GLU371      0.1160
    116  CD        19.8240   30.1470  232.0280 C.2   371  GLU371      0.3649
    117  OE1       20.5940   30.6550  231.1840 O.co2 371  GLU371     -0.2457
    118  OE2       19.9750   30.3150  233.2630 O.co2 371  GLU371     -0.2457
@<TRIPOS>BOND
     1    36    35    2
     2    35    34    1
     3    42    43    1
     4    46    43    1
     5    46    47    1
     6    34    33    1
     7    34    37    1
     8    43    44    1
     9    47    48   ar
    10    47    49   ar
    11    37    38    1
    12    38    39    1
    13    39    40    1
    14    48    50   ar
    15    49    51   ar
    16     8     7   ar
    17   113   112    2
    18    50    52   ar
    19    44    45    2
    20    51    52   ar
    21     5     6    1
    22     5     2    1
    23     7     6    1
    24     7     9   ar
    25    52    53    1
    26    40    41    1
    27   112   111    1
    28     1     2    1
    29     2     3    1
    30    60    58    1
    31   111   110    1
    32   111   114    1
    33   117   116   ar
    34    54    55    1
    35   115   114    1
    36   115   116    1
    37    58    55    1
    38    58    59    1
    39     3     4    2
    40    68    66   am
    41   116   118   ar
    42   108   106    1
    43    55    56    1
    44    19    18    1
    45   105   104    2
    46    18    20    1
    47    18    17    2
    48    16    17    1
    49    16    15    1
    50    15    14    1
    51    66    65    1
    52    66    67    2
    53    61    56   am
    54    61    62    1
    55    56    57    2
    56   104   103    1
    57   106   107    1
    58   106   103    1
    59   107   109    1
    60    65    62    1
    61   103   102    1
    62    79    80    1
    63    79    76    1
    64    32    31    1
    65    62    63    1
    66    14    11    1
    67    82    80   ar
    68    82    84   ar
    69    80    81   ar
    70    84    85   ar
    71    81    83   ar
    72    85    83   ar
    73    85    86    1
    74    10    11    1
    75    63    64    2
    76    11    12    1
    77    75    76    1
    78    30    31   ar
    79    30    28   ar
    80    31    29   ar
    81    76    77    1
    82    93    92    2
    83    98    97    2
    84    28    26   ar
    85    29    27   ar
    86    77    78    2
    87    12    13    2
    88    74    73    1
    89    94    92   am
    90    90    89    2
    91    96    97    1
    92    96    99    1
    93    96    95    1
    94    92    91    1
    95    69    70    1
    96    73    70    1
    97    99   100    1
    98    26    27   ar
    99    26    25    1
   100    89    95   am
   101    89    88    1
   102    95   101    1
   103   100   101    1
   104    70    71    1
   105    91    88    1
   106    88    87    1
   107    21    22    1
   108    25    22    1
   109    71    72    2
   110    22    23    1
   111    23    24    2
