@<TRIPOS>MOLECULE
tmp/4leqA00.pdb
 173 160 0 0 0
SMALL
GASTEIGER

@<TRIPOS>ATOM
      1  N          2.7010    9.9870   81.8850 N.3    36  VAL36      -0.1245
      2  CA         2.0330   10.9620   82.7250 C.3    36  VAL36       0.1561
      3  C          0.5880   11.1670   82.2820 C.2    36  VAL36       0.2260
      4  O          0.3120   11.3220   81.0880 O.2    36  VAL36      -0.2867
      5  CB         2.8020   12.3010   82.6910 C.3    36  VAL36       0.0252
      6  CG1        2.0290   13.4060   83.4100 C.3    36  VAL36       0.0019
      7  CG2        4.2100   12.1190   83.2930 C.3    36  VAL36       0.0019
      8  N         -2.0080   13.6490   83.9940 N.3    38  THR38      -0.1218
      9  CA        -2.4310   14.5840   85.0470 C.3    38  THR38       0.1862
     10  C         -3.9500   14.7490   85.1950 C.2    38  THR38       0.2287
     11  O         -4.4480   14.9240   86.3030 O.2    38  THR38      -0.2866
     12  CB        -1.8230   15.9940   84.8560 C.3    38  THR38       0.1770
     13  OG1       -2.3050   16.5600   83.6310 O.3    38  THR38      -0.2211
     14  CG2       -0.3020   15.9300   84.8320 C.3    38  THR38       0.0375
     15  N          1.4390    7.6850   85.9340 N.3    59  LEU59      -0.1245
     16  CA         1.4920    8.7230   86.9500 C.3    59  LEU59       0.1561
     17  C          0.2810    9.6330   86.8680 C.2    59  LEU59       0.2260
     18  O         -0.0940   10.0830   85.7760 O.2    59  LEU59      -0.2867
     19  CB         2.7730    9.5510   86.7970 C.3    59  LEU59       0.0270
     20  CG         3.0070   10.7110   87.7790 C.3    59  LEU59       0.0019
     21  CD1        4.4940   10.9550   87.9870 C.3    59  LEU59       0.0001
     22  CD2        2.3670   12.0140   87.3000 C.3    59  LEU59       0.0001
     23  N         -1.6020   13.1230   89.2460 N.3    61  ASN61      -0.1240
     24  CA        -1.1440   14.2410   90.0640 C.3    61  ASN61       0.1653
     25  C         -2.2320   14.7630   90.9890 C.2    61  ASN61       0.2266
     26  O         -3.3170   15.1280   90.5470 O.2    61  ASN61      -0.2867
     27  CB        -0.5970   15.3640   89.1770 C.3    61  ASN61       0.1155
     28  CG         0.2620   16.3750   89.9570 C.2    61  ASN61       0.2627
     29  OD1       -0.0470   16.7510   91.0900 O.2    61  ASN61      -0.2716
     30  ND2        1.3450   16.8130   89.3440 N.am   61  ASN61      -0.0877
     31  N         -3.6610   18.4800   90.0850 N.3    64  HIS64      -0.1241
     32  CA        -4.6000   18.6380   88.9910 C.3    64  HIS64       0.1621
     33  C         -5.9430   17.9980   89.3040 C.2    64  HIS64       0.2264
     34  O         -6.9920   18.5800   89.0260 O.2    64  HIS64      -0.2867
     35  CB        -3.9900   18.0720   87.7160 C.3    64  HIS64       0.0745
     36  CG        -2.6850   18.7140   87.3650 C.ar   64  HIS64       0.0817
     37  ND1       -1.5030   18.3760   87.9890 N.ar   64  HIS64      -0.2268
     38  CD2       -2.3820   19.7050   86.4950 C.ar   64  HIS64       0.1154
     39  CE1       -0.5230   19.1140   87.4980 C.ar   64  HIS64       0.1986
     40  NE2       -1.0310   19.9300   86.5920 N.ar   64  HIS64      -0.2212
     41  N          1.8990   12.0430   92.0790 N.3    93  ASP93      -0.1225
     42  CA         2.7170   13.0990   92.6410 C.3    93  ASP93       0.1805
     43  C          1.8790   13.8840   93.6500 C.2    93  ASP93       0.2598
     44  O          0.6460   13.8650   93.6010 O.2    93  ASP93      -0.2718
     45  CB         3.2760   14.0120   91.5560 C.3    93  ASP93       0.1424
     46  CG         4.4690   14.8130   92.0400 C.2    93  ASP93       0.3668
     47  OD1        4.9370   14.5670   93.1790 O.co2  93  ASP93      -0.2456
     48  OD2        4.9430   15.6810   91.2810 O.co2  93  ASP93      -0.2456
     49  N          2.5590   14.5780   94.5570 N.am   94  SER94      -0.1952
     50  CA         1.9290   15.1490   95.7440 C.3    94  SER94       0.1924
     51  C          1.4320   16.5840   95.5890 C.2    94  SER94       0.2314
     52  O          0.6980   17.0730   96.4510 O.2    94  SER94      -0.2863
     53  CB         2.9410   15.1240   96.8780 C.3    94  SER94       0.2116
     54  OG         4.0810   15.8770   96.5050 O.3    94  SER94      -0.2180
     55  N          5.6900   19.9200   93.2320 N.3    97  TYR97      -0.1227
     56  CA         6.2610   20.6340   92.0910 C.3    97  TYR97       0.1736
     57  C          5.4630   21.8980   91.8060 C.2    97  TYR97       0.2595
     58  O          6.0360   22.9520   91.5130 O.2    97  TYR97      -0.2718
     59  CB         6.2740   19.7480   90.8500 C.3    97  TYR97       0.0548
     60  CG         6.9470   20.3660   89.6420 C.ar   97  TYR97      -0.0200
     61  CD1        8.3140   20.2160   89.4270 C.ar   97  TYR97      -0.0009
     62  CD2        6.2150   21.0840   88.7020 C.ar   97  TYR97      -0.0009
     63  CE1        8.9350   20.7700   88.3120 C.ar   97  TYR97       0.0417
     64  CE2        6.8300   21.6470   87.5860 C.ar   97  TYR97       0.0417
     65  CZ         8.1900   21.4800   87.3950 C.ar   97  TYR97       0.1957
     66  OH         8.8060   22.0350   86.2910 O.3    97  TYR97      -0.2866
     67  N          4.1400   21.7900   91.8830 N.am   98  GLN98      -0.1979
     68  CA         3.2720   22.9430   91.6520 C.3    98  GLN98       0.1601
     69  C          3.4430   24.0360   92.7140 C.2    98  GLN98       0.2287
     70  O          3.2040   25.2150   92.4370 O.2    98  GLN98      -0.2864
     71  CB         1.8090   22.5060   91.5170 C.3    98  GLN98       0.0394
     72  CG         1.4760   21.8410   90.1720 C.3    98  GLN98       0.0908
     73  CD         2.1280   20.4730   89.9810 C.2    98  GLN98       0.2608
     74  OE1        2.1140   19.6260   90.8810 O.2    98  GLN98      -0.2717
     75  NE2        2.7030   20.2500   88.7940 N.am   98  GLN98      -0.0878
     76  N          6.2340   25.7240   90.6980 N.3   101  SER101     -0.1217
     77  CA         5.8810   26.2010   89.3580 C.3   101  SER101      0.1889
     78  C          4.7350   27.2080   89.3320 C.2   101  SER101      0.2288
     79  O          4.6830   28.0710   88.4590 O.2   101  SER101     -0.2866
     80  CB         5.5720   25.0250   88.4270 C.3   101  SER101      0.2089
     81  OG         4.4030   24.3480   88.8420 O.3   101  SER101     -0.2183
     82  N          6.2270   17.7220   99.2710 N.3   146  ASP146     -0.1239
     83  CA         7.5080   18.4120   99.3480 C.3   146  ASP146      0.1674
     84  C          7.3930   19.7890   98.7170 C.2   146  ASP146      0.2266
     85  O          6.3130   20.2230   98.3220 O.2   146  ASP146     -0.2867
     86  CB         8.5850   17.6040   98.5970 C.3   146  ASP146      0.1410
     87  CG         8.3100   17.4900   97.0960 C.2   146  ASP146      0.3668
     88  OD1        7.1270   17.4280   96.6940 O.co2 146  ASP146     -0.2456
     89  OD2        9.2890   17.4350   96.3160 O.co2 146  ASP146     -0.2456
     90  N          9.5210   21.4160   95.4710 N.3   148  CYS148     -0.1235
     91  CA        10.6020   21.3680   94.4950 C.3   148  CYS148      0.1677
     92  C         11.3380   22.6970   94.5240 C.2   148  CYS148      0.2270
     93  O         10.8020   23.7010   94.0870 O.2   148  CYS148     -0.2867
     94  CB        10.0560   21.1300   93.0920 C.3   148  CYS148      0.0956
     95  SG        11.3440   21.0210   91.8370 S.3   148  CYS148     -0.0801
     96  N         10.9310   12.2080   99.1300 N.3   191  ILE191     -0.1245
     97  CA        11.5760   12.9560   98.0550 C.3   191  ILE191      0.1561
     98  C         12.7780   13.7390   98.5670 C.2   191  ILE191      0.2260
     99  O         12.6440   14.6260   99.4170 O.2   191  ILE191     -0.2867
    100  CB        10.6020   13.9300   97.3480 C.3   191  ILE191      0.0252
    101  CG1        9.3420   13.1880   96.8740 C.3   191  ILE191      0.0019
    102  CG2       11.3210   14.6290   96.1880 C.3   191  ILE191      0.0019
    103  CD1        8.2540   14.0950   96.3110 C.3   191  ILE191      0.0001
    104  N         15.6220   16.4730   98.5330 N.3   193  GLN193     -0.1245
    105  CA        15.8570   17.8070   97.9870 C.3   193  GLN193      0.1566
    106  C         17.2930   18.2220   98.3090 C.2   193  GLN193      0.2260
    107  O         18.1300   17.3570   98.5890 O.2   193  GLN193     -0.2867
    108  CB        14.8140   18.8050   98.5090 C.3   193  GLN193      0.0367
    109  CG        13.3760   18.4530   98.0760 C.3   193  GLN193      0.0905
    110  CD        13.1000   18.7090   96.5930 C.2   193  GLN193      0.2608
    111  OE1       13.8260   19.4450   95.9240 O.2   193  GLN193     -0.2717
    112  NE2       12.0330   18.1010   96.0790 N.am  193  GLN193     -0.0878
    113  N         14.2650   14.5060   93.9620 N.3   219  GLY219     -0.1210
    114  CA        13.5090   15.6630   93.5320 C.3   219  GLY219      0.1956
    115  C         14.4250   16.8270   93.2090 C.2   219  GLY219      0.2612
    116  O         15.6510   16.7250   93.3640 O.2   219  GLY219     -0.2717
    117  N         13.8360   17.9340   92.7620 N.am  220  GLY220     -0.1942
    118  CA        14.5830   19.1680   92.5660 C.3   220  GLY220      0.2014
    119  C         15.5030   19.2160   91.3560 C.2   220  GLY220      0.2639
    120  O         16.3180   20.1360   91.2390 O.2   220  GLY220     -0.2714
    121  N         15.3910   18.2350   90.4600 N.am  221  LEU221     -0.1963
    122  CA        16.1800   18.2370   89.2270 C.3   221  LEU221      0.1728
    123  C         15.2470   18.3150   88.0160 C.2   221  LEU221      0.2616
    124  O         14.0260   18.3910   88.1810 O.2   221  LEU221     -0.2715
    125  CB        17.0990   17.0130   89.1600 C.3   221  LEU221      0.0311
    126  CG        18.1950   16.9880   90.2350 C.3   221  LEU221      0.0022
    127  CD1       19.0150   15.7110   90.1450 C.3   221  LEU221      0.0001
    128  CD2       19.1160   18.1950   90.1080 C.3   221  LEU221      0.0001
    129  N         15.8100   18.3120   86.8080 N.am  222  ALA222     -0.1963
    130  CA        15.0210   18.5650   85.5990 C.3   222  ALA222      0.1728
    131  C         14.2240   19.8660   85.7420 C.2   222  ALA222      0.2616
    132  O         13.0220   19.9270   85.4430 O.2   222  ALA222     -0.2715
    133  CB        14.1010   17.3700   85.2740 C.3   222  ALA222      0.0334
    134  N         14.9120   20.9030   86.2150 N.am  223  VAL223     -0.1977
    135  CA        14.3140   22.2240   86.3940 C.3   223  VAL223      0.1596
    136  C         15.1820   23.3040   85.7440 C.2   223  VAL223      0.2287
    137  O         15.2180   24.4530   86.2000 O.2   223  VAL223     -0.2864
    138  CB        14.0880   22.5420   87.8870 C.3   223  VAL223      0.0276
    139  CG1       12.9000   21.7390   88.4250 C.3   223  VAL223      0.0022
    140  CG2       15.3470   22.2470   88.6910 C.3   223  VAL223      0.0022
    141  N         12.4700   12.2640   89.3920 N.3   250  MET250     -0.1230
    142  CA        11.2320   12.9260   88.9800 C.3   250  MET250      0.1702
    143  C         11.4750   13.8610   87.8020 C.2   250  MET250      0.2592
    144  O         12.3910   14.6810   87.8170 O.2   250  MET250     -0.2718
    145  CB        10.6180   13.6950   90.1580 C.3   250  MET250      0.0401
    146  CG        10.5410   12.8510   91.4300 C.3   250  MET250      0.0596
    147  SD         9.5100   13.5940   92.7070 S.3   250  MET250     -0.1393
    148  CE         7.8770   13.2880   92.0160 C.3   250  MET250      0.0692
    149  N         10.6620   13.7080   86.7640 N.am  251  GLY251     -0.1957
    150  CA        10.6700   14.6280   85.6360 C.3   251  GLY251      0.1869
    151  C         11.6230   14.3200   84.4980 C.2   251  GLY251      0.2309
    152  O         11.6830   15.0780   83.5290 O.2   251  GLY251     -0.2863
    153  N          9.4790    9.6030   85.2410 N.3   270  ASP270     -0.1225
    154  CA         8.2620   10.1270   84.6110 C.3   270  ASP270      0.1805
    155  C          8.6420   11.3640   83.8270 C.2   270  ASP270      0.2598
    156  O          9.5650   12.0820   84.2100 O.2   270  ASP270     -0.2718
    157  CB         7.2040   10.5300   85.6450 C.3   270  ASP270      0.1424
    158  CG         7.4890   11.8900   86.2630 C.2   270  ASP270      0.3668
    159  OD1        8.3260   11.9610   87.1970 O.co2 270  ASP270     -0.2456
    160  OD2        6.9080   12.8990   85.7940 O.co2 270  ASP270     -0.2456
    161  N          7.9280   11.6200   82.7360 N.am  271  CYS271     -0.1956
    162  CA         8.1370   12.8350   81.9590 C.3   271  CYS271      0.1843
    163  C          6.9810   13.0380   80.9830 C.2   271  CYS271      0.2625
    164  O          6.5130   12.0530   80.4000 O.2   271  CYS271     -0.2714
    165  CB         9.4420   12.7050   81.1700 C.3   271  CYS271      0.0997
    166  SG        10.0870   14.2290   80.5010 S.3   271  CYS271     -0.0797
    167  N          6.5790   14.2820   80.7440 N.am  272  VAL272     -0.1977
    168  CA         5.5650   14.5450   79.7300 C.3   272  VAL272      0.1596
    169  C          6.1420   14.6150   78.3150 C.2   272  VAL272      0.2287
    170  O          5.3910   14.7280   77.3610 O.2   272  VAL272     -0.2864
    171  CB         4.7650   15.8470   80.0060 C.3   272  VAL272      0.0276
    172  CG1        4.0540   15.7670   81.3520 C.3   272  VAL272      0.0022
    173  CG2        5.6560   17.0920   79.8930 C.3   272  VAL272      0.0022
@<TRIPOS>BOND
     1   170   169    2
     2   169   168    1
     3   168   171    1
     4   168   167    1
     5   173   171    1
     6   171   172    1
     7   164   163    2
     8   166   165    1
     9   167   163   am
    10   163   162    1
    11     4     3    2
    12   165   162    1
    13     1     2    1
    14   162   161    1
    15     3     2    1
    16     5     2    1
    17     5     7    1
    18     5     6    1
    19   161   155   am
    20   152   151    2
    21    13    12    1
    22   155   156    2
    23   155   154    1
    24     8     9    1
    25   151   150    1
    26   154   153    1
    27   154   157    1
    28    14    12    1
    29    12     9    1
    30     9    10    1
    31    10    11    2
    32   133   130    1
    33   132   131    2
    34   130   131    1
    35   130   129    1
    36   150   149    1
    37   157   158    1
    38   131   134   am
    39   136   137    2
    40   136   135    1
    41    18    17    2
    42   160   158   ar
    43    15    16    1
    44   134   135    1
    45   158   159   ar
    46    66    65    1
    47   135   138    1
    48    38    40   ar
    49    38    36   ar
    50    40    39   ar
    51   149   143   am
    52    19    16    1
    53    19    20    1
    54   129   123   am
    55    17    16    1
    56    22    20    1
    57    36    35    1
    58    36    37   ar
    59    65    64   ar
    60    65    63   ar
    61    39    37   ar
    62    64    62   ar
    63    35    32    1
    64    20    21    1
    65   143   144    2
    66   143   142    1
    67   138   139    1
    68   138   140    1
    69   123   124    2
    70   123   122    1
    71    63    61   ar
    72    80    81    1
    73    80    77    1
    74    79    78    2
    75    62    60   ar
    76    75    73   am
    77   142   141    1
    78   142   145    1
    79    32    33    1
    80    32    31    1
    81    34    33    2
    82   125   122    1
    83   125   126    1
    84    27    28    1
    85    27    24    1
    86   122   121    1
    87    23    24    1
    88    78    77    1
    89    30    28   am
    90    77    76    1
    91    61    60   ar
    92    60    59    1
    93    28    29    2
    94    73    72    1
    95    73    74    2
    96    24    25    1
    97   128   126    1
    98   127   126    1
    99   145   146    1
   100    72    71    1
   101   121   119   am
   102    26    25    2
   103    59    56    1
   104   120   119    2
   105    48    46   ar
   106   119   118    1
   107   146   147    1
   108    58    57    2
   109    71    68    1
   110    45    46    1
   111    45    42    1
   112    68    67    1
   113    68    69    1
   114    57    67   am
   115    57    56    1
   116    95    94    1
   117   148   147    1
   118    46    47   ar
   119    41    42    1
   120    56    55    1
   121    70    69    2
   122   118   117    1
   123    42    43    1
   124   117   115   am
   125    94    91    1
   126   115   116    2
   127   115   114    1
   128   114   113    1
   129    44    43    2
   130    43    49   am
   131    93    92    2
   132    91    92    1
   133    91    90    1
   134    49    50    1
   135    51    50    1
   136    51    52    2
   137    50    53    1
   138   111   110    2
   139   112   110   am
   140   102   100    1
   141   103   101    1
   142    89    87   ar
   143    54    53    1
   144   110   109    1
   145    88    87   ar
   146   101   100    1
   147    87    86    1
   148   100    97    1
   149   105   106    1
   150   105   108    1
   151   105   104    1
   152    97    98    1
   153    97    96    1
   154   109   108    1
   155   106   107    2
   156    85    84    2
   157    98    99    2
   158    86    83    1
   159    84    83    1
   160    82    83    1
