@<TRIPOS>MOLECULE
tmp/4lesA00.pdb
 93 87 0 0 0
SMALL
GASTEIGER

@<TRIPOS>ATOM
      1  N         33.6000   51.4440   35.7920 N.3     1  SER1       -0.1217
      2  CA        32.7390   51.2440   36.9870 C.3     1  SER1        0.1889
      3  C         32.8580   49.7750   37.4370 C.2     1  SER1        0.2288
      4  O         33.9440   49.1870   37.3800 O.2     1  SER1       -0.2866
      5  CB        31.2880   51.6290   36.6500 C.3     1  SER1        0.2089
      6  OG        30.4570   51.6150   37.7990 O.3     1  SER1       -0.2183
      7  N         31.0490   47.5480   35.9680 N.3     3  ILE3       -0.1231
      8  CA        30.5110   46.8680   34.7890 C.3     3  ILE3        0.1692
      9  C         31.6020   46.0470   34.1180 C.2     3  ILE3        0.2592
     10  O         32.5470   46.5690   33.5430 O.2     3  ILE3       -0.2718
     11  CB        29.8640   47.8580   33.7960 C.3     3  ILE3        0.0266
     12  CG1       28.8100   48.7280   34.5100 C.3     3  ILE3        0.0019
     13  CG2       29.2700   47.1220   32.6050 C.3     3  ILE3        0.0020
     14  CD1       27.8800   47.9730   35.4610 C.3     3  ILE3        0.0001
     15  N         31.4070   44.7430   34.1880 N.am    4  LYS4       -0.1966
     16  CA        32.3480   43.7670   33.7160 C.3     4  LYS4        0.1728
     17  C         32.1550   43.3410   32.2640 C.2     4  LYS4        0.2616
     18  O         33.0360   42.6990   31.6800 O.2     4  LYS4       -0.2715
     19  CB        32.1720   42.5220   34.6000 C.3     4  LYS4        0.0311
     20  CG        30.7660   41.9290   34.4810 C.3     4  LYS4        0.0038
     21  CD        30.4800   40.7310   35.3690 C.3     4  LYS4        0.0206
     22  CE        29.1440   40.1250   34.9430 C.3     4  LYS4        0.1093
     23  NZ        28.5840   39.1090   35.8770 N.3     4  LYS4       -0.1314
     24  N         31.0060   43.6690   31.6830 N.am    5  GLU5       -0.1963
     25  CA        30.6900   43.2000   30.3480 C.3     5  GLU5        0.1733
     26  C         29.6860   44.1450   29.6700 C.2     5  GLU5        0.2616
     27  O         28.7740   44.6800   30.3230 O.2     5  GLU5       -0.2715
     28  CB        30.1510   41.7710   30.5250 C.3     5  GLU5        0.0429
     29  CG        29.6770   41.0310   29.3120 C.3     5  GLU5        0.1163
     30  CD        29.3320   39.5730   29.6190 C.2     5  GLU5        0.3649
     31  OE1       28.5760   38.9600   28.8500 O.co2   5  GLU5       -0.2457
     32  OE2       29.7880   39.0460   30.6420 O.co2   5  GLU5       -0.2457
     33  N         29.8990   44.3980   28.3890 N.am    6  LYS6       -0.1977
     34  CA        29.0080   45.2340   27.6030 C.3     6  LYS6        0.1596
     35  C         28.6860   44.4750   26.3350 C.2     6  LYS6        0.2287
     36  O         29.6020   44.0000   25.6200 O.2     6  LYS6       -0.2864
     37  CB        29.6380   46.5890   27.3000 C.3     6  LYS6        0.0298
     38  CG        28.6790   47.5070   26.5630 C.3     6  LYS6        0.0038
     39  CD        29.1560   48.9460   26.5210 C.3     6  LYS6        0.0206
     40  CE        28.1910   49.7710   25.6860 C.3     6  LYS6        0.1093
     41  NZ        28.7740   51.0840   25.3310 N.3     6  LYS6       -0.1314
     42  N         32.0750   42.8150   24.9440 N.3    28  GLU28      -0.1231
     43  CA        33.2710   43.4520   25.4640 C.3    28  GLU28       0.1699
     44  C         33.3730   43.0110   26.8990 C.2    28  GLU28       0.2592
     45  O         32.4540   43.2630   27.6940 O.2    28  GLU28      -0.2718
     46  CB        33.1160   44.9810   25.3830 C.3    28  GLU28       0.0402
     47  CG        34.2550   45.7720   25.9880 C.3    28  GLU28       0.1161
     48  CD        34.0310   47.2780   25.9170 C.2    28  GLU28       0.3649
     49  OE1       32.9000   47.7260   25.6320 O.co2  28  GLU28      -0.2457
     50  OE2       35.0030   48.0190   26.1600 O.co2  28  GLU28      -0.2457
     51  N         34.4600   42.3380   27.2470 N.am   29  ARG29      -0.1966
     52  CA        34.6190   41.8470   28.6200 C.3    29  ARG29       0.1729
     53  C         36.0270   41.8450   29.1790 C.2    29  ARG29       0.2616
     54  O         36.9990   41.9290   28.4550 O.2    29  ARG29      -0.2715
     55  CB        33.9870   40.4570   28.7690 C.3    29  ARG29       0.0348
     56  CG        34.3980   39.4280   27.7450 C.3    29  ARG29       0.0492
     57  CD        33.3660   38.3100   27.6580 C.3    29  ARG29       0.2205
     58  NE        33.5000   37.3450   28.7290 N.pl3  29  ARG29      -0.0865
     59  CZ        32.5360   36.5420   29.1710 C.cat  29  ARG29       0.5346
     60  NH1       32.8020   35.7020   30.1550 N.pl3  29  ARG29       0.1354
     61  NH2       31.3110   36.5840   28.6760 N.pl3  29  ARG29       0.1354
     62  N         36.0850   41.7490   30.5010 N.am   30  ASP30      -0.1971
     63  CA        37.3360   41.7590   31.2920 C.3    30  ASP30       0.1709
     64  C         38.0630   40.4150   31.3930 C.2    30  ASP30       0.2293
     65  O         39.2000   40.3690   31.8280 O.2    30  ASP30      -0.2864
     66  CB        37.0170   42.2160   32.7210 C.3    30  ASP30       0.1436
     67  CG        35.9920   41.2940   33.4270 C.2    30  ASP30       0.3671
     68  OD1       35.1870   40.6070   32.7420 O.co2  30  ASP30      -0.2456
     69  OD2       35.9750   41.2680   34.6740 O.co2  30  ASP30      -0.2456
     70  N         40.7890   45.0150   26.5670 N.3    47  VAL47      -0.1245
     71  CA        39.6150   44.1760   26.8390 C.3    47  VAL47       0.1561
     72  C         39.5470   43.0520   25.8270 C.2    47  VAL47       0.2260
     73  O         40.1850   43.1130   24.7920 O.2    47  VAL47      -0.2867
     74  CB        38.2670   44.9640   26.7550 C.3    47  VAL47       0.0252
     75  CG1       38.1180   45.9140   27.9120 C.3    47  VAL47       0.0019
     76  CG2       38.1440   45.7190   25.4440 C.3    47  VAL47       0.0019
     77  N         41.0090   49.2160   25.2260 N.3   120  LYS120     -0.1245
     78  CA        39.6750   49.6030   25.6720 C.3   120  LYS120      0.1561
     79  C         39.2630   51.0030   25.2250 C.2   120  LYS120      0.2260
     80  O         38.1670   51.1920   24.6770 O.2   120  LYS120     -0.2867
     81  CB        39.5500   49.4740   27.1760 C.3   120  LYS120      0.0271
     82  CG        38.1300   49.6760   27.6460 C.3   120  LYS120      0.0035
     83  CD        37.9730   49.2760   29.0890 C.3   120  LYS120      0.0206
     84  CE        36.5180   49.3440   29.5050 C.3   120  LYS120      0.1093
     85  NZ        36.3220   48.7450   30.8490 N.3   120  LYS120     -0.1314
     86  N         36.1210   51.6780   23.0130 N.3   124  ASP124     -0.1239
     87  CA        35.0380   52.4780   23.6010 C.3   124  ASP124      0.1674
     88  C         34.7660   53.8000   22.8890 C.2   124  ASP124      0.2266
     89  O         33.6270   54.2410   22.8520 O.2   124  ASP124     -0.2867
     90  CB        35.2750   52.7290   25.1110 C.3   124  ASP124      0.1410
     91  CG        35.0570   51.4670   25.9730 C.2   124  ASP124      0.3668
     92  OD1       34.6210   50.4320   25.4330 O.co2 124  ASP124     -0.2456
     93  OD2       35.3090   51.5260   27.2040 O.co2 124  ASP124     -0.2456
@<TRIPOS>BOND
     1    89    88    2
     2    88    87    1
     3    86    87    1
     4    87    90    1
     5    80    79    2
     6    73    72    2
     7    42    43    1
     8    90    91    1
     9    79    78    1
    10    77    78    1
    11    41    40    1
    12    46    43    1
    13    46    47    1
    14    92    91   ar
    15    76    74    1
    16    43    44    1
    17    36    35    2
    18    49    48   ar
    19    78    81    1
    20    40    39    1
    21    72    71    1
    22    48    47    1
    23    48    50   ar
    24    91    93   ar
    25    35    34    1
    26    39    38    1
    27    38    37    1
    28    70    71    1
    29    74    71    1
    30    74    75    1
    31    44    51   am
    32    44    45    2
    33    81    82    1
    34    51    52    1
    35    37    34    1
    36    34    33    1
    37    82    83    1
    38    57    56    1
    39    57    58    1
    40    56    55    1
    41    33    26   am
    42    54    53    2
    43    52    55    1
    44    52    53    1
    45    61    59    1
    46    58    59    2
    47    31    30   ar
    48    83    84    1
    49    59    60    1
    50    53    62   am
    51    29    30    1
    52    29    28    1
    53    84    85    1
    54    30    32   ar
    55    26    27    2
    56    26    25    1
    57    25    28    1
    58    25    24    1
    59    62    63    1
    60    63    64    1
    61    63    66    1
    62    64    65    2
    63    18    17    2
    64    24    17   am
    65    17    16    1
    66    13    11    1
    67    66    67    1
    68    68    67   ar
    69    67    69   ar
    70    10     9    2
    71    16    15    1
    72    16    19    1
    73    11    12    1
    74    11     8    1
    75     9    15   am
    76     9     8    1
    77    20    19    1
    78    20    21    1
    79    12    14    1
    80     8     7    1
    81    22    21    1
    82    22    23    1
    83     1     2    1
    84     5     2    1
    85     5     6    1
    86     2     3    1
    87     4     3    2
