@<TRIPOS>MOLECULE
tmp/4lezB00.pdb
 196 183 0 0 0
SMALL
GASTEIGER

@<TRIPOS>ATOM
      1  N        -27.1180    7.6930   24.4680 N.3    49  THR49      -0.1218
      2  CA       -27.8370    7.1490   23.3240 C.3    49  THR49       0.1862
      3  C        -28.0770    8.2200   22.2560 C.2    49  THR49       0.2287
      4  O        -27.7720    9.3980   22.4500 O.2    49  THR49      -0.2866
      5  CB       -29.1810    6.5540   23.7500 C.3    49  THR49       0.1770
      6  OG1      -30.0090    7.5860   24.3080 O.3    49  THR49      -0.2211
      7  CG2      -28.9780    5.4780   24.7890 C.3    49  THR49       0.0375
      8  N        -27.3850   18.4600   20.3870 N.3    63  GLU63      -0.1245
      9  CA       -28.3580   17.5850   21.0470 C.3    63  GLU63       0.1567
     10  C        -27.6620   16.3500   21.5670 C.2    63  GLU63       0.2260
     11  O        -26.9990   15.6490   20.8080 O.2    63  GLU63      -0.2867
     12  CB       -29.4490   17.1400   20.0870 C.3    63  GLU63       0.0388
     13  CG       -30.4310   18.2250   19.6960 C.3    63  GLU63       0.1160
     14  CD       -31.5680   17.6860   18.8500 C.2    63  GLU63       0.3649
     15  OE1      -32.2680   18.5040   18.2020 O.co2  63  GLU63      -0.2457
     16  OE2      -31.7590   16.4450   18.8440 O.co2  63  GLU63      -0.2457
     17  N        -28.2570   12.8250   24.1280 N.3    65  ASP65      -0.1239
     18  CA       -29.2500   12.0080   24.7930 C.3    65  ASP65       0.1674
     19  C        -28.5420   11.0920   25.7710 C.2    65  ASP65       0.2266
     20  O        -27.5230   10.4630   25.4310 O.2    65  ASP65      -0.2867
     21  CB       -30.0350   11.1800   23.7740 C.3    65  ASP65       0.1410
     22  CG       -31.0200   12.0110   22.9550 C.2    65  ASP65       0.3668
     23  OD1      -31.7590   11.4210   22.1550 O.co2  65  ASP65      -0.2456
     24  OD2      -31.0750   13.2400   23.1100 O.co2  65  ASP65      -0.2456
     25  N        -29.3430    8.1170   28.9300 N.3    67  MET67      -0.1245
     26  CA       -30.1440    7.3440   29.8620 C.3    67  MET67       0.1570
     27  C        -29.4820    7.2530   31.2250 C.2    67  MET67       0.2261
     28  O        -28.2830    6.9940   31.3300 O.2    67  MET67      -0.2867
     29  CB       -30.4410    5.9460   29.3200 C.3    67  MET67       0.0387
     30  CG       -31.7770    5.9010   28.6090 C.3    67  MET67       0.0595
     31  SD       -32.0170    4.5120   27.5060 S.3    67  MET67      -0.1393
     32  CE       -31.9430    3.1810   28.6890 C.3    67  MET67       0.0692
     33  N        -42.6260   18.7590   28.6760 N.3   140  LYS140     -0.1245
     34  CA       -43.5150   18.4210   27.5870 C.3   140  LYS140      0.1561
     35  C        -44.3070   17.2130   28.0270 C.2   140  LYS140      0.2260
     36  O        -43.7270   16.2280   28.4700 O.2   140  LYS140     -0.2867
     37  CB       -42.7160   18.0580   26.3350 C.3   140  LYS140      0.0271
     38  CG       -41.8450   19.1700   25.7690 C.3   140  LYS140      0.0035
     39  CD       -41.0380   18.6550   24.5750 C.3   140  LYS140      0.0206
     40  CE       -40.6530   19.7730   23.6000 C.3   140  LYS140      0.1093
     41  NZ       -39.7180   20.7890   24.1670 N.3   140  LYS140     -0.1314
     42  N        -46.0770   13.7500   27.5060 N.3   142  GLY142     -0.1210
     43  CA       -45.7570   12.6930   26.5680 C.3   142  GLY142      0.1956
     44  C        -44.2690   12.5620   26.3070 C.2   142  GLY142      0.2613
     45  O        -43.8510   11.9720   25.3050 O.2   142  GLY142     -0.2717
     46  N        -43.4630   13.1180   27.2090 N.am  143  SER143     -0.1938
     47  CA       -42.0150   12.9730   27.1090 C.3   143  SER143      0.2040
     48  C        -41.3870   12.3190   28.3330 C.2   143  SER143      0.2485
     49  O        -41.6580   12.7140   29.4710 O.2   143  SER143     -0.2729
     50  CB       -41.3360   14.3070   26.8680 C.3   143  SER143      0.2129
     51  OG       -39.9390   14.1100   26.9390 O.3   143  SER143     -0.2179
     52  N        -40.5250   11.3250   28.0990 N.am  144  PRO144     -0.2715
     53  CA       -39.8630   10.6050   29.1860 C.3   144  PRO144      0.1536
     54  C        -38.6230   11.3510   29.6560 C.2   144  PRO144      0.2598
     55  O        -37.9630   10.9420   30.6050 O.2   144  PRO144     -0.2715
     56  CB       -39.4400    9.3000   28.5090 C.3   144  PRO144      0.0310
     57  CG       -39.1210    9.7270   27.0870 C.3   144  PRO144      0.0237
     58  CD       -40.1130   10.8330   26.7670 C.3   144  PRO144      0.0939
     59  N        -38.3110   12.4430   28.9770 N.am  145  ALA145     -0.1978
     60  CA       -37.0770   13.1660   29.2250 C.3   145  ALA145      0.1597
     61  C        -37.2710   14.3540   30.1560 C.2   145  ALA145      0.2287
     62  O        -38.3120   15.0110   30.1490 O.2   145  ALA145     -0.2864
     63  CB       -36.4940   13.6510   27.9140 C.3   145  ALA145      0.0319
     64  N        -31.1210   15.6280   26.7450 N.3   159  ASP159     -0.1239
     65  CA       -32.2290   14.8630   27.3160 C.3   159  ASP159      0.1674
     66  C        -31.7470   13.8450   28.3290 C.2   159  ASP159      0.2266
     67  O        -31.0910   12.8560   27.9570 O.2   159  ASP159     -0.2867
     68  CB       -33.0040   14.1150   26.2380 C.3   159  ASP159      0.1410
     69  CG       -33.9010   15.0200   25.4180 C.2   159  ASP159      0.3668
     70  OD1      -33.8530   16.2510   25.6050 O.co2 159  ASP159     -0.2456
     71  OD2      -34.6500   14.4880   24.5720 O.co2 159  ASP159     -0.2456
     72  N        -32.9380   10.9080   30.3880 N.3   161  ILE161     -0.1245
     73  CA       -34.0180    9.9490   30.2880 C.3   161  ILE161      0.1561
     74  C        -33.8590    8.8630   31.3510 C.2   161  ILE161      0.2260
     75  O        -32.9410    8.0320   31.2920 O.2   161  ILE161     -0.2867
     76  CB       -34.0000    9.2970   28.9000 C.3   161  ILE161      0.0252
     77  CG1      -34.0100   10.3630   27.8060 C.3   161  ILE161      0.0019
     78  CG2      -35.1570    8.3510   28.7350 C.3   161  ILE161      0.0019
     79  CD1      -33.1240    9.9840   26.6370 C.3   161  ILE161      0.0001
     80  N        -39.3730    3.1120   29.9450 N.3   200  VAL200     -0.1245
     81  CA       -39.1560    4.5410   29.9700 C.3   200  VAL200      0.1561
     82  C        -40.4620    5.2660   30.3250 C.2   200  VAL200      0.2260
     83  O        -41.5430    4.8540   29.8970 O.2   200  VAL200     -0.2867
     84  CB       -38.4990    4.9750   28.6370 C.3   200  VAL200      0.0252
     85  CG1      -39.3980    5.8990   27.8180 C.3   200  VAL200      0.0019
     86  CG2      -37.0830    5.5380   28.8870 C.3   200  VAL200      0.0019
     87  N        -42.6240    7.2470   29.5090 N.3   202  LYS202     -0.1245
     88  CA       -43.4130    7.9610   28.5240 C.3   202  LYS202      0.1561
     89  C        -44.8700    7.6040   28.7450 C.2   202  LYS202      0.2260
     90  O        -45.2210    6.4350   28.8420 O.2   202  LYS202     -0.2867
     91  CB       -42.9690    7.6430   27.0940 C.3   202  LYS202      0.0271
     92  CG       -43.9140    8.2010   26.0260 C.3   202  LYS202      0.0035
     93  CD       -43.1840    8.6920   24.7770 C.3   202  LYS202      0.0206
     94  CE       -44.1810    9.3030   23.7800 C.3   202  LYS202      0.1093
     95  NZ       -43.5780    9.7790   22.4900 N.3   202  LYS202     -0.1314
     96  N        -42.9140    2.9520   28.7730 N.3   216  ARG216     -0.1231
     97  CA       -42.7440    2.4440   27.4210 C.3   216  ARG216      0.1694
     98  C        -41.3890    1.7760   27.2070 C.2   216  ARG216      0.2592
     99  O        -40.3720    2.1970   27.7780 O.2   216  ARG216     -0.2718
    100  CB       -42.9440    3.5380   26.3660 C.3   216  ARG216      0.0321
    101  CG       -43.0730    2.9370   24.9570 C.3   216  ARG216      0.0489
    102  CD       -43.1550    3.9580   23.8760 C.3   216  ARG216      0.2205
    103  NE       -41.9350    4.7410   23.8270 N.pl3 216  ARG216     -0.0865
    104  CZ       -41.8380    5.9050   23.2020 C.cat 216  ARG216      0.5346
    105  NH1      -42.8930    6.4140   22.5700 N.pl3 216  ARG216      0.1354
    106  NH2      -40.6930    6.5530   23.2100 N.pl3 216  ARG216      0.1354
    107  N        -41.3910    0.7260   26.3870 N.am  217  LEU217     -0.1966
    108  CA       -40.1620    0.0130   26.0240 C.3   217  LEU217      0.1728
    109  C        -39.2110    0.9130   25.2640 C.2   217  LEU217      0.2616
    110  O        -39.6320    1.7540   24.4630 O.2   217  LEU217     -0.2715
    111  CB       -40.4710   -1.1980   25.1460 C.3   217  LEU217      0.0311
    112  CG       -41.1560   -2.3830   25.8070 C.3   217  LEU217      0.0022
    113  CD1      -41.7200   -3.2750   24.7370 C.3   217  LEU217      0.0001
    114  CD2      -40.1450   -3.1430   26.6440 C.3   217  LEU217      0.0001
    115  N        -37.9250    0.7140   25.5140 N.am  218  SER218     -0.1950
    116  CA       -36.8780    1.4160   24.7900 C.3   218  SER218      0.1924
    117  C        -35.7230    0.4720   24.4620 C.2   218  SER218      0.2314
    118  O        -35.2870   -0.3180   25.2990 O.2   218  SER218     -0.2863
    119  CB       -36.3610    2.5660   25.6370 C.3   218  SER218      0.2116
    120  OG       -35.1790    3.1060   25.0870 O.3   218  SER218     -0.2180
    121  N        -32.8520    1.7950   22.8380 N.3   220  SER220     -0.1217
    122  CA       -31.8540    2.7690   22.4110 C.3   220  SER220      0.1889
    123  C        -30.4720    2.1470   22.3980 C.2   220  SER220      0.2288
    124  O        -29.6040    2.5270   21.5870 O.2   220  SER220     -0.2866
    125  CB       -31.8410    3.9750   23.3630 C.3   220  SER220      0.2089
    126  OG       -33.1040    4.6060   23.3920 O.3   220  SER220     -0.2183
    127  N        -30.3030   -0.1440   19.3420 N.3   223  GLU223     -0.1245
    128  CA       -30.1670    0.6950   18.1600 C.3   223  GLU223      0.1567
    129  C        -28.7530    1.2660   18.0120 C.2   223  GLU223      0.2260
    130  O        -28.2400    1.3610   16.9030 O.2   223  GLU223     -0.2867
    131  CB       -31.1940    1.8280   18.1800 C.3   223  GLU223      0.0388
    132  CG       -32.6190    1.3460   18.2280 C.3   223  GLU223      0.1160
    133  CD       -33.5970    2.4480   18.6120 C.2   223  GLU223      0.3649
    134  OE1      -33.1880    3.6250   18.7100 O.co2 223  GLU223     -0.2457
    135  OE2      -34.7820    2.1320   18.8050 O.co2 223  GLU223     -0.2457
    136  N        -39.6390   20.0490    8.3050 N.3   261  LYS261     -0.1245
    137  CA       -40.2560   20.3690    9.5920 C.3   261  LYS261      0.1561
    138  C        -40.0520   21.8250   10.0220 C.2   261  LYS261      0.2260
    139  O        -40.9930   22.4470   10.5100 O.2   261  LYS261     -0.2867
    140  CB       -39.7880   19.4120   10.6870 C.3   261  LYS261      0.0271
    141  CG       -40.3710   18.0070   10.5640 C.3   261  LYS261      0.0035
    142  CD       -40.2420   17.2470   11.8740 C.3   261  LYS261      0.0206
    143  CE       -41.1640   17.8430   12.9330 C.3   261  LYS261      0.1093
    144  NZ       -40.8430   17.3220   14.2770 N.3   261  LYS261     -0.1314
    145  N        -41.1770   12.8290   13.0400 N.3   271  CYS271     -0.1221
    146  CA       -39.9510   12.9390   13.8170 C.3   271  CYS271      0.1808
    147  C        -38.8570   12.0430   13.2570 C.2   271  CYS271      0.2602
    148  O        -39.1160   11.1710   12.4340 O.2   271  CYS271     -0.2717
    149  CB       -40.2110   12.5770   15.2830 C.3   271  CYS271      0.0970
    150  SG       -40.7490   10.8580   15.6040 S.3   271  CYS271     -0.0800
    151  N        -37.6360   12.2560   13.7300 N.am  272  SER272     -0.1938
    152  CA       -36.4800   11.5030   13.2790 C.3   272  SER272      0.2055
    153  C        -36.5990   10.0010   13.5800 C.2   272  SER272      0.2643
    154  O        -35.9920    9.1740   12.8860 O.2   272  SER272     -0.2714
    155  CB       -35.2210   12.0490   13.9430 C.3   272  SER272      0.2130
    156  OG       -35.2970   11.8750   15.3500 O.3   272  SER272     -0.2179
    157  N        -37.3540    9.6410   14.6150 N.am  273  TYR273     -0.1959
    158  CA       -37.4600    8.2260   14.9460 C.3   273  TYR273      0.1771
    159  C        -38.1540    7.4710   13.8000 C.2   273  TYR273      0.2619
    160  O        -37.8170    6.3130   13.5180 O.2   273  TYR273     -0.2715
    161  CB       -38.1160    7.9510   16.3160 C.3   273  TYR273      0.0574
    162  CG       -37.8850    6.5120   16.7470 C.ar  273  TYR273     -0.0198
    163  CD1      -36.6010    6.0470   17.0290 C.ar  273  TYR273     -0.0009
    164  CD2      -38.9320    5.5970   16.8120 C.ar  273  TYR273     -0.0009
    165  CE1      -36.3710    4.7300   17.4040 C.ar  273  TYR273      0.0417
    166  CE2      -38.7060    4.2740   17.1820 C.ar  273  TYR273      0.0417
    167  CZ       -37.4240    3.8520   17.4800 C.ar  273  TYR273      0.1957
    168  OH       -37.1950    2.5420   17.8300 O.3   273  TYR273     -0.2866
    169  N        -39.0870    8.1440   13.1160 N.am  274  HIS274     -0.1973
    170  CA       -39.7460    7.5630   11.9440 C.3   274  HIS274      0.1656
    171  C        -38.7360    7.2300   10.8410 C.2   274  HIS274      0.2291
    172  O        -38.7900    6.1580   10.2230 O.2   274  HIS274     -0.2864
    173  CB       -40.8150    8.5080   11.4090 C.3   274  HIS274      0.0771
    174  CG       -41.9320    8.7550   12.3710 C.ar  274  HIS274      0.0820
    175  ND1      -42.5690    9.9730   12.4730 N.ar  274  HIS274     -0.2267
    176  CD2      -42.5220    7.9450   13.2780 C.ar  274  HIS274      0.1154
    177  CE1      -43.5030    9.9040   13.4040 C.ar  274  HIS274      0.1986
    178  NE2      -43.4950    8.6840   13.9080 N.ar  274  HIS274     -0.2212
    179  N        -42.9070   -0.3400   14.1430 N.3   319  HIS319     -0.1241
    180  CA       -41.7810   -0.2690   15.0570 C.3   319  HIS319      0.1621
    181  C        -40.8880   -1.4870   14.8080 C.2   319  HIS319      0.2264
    182  O        -41.3900   -2.6150   14.7330 O.2   319  HIS319     -0.2867
    183  CB       -42.2970   -0.2750   16.4860 C.3   319  HIS319      0.0745
    184  CG       -41.2900    0.1660   17.4990 C.ar  319  HIS319      0.0817
    185  ND1      -40.1660   -0.5690   17.8020 N.ar  319  HIS319     -0.2268
    186  CD2      -41.2540    1.2570   18.2980 C.ar  319  HIS319      0.1154
    187  CE1      -39.4670    0.0600   18.7280 C.ar  319  HIS319      0.1986
    188  NE2      -40.1120    1.1640   19.0580 N.ar  319  HIS319     -0.2212
    189  N        -46.3310    2.8870   13.7940 N.3   327  LEU327     -0.1245
    190  CA       -45.9730    4.2850   14.0420 C.3   327  LEU327      0.1561
    191  C        -46.7720    5.2700   13.1890 C.2   327  LEU327      0.2260
    192  O        -46.8640    6.4460   13.5280 O.2   327  LEU327     -0.2867
    193  CB       -44.4660    4.5070   13.8180 C.3   327  LEU327      0.0270
    194  CG       -43.5100    4.3680   15.0110 C.3   327  LEU327      0.0019
    195  CD1      -44.0890    3.4750   16.0800 C.3   327  LEU327      0.0001
    196  CD2      -42.1470    3.8480   14.5920 C.3   327  LEU327      0.0001
@<TRIPOS>BOND
     1   136   137    1
     2   137   138    1
     3   137   140    1
     4   138   139    2
     5   172   171    2
     6   141   140    1
     7   141   142    1
     8   171   170    1
     9   173   170    1
    10   173   174    1
    11   142   143    1
    12   170   169    1
    13   174   175   ar
    14   174   176   ar
    15   148   147    2
    16   175   177   ar
    17   154   153    2
    18   143   144    1
    19   145   146    1
    20   169   159   am
    21   191   192    2
    22   191   190    1
    23   147   151   am
    24   147   146    1
    25   176   178   ar
    26   152   153    1
    27   152   151    1
    28   152   155    1
    29   177   178   ar
    30   160   159    2
    31   153   157   am
    32   189   190    1
    33   159   158    1
    34   146   149    1
    35   193   190    1
    36   193   194    1
    37   155   156    1
    38   179   180    1
    39   196   194    1
    40   157   158    1
    41   182   181    2
    42   181   180    1
    43   158   161    1
    44   194   195    1
    45   180   183    1
    46   149   150    1
    47   161   162    1
    48   183   184    1
    49   162   164   ar
    50   162   163   ar
    51   164   166   ar
    52   130   129    2
    53   163   165   ar
    54   166   167   ar
    55   165   167   ar
    56   167   168    1
    57   184   185   ar
    58   184   186   ar
    59   185   187   ar
    60   129   128    1
    61   128   131    1
    62   128   127    1
    63   131   132    1
    64    15    14   ar
    65   132   133    1
    66   186   188   ar
    67   133   134   ar
    68   133   135   ar
    69   187   188   ar
    70    16    14   ar
    71    14    13    1
    72    13    12    1
    73    12     9    1
    74     8     9    1
    75    11    10    2
    76     9    10    1
    77   124   123    2
    78    23    22   ar
    79     3     4    2
    80     3     2    1
    81   123   122    1
    82   122   121    1
    83   122   125    1
    84    95    94    1
    85   105   104    1
    86    22    24   ar
    87    22    21    1
    88   104   106    1
    89   104   103    2
    90     2     5    1
    91     2     1    1
    92   125   126    1
    93    40    41    1
    94    40    39    1
    95     5     6    1
    96     5     7    1
    97    21    18    1
    98    94    93    1
    99   103   102    1
   100   102   101    1
   101    17    18    1
   102   117   116    1
   103   117   118    2
   104   110   109    2
   105    71    69   ar
   106    39    38    1
   107   113   112    1
   108    93    92    1
   109   116   115    1
   110   116   119    1
   111    18    19    1
   112   101   100    1
   113   120   119    1
   114   111   112    1
   115   111   108    1
   116   109   115   am
   117   109   108    1
   118    45    44    2
   119    69    70   ar
   120    69    68    1
   121    20    19    2
   122    38    37    1
   123   112   114    1
   124   108   107    1
   125    92    91    1
   126    68    65    1
   127    44    43    1
   128    44    46   am
   129    37    34    1
   130   100    97    1
   131   107    98   am
   132    43    42    1
   133    79    77    1
   134    64    65    1
   135    58    57    1
   136    58    52    1
   137    50    51    1
   138    50    47    1
   139    57    56    1
   140    91    88    1
   141    47    46    1
   142    47    48    1
   143    98    97    1
   144    98    99    2
   145    65    66    1
   146    97    96    1
   147    31    30    1
   148    31    32    1
   149    34    35    1
   150    34    33    1
   151    77    76    1
   152    85    84    1
   153    63    60    1
   154    67    66    2
   155    35    36    2
   156    52    48   am
   157    52    53    1
   158    48    49    2
   159    56    53    1
   160    88    89    1
   161    88    87    1
   162    30    29    1
   163    84    86    1
   164    84    81    1
   165    78    76    1
   166    89    90    2
   167    76    73    1
   168    25    26    1
   169    59    60    1
   170    59    54   am
   171    53    54    1
   172    60    61    1
   173    29    26    1
   174    54    55    2
   175    26    27    1
   176    83    82    2
   177    80    81    1
   178    81    82    1
   179    62    61    2
   180    73    72    1
   181    73    74    1
   182    27    28    2
   183    75    74    2
