@<TRIPOS>MOLECULE
tmp/4lfdE00.pdb
 181 179 0 0 0
SMALL
GASTEIGER

@<TRIPOS>ATOM
      1  N          7.4930   13.1090   42.0480 N.3    64  ASN64      -0.1225
      2  CA         7.9020   13.7580   40.7900 C.3    64  ASN64       0.1785
      3  C          6.8260   13.7110   39.6940 C.2    64  ASN64       0.2597
      4  O          7.1390   13.8180   38.5080 O.2    64  ASN64      -0.2718
      5  CB         9.2190   13.1590   40.2500 C.3    64  ASN64       0.1169
      6  CG        10.4660   13.5010   41.0070 C.2    64  ASN64       0.2627
      7  OD1       10.5110   14.4360   41.7890 O.2    64  ASN64      -0.2716
      8  ND2       11.5240   12.7380   40.7930 N.am   64  ASN64      -0.0877
      9  N          5.5620   13.5740   40.0760 N.am   65  HIS65      -0.1975
     10  CA         4.4750   13.5420   39.0980 C.3    65  HIS65       0.1656
     11  C          3.2420   14.3450   39.5120 C.2    65  HIS65       0.2291
     12  O          2.3580   14.5370   38.6790 O.2    65  HIS65      -0.2864
     13  CB         4.1460   12.1040   38.6660 C.3    65  HIS65       0.0771
     14  CG         3.5990   11.2550   39.7610 C.ar   65  HIS65       0.0820
     15  ND1        4.4090   10.4020   40.4860 N.ar   65  HIS65      -0.2267
     16  CD2        2.3260   11.1410   40.2120 C.ar   65  HIS65       0.1154
     17  CE1        3.6050    9.7730   41.3300 C.ar   65  HIS65       0.1986
     18  NE2        2.3450   10.1980   41.2150 N.ar   65  HIS65      -0.2212
     19  N          3.2600   17.2760   37.2350 N.3    68  LEU68      -0.1245
     20  CA         3.6310   16.8970   35.8670 C.3    68  LEU68       0.1561
     21  C          2.5360   17.4290   34.9330 C.2    68  LEU68       0.2260
     22  O          2.8250   18.0220   33.8900 O.2    68  LEU68      -0.2867
     23  CB         3.7230   15.3430   35.7600 C.3    68  LEU68       0.0270
     24  CG         4.1710   14.7340   34.4120 C.3    68  LEU68       0.0019
     25  CD1        5.6570   14.9440   34.1590 C.3    68  LEU68       0.0001
     26  CD2        3.8930   13.2510   34.3680 C.3    68  LEU68       0.0001
     27  N          8.6520   22.0610   38.2640 N.3    83  PHE83      -0.1241
     28  CA         8.6550   21.4360   39.5780 C.3    83  PHE83       0.1605
     29  C          9.9820   20.8980   40.0280 C.2    83  PHE83       0.2264
     30  O         10.6920   20.2420   39.2570 O.2    83  PHE83      -0.2867
     31  CB         7.5020   20.3780   39.7230 C.3    83  PHE83       0.0534
     32  CG         7.6870   19.1260   38.8910 C.ar   83  PHE83      -0.0203
     33  CD1        7.1960   19.0570   37.5910 C.ar   83  PHE83      -0.0042
     34  CD2        8.3910   18.0320   39.3940 C.ar   83  PHE83      -0.0042
     35  CE1        7.4290   17.9330   36.8000 C.ar   83  PHE83      -0.0003
     36  CE2        8.6480   16.9250   38.5940 C.ar   83  PHE83      -0.0003
     37  CZ         8.1370   16.8670   37.3110 C.ar   83  PHE83      -0.0000
     38  N         11.1230   15.7260   44.5050 N.3    86  PHE86      -0.1227
     39  CA        10.5630   15.5430   45.8580 C.3    86  PHE86       0.1736
     40  C         11.6440   15.3550   46.9470 C.2    86  PHE86       0.2595
     41  O         11.4140   15.6750   48.1180 O.2    86  PHE86      -0.2718
     42  CB         9.5540   14.3760   45.8840 C.3    86  PHE86       0.0547
     43  CG        10.1800   13.0000   45.7860 C.ar   86  PHE86      -0.0202
     44  CD1       10.4580   12.4330   44.5470 C.ar   86  PHE86      -0.0042
     45  CD2       10.5280   12.2920   46.9300 C.ar   86  PHE86      -0.0042
     46  CE1       11.0670   11.1880   44.4540 C.ar   86  PHE86      -0.0003
     47  CE2       11.1380   11.0500   46.8330 C.ar   86  PHE86      -0.0003
     48  CZ        11.4020   10.5060   45.5970 C.ar   86  PHE86      -0.0000
     49  N         12.7970   14.8180   46.5590 N.am   87  ARG87      -0.1980
     50  CA        13.8970   14.5630   47.4770 C.3    87  ARG87       0.1597
     51  C         14.5820   15.8560   47.9680 C.2    87  ARG87       0.2287
     52  O         15.1370   15.8660   49.0760 O.2    87  ARG87      -0.2864
     53  CB        14.9520   13.6910   46.8000 C.3    87  ARG87       0.0334
     54  CG        14.5360   12.2680   46.4630 C.3    87  ARG87       0.0492
     55  CD        15.5980   11.6120   45.5900 C.3    87  ARG87       0.2205
     56  NE        15.5400   12.0930   44.2060 N.pl3  87  ARG87      -0.0865
     57  CZ        16.4960   11.8990   43.3040 C.cat  87  ARG87       0.5346
     58  NH1       17.5920   11.2300   43.6240 N.pl3  87  ARG87       0.1354
     59  NH2       16.3590   12.3680   42.0710 N.pl3  87  ARG87       0.1354
     60  N         12.4470   20.0090   36.9380 N.3   100  TYR100     -0.1241
     61  CA        11.8800   19.4360   35.7190 C.3   100  TYR100      0.1605
     62  C         10.7520   20.3350   35.1970 C.2   100  TYR100      0.2264
     63  O         10.0960   21.0410   35.9680 O.2   100  TYR100     -0.2867
     64  CB        11.3590   18.0190   35.9470 C.3   100  TYR100      0.0534
     65  CG        12.2530   17.1440   36.8000 C.ar  100  TYR100     -0.0201
     66  CD1       13.2240   16.3370   36.2240 C.ar  100  TYR100     -0.0009
     67  CD2       12.1020   17.1020   38.1830 C.ar  100  TYR100     -0.0009
     68  CE1       14.0230   15.5080   37.0040 C.ar  100  TYR100      0.0417
     69  CE2       12.8990   16.2890   38.9730 C.ar  100  TYR100      0.0417
     70  CZ        13.8550   15.4850   38.3820 C.ar  100  TYR100      0.1957
     71  OH        14.6060   14.6560   39.1840 O.3   100  TYR100     -0.2866
     72  N         17.5930    8.5070   29.3830 N.3   149  THR149     -0.1203
     73  CA        17.1180    8.2260   30.7310 C.3   149  THR149      0.1994
     74  C         18.0010    7.1110   31.3360 C.2   149  THR149      0.2618
     75  O         17.8630    6.7880   32.5180 O.2   149  THR149     -0.2717
     76  CB        15.6310    7.9210   30.7230 C.3   149  THR149      0.1784
     77  OG1       15.3710    6.8810   29.7740 O.3   149  THR149     -0.2211
     78  CG2       14.7820    9.1580   30.4280 C.3   149  THR149      0.0376
     79  N         18.9350    6.5550   30.5260 N.am  150  LYS150     -0.1965
     80  CA        19.8640    5.4930   30.9260 C.3   150  LYS150      0.1728
     81  C         21.0530    6.0900   31.6980 C.2   150  LYS150      0.2616
     82  O         21.8600    5.3650   32.2940 O.2   150  LYS150     -0.2715
     83  CB        20.3570    4.7120   29.6920 C.3   150  LYS150      0.0311
     84  CG        19.2620    4.0340   28.8710 C.3   150  LYS150      0.0038
     85  CD        19.8400    3.5960   27.5360 C.3   150  LYS150      0.0206
     86  CE        18.7970    3.1780   26.5340 C.3   150  LYS150      0.1093
     87  NZ        19.2750    3.3640   25.1390 N.3   150  LYS150     -0.1314
     88  N         21.1650    7.4230   31.6580 N.am  151  ASP151     -0.1957
     89  CA        22.1860    8.2140   32.3220 C.3   151  ASP151      0.1840
     90  C         21.5610    8.9340   33.5470 C.2   151  ASP151      0.2622
     91  O         20.5270    9.6000   33.4190 O.2   151  ASP151     -0.2715
     92  CB        22.7910    9.1970   31.3080 C.3   151  ASP151      0.1450
     93  CG        23.4800   10.4170   31.9010 C.2   151  ASP151      0.3671
     94  OD1       24.5820   10.2620   32.4620 O.co2 151  ASP151     -0.2456
     95  OD2       22.9190   11.5180   31.7970 O.co2 151  ASP151     -0.2456
     96  N         22.1920    8.7720   34.7300 N.am  152  ASN152     -0.1958
     97  CA        21.7650    9.3610   36.0070 C.3   152  ASN152      0.1819
     98  C         22.4440   10.7300   36.3000 C.2   152  ASN152      0.2621
     99  O         23.5200   10.8080   36.9080 O.2   152  ASN152     -0.2715
    100  CB        21.9780    8.3500   37.1560 C.3   152  ASN152      0.1195
    101  CG        21.2680    8.6430   38.4620 C.2   152  ASN152      0.2630
    102  OD1       20.7530    9.7280   38.7220 O.2   152  ASN152     -0.2716
    103  ND2       21.2470    7.6610   39.3360 N.am  152  ASN152     -0.0877
    104  N         21.7760   11.8020   35.8650 N.am  153  TYR153     -0.1960
    105  CA        22.1880   13.1830   36.0730 C.3   153  TYR153      0.1771
    106  C         21.3760   13.7720   37.2340 C.2   153  TYR153      0.2619
    107  O         21.6320   14.9020   37.6720 O.2   153  TYR153     -0.2715
    108  CB        21.9930   13.9990   34.7770 C.3   153  TYR153      0.0574
    109  CG        20.6040   13.9130   34.1870 C.ar  153  TYR153     -0.0198
    110  CD1       20.2570   12.8870   33.3100 C.ar  153  TYR153     -0.0009
    111  CD2       19.6360   14.8630   34.4940 C.ar  153  TYR153     -0.0009
    112  CE1       18.9640   12.7870   32.7860 C.ar  153  TYR153      0.0417
    113  CE2       18.3580   14.7950   33.9490 C.ar  153  TYR153      0.0417
    114  CZ        18.0200   13.7510   33.1030 C.ar  153  TYR153      0.1957
    115  OH        16.7460   13.6920   32.5830 O.3   153  TYR153     -0.2866
    116  N         20.4440   12.9300   37.7520 N.am  154  ILE154     -0.1977
    117  CA        19.4140   13.0910   38.7860 C.3   154  ILE154      0.1596
    118  C         19.8980   12.9290   40.2360 C.2   154  ILE154      0.2287
    119  O         19.1180   13.1840   41.1620 O.2   154  ILE154     -0.2864
    120  CB        18.2690   12.0800   38.4000 C.3   154  ILE154      0.0276
    121  CG1       16.9690   12.8060   38.0670 C.3   154  ILE154      0.0022
    122  CG2       18.0360   10.9240   39.3900 C.3   154  ILE154      0.0022
    123  CD1       17.0800   13.8020   36.9610 C.3   154  ILE154      0.0001
    124  N         14.6070   18.3110   31.2260 N.3   194  THR194     -0.1203
    125  CA        13.3090   18.3920   30.5420 C.3   194  THR194      0.1994
    126  C         12.4910   17.2150   31.0260 C.2   194  THR194      0.2618
    127  O         13.0410   16.2000   31.4530 O.2   194  THR194     -0.2717
    128  CB        13.3560   18.4730   28.9890 C.3   194  THR194      0.1784
    129  OG1       13.8450   17.2540   28.3850 O.3   194  THR194     -0.2211
    130  CG2       14.0020   19.7670   28.4600 C.3   194  THR194      0.0376
    131  N         11.1750   17.3870   30.9990 N.am  195  CYS195     -0.1955
    132  CA        10.1650   16.4280   31.4250 C.3   195  CYS195      0.1843
    133  C          9.3130   16.0470   30.2390 C.2   195  CYS195      0.2625
    134  O          8.8760   16.9000   29.4500 O.2   195  CYS195     -0.2714
    135  CB         9.3030   17.0340   32.5310 C.3   195  CYS195      0.0997
    136  SG         9.0220   15.9500   33.9500 S.3   195  CYS195     -0.0797
    137  N          9.0660   14.7550   30.1380 N.am  196  GLU196     -0.1963
    138  CA         8.1700   14.1570   29.1630 C.3   196  GLU196      0.1733
    139  C          6.9950   13.5840   29.9330 C.2   196  GLU196      0.2616
    140  O          7.1240   13.3020   31.1330 O.2   196  GLU196     -0.2715
    141  CB         8.8860   13.0640   28.3460 C.3   196  GLU196      0.0429
    142  CG         9.1270   13.4560   26.8950 C.3   196  GLU196      0.1163
    143  CD         9.7810   14.8080   26.6500 C.2   196  GLU196      0.3649
    144  OE1       10.8760   15.0550   27.2110 O.co2 196  GLU196     -0.2457
    145  OE2        9.2000   15.6190   25.8910 O.co2 196  GLU196     -0.2457
    146  N          5.8490   13.4210   29.2550 N.am  197  ASP197     -0.1957
    147  CA         4.6700   12.8270   29.8830 C.3   197  ASP197      0.1840
    148  C          4.9460   11.3750   30.2800 C.2   197  ASP197      0.2622
    149  O          5.8900   10.7540   29.7700 O.2   197  ASP197     -0.2715
    150  CB         3.4230   12.9350   28.9840 C.3   197  ASP197      0.1450
    151  CG         2.7820   14.3140   28.9290 C.2   197  ASP197      0.3671
    152  OD1        3.0830   15.1570   29.8220 O.co2 197  ASP197     -0.2456
    153  OD2        1.9390   14.5340   28.0360 O.co2 197  ASP197     -0.2456
    154  N          4.1670   10.8690   31.2450 N.am  198  ALA198     -0.1963
    155  CA         4.3030    9.5120   31.7490 C.3   198  ALA198      0.1728
    156  C          4.1820    8.5140   30.6110 C.2   198  ALA198      0.2616
    157  O          3.3310    8.6910   29.7220 O.2   198  ALA198     -0.2715
    158  CB         3.2380    9.2420   32.7980 C.3   198  ALA198      0.0334
    159  N          5.0870    7.5000   30.6170 N.am  199  TYR199     -0.1974
    160  CA         5.1260    6.3900   29.6570 C.3   199  TYR199      0.1639
    161  C          5.3280    6.8340   28.1980 C.2   199  TYR199      0.2290
    162  O          4.8540    6.1500   27.2870 O.2   199  TYR199     -0.2864
    163  CB         3.8600    5.4830   29.8030 C.3   199  TYR199      0.0560
    164  CG         3.6400    4.9890   31.2130 C.ar  199  TYR199     -0.0198
    165  CD1        4.3180    3.8720   31.6970 C.ar  199  TYR199     -0.0009
    166  CD2        2.7950    5.6660   32.0840 C.ar  199  TYR199     -0.0009
    167  CE1        4.1810    3.4630   33.0200 C.ar  199  TYR199      0.0417
    168  CE2        2.6500    5.2650   33.4080 C.ar  199  TYR199      0.0417
    169  CZ         3.3330    4.1560   33.8670 C.ar  199  TYR199      0.1957
    170  OH         3.1790    3.7790   35.1730 O.3   199  TYR199     -0.2866
    171  N         16.4500   13.5460   26.9300 N.3   205  ARG205     -0.1245
    172  CA        16.2920   14.6140   27.9160 C.3   205  ARG205      0.1563
    173  C         17.3820   15.6680   27.6940 C.2   205  ARG205      0.2260
    174  O         18.4900   15.3310   27.2760 O.2   205  ARG205     -0.2867
    175  CB        16.3680   14.0700   29.3590 C.3   205  ARG205      0.0307
    176  CG        15.3440   12.9940   29.7150 C.3   205  ARG205      0.0489
    177  CD        13.9190   13.5150   29.7020 C.3   205  ARG205      0.2205
    178  NE        13.0230   12.7940   30.6040 N.pl3 205  ARG205     -0.0865
    179  CZ        12.2850   11.7500   30.2470 C.cat 205  ARG205      0.5346
    180  NH1       12.3750   11.2520   29.0190 N.pl3 205  ARG205      0.1354
    181  NH2       11.4690   11.1770   31.1240 N.pl3 205  ARG205      0.1354
@<TRIPOS>BOND
     1    87    86    1
     2   145   143   ar
     3    86    85    1
     4   143   142    1
     5   143   144   ar
     6   142   141    1
     7   171   172    1
     8   174   173    2
     9   162   161    2
    10    85    84    1
    11   173   172    1
    12   172   175    1
    13   153   151   ar
    14   161   160    1
    15   141   138    1
    16   129   128    1
    17   130   128    1
    18    84    83    1
    19   151   150    1
    20   151   152   ar
    21   150   147    1
    22   128   125    1
    23   180   179    1
    24   138   139    1
    25   138   137    1
    26   146   147    1
    27   146   139   am
    28   175   176    1
    29    72    73    1
    30   134   133    2
    31   160   163    1
    32   160   159    1
    33    83    80    1
    34   177   176    1
    35   177   178    1
    36   157   156    2
    37   149   148    2
    38    77    76    1
    39   163   164    1
    40   147   148    1
    41   139   140    2
    42   137   133   am
    43   133   132    1
    44   179   178    2
    45   179   181    1
    46   148   154   am
    47    78    76    1
    48    79    80    1
    49    79    74   am
    50   125   126    1
    51   125   124    1
    52   156   159   am
    53   156   155    1
    54    76    73    1
    55    73    74    1
    56    80    81    1
    57   131   126   am
    58   131   132    1
    59   126   127    2
    60   164   165   ar
    61   164   166   ar
    62   154   155    1
    63    92    93    1
    64    92    89    1
    65    74    75    2
    66   132   135    1
    67    88    81   am
    68    88    89    1
    69   165   167   ar
    70    81    82    2
    71   155   158    1
    72    95    93   ar
    73    93    94   ar
    74   166   168   ar
    75    89    90    1
    76   135   136    1
    77   115   114    1
    78   112   114   ar
    79   112   110   ar
    80   167   169   ar
    81   114   113   ar
    82   110   109   ar
    83   168   169   ar
    84    91    90    2
    85    90    96   am
    86   169   170    1
    87    22    21    2
    88   113   111   ar
    89    25    24    1
    90   109   111   ar
    91   109   108    1
    92    26    24    1
    93    24    23    1
    94    96    97    1
    95   108   105    1
    96    21    20    1
    97    62    61    1
    98    62    63    2
    99    61    64    1
   100    61    60    1
   101    23    20    1
   102   104   105    1
   103   104    98   am
   104    20    19    1
   105    64    65    1
   106    97    98    1
   107    97   100    1
   108   105   106    1
   109    66    65   ar
   110    66    68   ar
   111    98    99    2
   112    65    67   ar
   113    35    37   ar
   114    35    33   ar
   115   123   121    1
   116    68    70   ar
   117   100   101    1
   118   106   107    2
   119   106   116   am
   120    37    36   ar
   121    33    32   ar
   122   116   117    1
   123   121   120    1
   124    67    69   ar
   125    27    28    1
   126    70    69   ar
   127    70    71    1
   128   120   117    1
   129   120   122    1
   130   101   102    2
   131   101   103   am
   132     4     3    2
   133    36    34   ar
   134    13    10    1
   135    13    14    1
   136    12    11    2
   137   117   118    1
   138    32    34   ar
   139    32    31    1
   140    10    11    1
   141    10     9    1
   142    30    29    2
   143    28    31    1
   144    28    29    1
   145     3     9   am
   146     3     2    1
   147    14    16   ar
   148    14    15   ar
   149    16    18   ar
   150   118   119    2
   151     5     2    1
   152     5     6    1
   153    15    17   ar
   154     2     1    1
   155     8     6   am
   156     6     7    2
   157    18    17   ar
   158    59    57    1
   159    57    58    1
   160    57    56    2
   161    56    55    1
   162    46    44   ar
   163    46    48   ar
   164    38    39    1
   165    44    43   ar
   166    55    54    1
   167    48    47   ar
   168    43    42    1
   169    43    45   ar
   170    39    42    1
   171    39    40    1
   172    54    53    1
   173    49    40   am
   174    49    50    1
   175    53    50    1
   176    47    45   ar
   177    40    41    2
   178    50    51    1
   179    51    52    2
