@<TRIPOS>MOLECULE
tmp/4lfgA01.pdb
 145 138 0 0 0
SMALL
GASTEIGER

@<TRIPOS>ATOM
      1  N         61.4850   56.1610   24.4960 N.3    38  GLY38      -0.1210
      2  CA        61.7480   57.5610   24.7930 C.3    38  GLY38       0.1956
      3  C         62.2510   57.6730   26.2180 C.2    38  GLY38       0.2612
      4  O         61.7970   56.9490   27.1040 O.2    38  GLY38      -0.2717
      5  N         63.2210   58.5610   26.4210 N.am   39  LYS39      -0.1965
      6  CA        63.8110   58.7720   27.7350 C.3    39  LYS39       0.1728
      7  C         62.9300   59.6070   28.6710 C.2    39  LYS39       0.2616
      8  O         63.1740   59.6410   29.8860 O.2    39  LYS39      -0.2715
      9  CB        65.1720   59.4520   27.5810 C.3    39  LYS39       0.0311
     10  CG        66.1860   58.6090   26.8080 C.3    39  LYS39       0.0038
     11  CD        67.5180   59.3320   26.6280 C.3    39  LYS39       0.0206
     12  CE        67.4250   60.5160   25.6690 C.3    39  LYS39       0.1093
     13  NZ        67.0030   60.1320   24.2930 N.3    39  LYS39      -0.1314
     14  N         61.9190   60.2690   28.1150 N.am   40  ARG40      -0.1963
     15  CA        60.9990   61.1250   28.8740 C.3    40  ARG40       0.1729
     16  C         61.7540   62.2160   29.6430 C.2    40  ARG40       0.2616
     17  O         61.3240   62.6280   30.7230 O.2    40  ARG40      -0.2715
     18  CB        60.1370   60.3060   29.8420 C.3    40  ARG40       0.0348
     19  CG        59.3230   59.2120   29.1830 C.3    40  ARG40       0.0492
     20  CD        58.2040   59.7570   28.3220 C.3    40  ARG40       0.2205
     21  NE        57.3900   58.6460   27.8510 N.pl3  40  ARG40      -0.0865
     22  CZ        57.5500   58.0280   26.6850 C.cat  40  ARG40       0.5346
     23  NH1       58.4580   58.4470   25.8110 N.pl3  40  ARG40       0.1354
     24  NH2       56.7800   56.9870   26.3840 N.pl3  40  ARG40       0.1354
     25  N         62.8660   62.7000   29.0880 N.am   41  ILE41      -0.1963
     26  CA        63.6770   63.6980   29.8170 C.3    41  ILE41       0.1727
     27  C         62.8970   64.9890   30.0890 C.2    41  ILE41       0.2616
     28  O         63.0420   65.5930   31.1470 O.2    41  ILE41      -0.2715
     29  CB        65.0160   64.0180   29.1140 C.3    41  ILE41       0.0290
     30  CG1       65.9300   64.8330   30.0290 C.3    41  ILE41       0.0022
     31  CG2       64.8230   64.7760   27.8200 C.3    41  ILE41       0.0023
     32  CD1       67.3590   64.8700   29.5430 C.3    41  ILE41       0.0001
     33  N         62.1010   65.4230   29.1260 N.am   42  ARG42      -0.1977
     34  CA        61.3600   66.6820   29.2650 C.3    42  ARG42       0.1597
     35  C         60.3310   66.6630   30.4080 C.2    42  ARG42       0.2287
     36  O         60.3920   67.5220   31.2860 O.2    42  ARG42      -0.2864
     37  CB        60.7500   67.0780   27.9200 C.3    42  ARG42       0.0334
     38  CG        61.7960   67.5360   26.9170 C.3    42  ARG42       0.0492
     39  CD        61.2840   67.4900   25.4680 C.3    42  ARG42       0.2205
     40  NE        62.3830   67.5840   24.4930 N.pl3  42  ARG42      -0.0865
     41  CZ        63.2080   66.5800   24.1770 C.cat  42  ARG42       0.5346
     42  NH1       63.0760   65.3720   24.7290 N.pl3  42  ARG42       0.1354
     43  NH2       64.1820   66.7800   23.2940 N.pl3  42  ARG42       0.1354
     44  N         55.3540   66.1040   26.9160 N.3    69  GLU69      -0.1245
     45  CA        55.8010   64.9150   26.2200 C.3    69  GLU69       0.1567
     46  C         54.9940   64.6670   24.9410 C.2    69  GLU69       0.2260
     47  O         55.5440   64.2100   23.9420 O.2    69  GLU69      -0.2867
     48  CB        55.7470   63.6900   27.1320 C.3    69  GLU69       0.0388
     49  CG        56.2800   62.4220   26.4990 C.3    69  GLU69       0.1160
     50  CD        57.7570   62.4610   26.1410 C.2    69  GLU69       0.3649
     51  OE1       58.4970   63.3300   26.6300 O.co2  69  GLU69      -0.2457
     52  OE2       58.1900   61.5910   25.3560 O.co2  69  GLU69      -0.2457
     53  N         56.3970   66.9490   22.2560 N.3    72  HIS72      -0.1241
     54  CA        57.6880   66.3690   21.8660 C.3    72  HIS72       0.1621
     55  C         57.4940   65.1450   20.9360 C.2    72  HIS72       0.2264
     56  O         58.1370   65.0300   19.8750 O.2    72  HIS72      -0.2867
     57  CB        58.4720   65.9900   23.1170 C.3    72  HIS72       0.0745
     58  CG        59.6890   65.1670   22.8340 C.ar   72  HIS72       0.0817
     59  ND1       60.7120   65.6140   22.0370 N.ar   72  HIS72      -0.2268
     60  CD2       60.0210   63.9130   23.2090 C.ar   72  HIS72       0.1154
     61  CE1       61.6360   64.6730   21.9410 C.ar   72  HIS72       0.1986
     62  NE2       61.2390   63.6330   22.6550 N.ar   72  HIS72      -0.2212
     63  N         58.5500   64.4560   16.8240 N.3    76  LEU76      -0.1245
     64  CA        59.3630   63.3310   16.3100 C.3    76  LEU76       0.1561
     65  C         58.6780   62.6450   15.1520 C.2    76  LEU76       0.2260
     66  O         59.3250   62.3140   14.1490 O.2    76  LEU76      -0.2867
     67  CB        59.6380   62.3040   17.4070 C.3    76  LEU76       0.0270
     68  CG        60.3530   62.7680   18.6740 C.3    76  LEU76       0.0019
     69  CD1       60.5590   61.6010   19.6260 C.3    76  LEU76       0.0001
     70  CD2       61.6790   63.4220   18.3340 C.3    76  LEU76       0.0001
     71  N         62.7930   54.8500   14.7600 N.3    90  ARG90      -0.1231
     72  CA        62.7210   55.8220   15.8740 C.3    90  ARG90       0.1694
     73  C         62.4490   55.0040   17.1430 C.2    90  ARG90       0.2591
     74  O         61.5690   54.1530   17.1640 O.2    90  ARG90      -0.2718
     75  CB        61.5910   56.8050   15.6370 C.3    90  ARG90       0.0321
     76  CG        61.1760   57.6790   16.8300 C.3    90  ARG90       0.0489
     77  CD        62.2350   58.7040   17.1740 C.3    90  ARG90       0.2205
     78  NE        62.3150   59.7750   16.1880 N.pl3  90  ARG90      -0.0865
     79  CZ        63.2120   60.7550   16.2250 C.cat  90  ARG90       0.5346
     80  NH1       64.0840   60.8480   17.2270 N.pl3  90  ARG90       0.1354
     81  NH2       63.2280   61.6640   15.2650 N.pl3  90  ARG90       0.1354
     82  N         63.1880   55.2820   18.2050 N.am   91  ARG91      -0.1980
     83  CA        63.0030   54.5870   19.4920 C.3    91  ARG91       0.1597
     84  C         63.1230   53.0690   19.3600 C.2    91  ARG91       0.2287
     85  O         62.4690   52.3140   20.0830 O.2    91  ARG91      -0.2864
     86  CB        61.6760   54.9990   20.1330 C.3    91  ARG91       0.0334
     87  CG        61.6650   56.4580   20.5420 C.3    91  ARG91       0.0492
     88  CD        60.2800   56.9760   20.8620 C.3    91  ARG91       0.2205
     89  NE        60.3710   58.2620   21.5520 N.pl3  91  ARG91      -0.0865
     90  CZ        59.3350   58.9510   22.0260 C.cat  91  ARG91       0.5346
     91  NH1       58.0970   58.4880   21.9020 N.pl3  91  ARG91       0.1354
     92  NH2       59.5400   60.1190   22.6340 N.pl3  91  ARG91       0.1354
     93  N         64.7700   74.5980   17.6100 N.3   173  LYS173     -0.1231
     94  CA        64.2570   73.2650   17.3540 C.3   173  LYS173      0.1693
     95  C         64.3000   72.3620   18.5750 C.2   173  LYS173      0.2592
     96  O         63.4590   71.4810   18.7070 O.2   173  LYS173     -0.2718
     97  CB        64.9520   72.5750   16.1600 C.3   173  LYS173      0.0285
     98  CG        66.2780   71.9230   16.4330 C.3   173  LYS173      0.0035
     99  CD        66.6910   71.0680   15.2330 C.3   173  LYS173      0.0206
    100  CE        68.0300   70.4210   15.4950 C.3   173  LYS173      0.1093
    101  NZ        68.4280   69.4560   14.4370 N.3   173  LYS173     -0.1314
    102  N         65.2830   72.5670   19.4520 N.am  174  THR174     -0.1953
    103  CA        65.4680   71.6970   20.6230 C.3   174  THR174      0.1897
    104  C         65.5000   72.4610   21.9480 C.2   174  THR174      0.2313
    105  O         64.9640   71.9860   22.9580 O.2   174  THR174     -0.2863
    106  CB        66.7880   70.9020   20.4540 C.3   174  THR174      0.1794
    107  OG1       66.6570   70.0520   19.3120 O.3   174  THR174     -0.2208
    108  CG2       67.1260   70.0560   21.6920 C.3   174  THR174      0.0378
    109  N         71.9090   69.5240   25.0590 N.3   210  PHE210     -0.1227
    110  CA        71.2740   68.2730   24.6260 C.3   210  PHE210      0.1736
    111  C         71.3730   68.0650   23.1080 C.2   210  PHE210      0.2595
    112  O         71.5380   66.9210   22.6400 O.2   210  PHE210     -0.2718
    113  CB        69.8150   68.2640   25.0850 C.3   210  PHE210      0.0547
    114  CG        69.1400   66.9430   24.9390 C.ar  210  PHE210     -0.0202
    115  CD1       69.2760   65.9790   25.9230 C.ar  210  PHE210     -0.0042
    116  CD2       68.3490   66.6680   23.8350 C.ar  210  PHE210     -0.0042
    117  CE1       68.6590   64.7420   25.8000 C.ar  210  PHE210     -0.0003
    118  CE2       67.7250   65.4380   23.7120 C.ar  210  PHE210     -0.0003
    119  CZ        67.8670   64.4850   24.6980 C.ar  210  PHE210     -0.0000
    120  N         71.2830   69.1510   22.3340 N.am  211  GLN211     -0.1979
    121  CA        71.4170   69.0620   20.8880 C.3   211  GLN211      0.1601
    122  C         72.8820   68.8600   20.4850 C.2   211  GLN211      0.2287
    123  O         73.1690   68.1450   19.5150 O.2   211  GLN211     -0.2864
    124  CB        70.8080   70.2720   20.1710 C.3   211  GLN211      0.0394
    125  CG        70.5760   70.0640   18.6670 C.3   211  GLN211      0.0908
    126  CD        69.8150   68.7930   18.3260 C.2   211  GLN211      0.2608
    127  OE1       68.7040   68.5490   18.8320 O.2   211  GLN211     -0.2717
    128  NE2       70.3970   67.9780   17.4490 N.am  211  GLN211     -0.0878
    129  N         73.2670   65.3170   21.0220 N.3   214  ASP214     -0.1239
    130  CA        72.5570   64.5410   19.9830 C.3   214  ASP214      0.1674
    131  C         73.3610   64.5090   18.6770 C.2   214  ASP214      0.2266
    132  O         73.4620   63.4730   18.0230 O.2   214  ASP214     -0.2867
    133  CB        71.1810   65.1350   19.7180 C.3   214  ASP214      0.1410
    134  CG        70.3740   64.3220   18.7210 C.2   214  ASP214      0.3668
    135  OD1       69.9590   63.2060   19.0860 O.co2 214  ASP214     -0.2456
    136  OD2       70.1420   64.8110   17.5910 O.co2 214  ASP214     -0.2456
    137  N         67.7190   54.8530   16.1650 N.3   228  LYS228     -0.1245
    138  CA        67.4280   55.5400   14.9150 C.3   228  LYS228      0.1561
    139  C         68.6560   55.3550   14.0280 C.2   228  LYS228      0.2260
    140  O         69.6950   54.8800   14.4960 O.2   228  LYS228     -0.2867
    141  CB        67.1010   57.0230   15.1530 C.3   228  LYS228      0.0271
    142  CG        68.2090   57.8430   15.8040 C.3   228  LYS228      0.0035
    143  CD        67.6580   59.0690   16.5570 C.3   228  LYS228      0.0206
    144  CE        68.7770   59.9590   17.1160 C.3   228  LYS228      0.1093
    145  NZ        68.2810   61.1490   17.8890 N.3   228  LYS228     -0.1314
@<TRIPOS>BOND
     1   139   140    2
     2   139   138    1
     3    66    65    2
     4   101   100    1
     5    71    72    1
     6   138   141    1
     7   138   137    1
     8    65    64    1
     9   141   142    1
    10    99   100    1
    11    99    98    1
    12    81    79    1
    13    75    72    1
    14    75    76    1
    15   142   143    1
    16    72    73    1
    17    97    98    1
    18    97    94    1
    19    78    79    2
    20    78    77    1
    21    79    80    1
    22    64    63    1
    23    64    67    1
    24   143   144    1
    25    76    77    1
    26   144   145    1
    27    73    74    2
    28    73    82   am
    29    94    93    1
    30    94    95    1
    31    67    68    1
    32   128   126   am
    33   136   134   ar
    34   132   131    2
    35    82    83    1
    36   126   125    1
    37   126   127    2
    38    70    68    1
    39    95    96    2
    40    95   102   am
    41   125   124    1
    42    68    69    1
    43   131   130    1
    44   134   135   ar
    45   134   133    1
    46   107   106    1
    47    84    83    1
    48    84    85    2
    49   102   103    1
    50    83    86    1
    51   123   122    2
    52   133   130    1
    53    56    55    2
    54   130   129    1
    55    86    87    1
    56   124   121    1
    57   106   103    1
    58   106   108    1
    59   122   121    1
    60    87    88    1
    61   103   104    1
    62    88    89    1
    63   121   120    1
    64    55    54    1
    65    89    90    2
    66    54    53    1
    67    54    57    1
    68    91    90    1
    69    61    59   ar
    70    61    62   ar
    71   104   105    2
    72    90    92    1
    73    59    58   ar
    74   120   111   am
    75   112   111    2
    76    62    60   ar
    77    58    57    1
    78    58    60   ar
    79   111   110    1
    80    43    41    1
    81   118   116   ar
    82   118   119   ar
    83   116   114   ar
    84    47    46    2
    85    41    40    2
    86    41    42    1
    87    13    12    1
    88    40    39    1
    89     1     2    1
    90   110   109    1
    91   110   113    1
    92   119   117   ar
    93     2     3    1
    94   114   113    1
    95   114   115   ar
    96    46    45    1
    97    52    50   ar
    98    39    38    1
    99    12    11    1
   100   117   115   ar
   101    23    22    1
   102    50    49    1
   103    50    51   ar
   104     3     5   am
   105     3     4    2
   106    45    44    1
   107    45    48    1
   108    24    22    1
   109     5     6    1
   110    49    48    1
   111    11    10    1
   112    22    21    2
   113    10     9    1
   114    38    37    1
   115     9     6    1
   116     6     7    1
   117    31    29    1
   118    21    20    1
   119    37    34    1
   120    14     7   am
   121    14    15    1
   122    20    19    1
   123     7     8    2
   124    15    16    1
   125    15    18    1
   126    25    16   am
   127    25    26    1
   128    29    26    1
   129    29    30    1
   130    33    34    1
   131    33    27   am
   132    19    18    1
   133    34    35    1
   134    32    30    1
   135    16    17    2
   136    26    27    1
   137    27    28    2
   138    35    36    2
