@<TRIPOS>MOLECULE
tmp/4lfgA00.pdb
 151 137 0 0 0
SMALL
GASTEIGER

@<TRIPOS>ATOM
      1  N         56.3970   66.9490   22.2560 N.3    72  HIS72      -0.1241
      2  CA        57.6880   66.3690   21.8660 C.3    72  HIS72       0.1621
      3  C         57.4940   65.1450   20.9360 C.2    72  HIS72       0.2264
      4  O         58.1370   65.0300   19.8750 O.2    72  HIS72      -0.2867
      5  CB        58.4720   65.9900   23.1170 C.3    72  HIS72       0.0745
      6  CG        59.6890   65.1670   22.8340 C.ar   72  HIS72       0.0817
      7  ND1       60.7120   65.6140   22.0370 N.ar   72  HIS72      -0.2268
      8  CD2       60.0210   63.9130   23.2090 C.ar   72  HIS72       0.1154
      9  CE1       61.6360   64.6730   21.9410 C.ar   72  HIS72       0.1986
     10  NE2       61.2390   63.6330   22.6550 N.ar   72  HIS72      -0.2212
     11  N         56.3430   66.0550   17.4690 N.3    75  SER75      -0.1202
     12  CA        57.4490   66.6420   16.7200 C.3    75  SER75       0.2020
     13  C         58.3420   65.5500   16.1060 C.2    75  SER75       0.2618
     14  O         58.8120   65.7070   14.9820 O.2    75  SER75      -0.2717
     15  CB        58.2620   67.6130   17.5770 C.3    75  SER75       0.2103
     16  OG        59.1990   66.9770   18.4000 O.3    75  SER75      -0.2182
     17  N         58.5500   64.4560   16.8240 N.am   76  LEU76      -0.1979
     18  CA        59.3630   63.3310   16.3100 C.3    76  LEU76       0.1596
     19  C         58.6780   62.6450   15.1520 C.2    76  LEU76       0.2287
     20  O         59.3250   62.3140   14.1490 O.2    76  LEU76      -0.2864
     21  CB        59.6380   62.3040   17.4070 C.3    76  LEU76       0.0297
     22  CG        60.3530   62.7680   18.6740 C.3    76  LEU76       0.0022
     23  CD1       60.5590   61.6010   19.6260 C.3    76  LEU76       0.0001
     24  CD2       61.6790   63.4220   18.3340 C.3    76  LEU76       0.0001
     25  N         59.0260   64.8270   12.2190 N.3    79  ASP79      -0.1225
     26  CA        60.4460   64.9490   11.8690 C.3    79  ASP79       0.1805
     27  C         60.9220   63.7390   11.0620 C.2    79  ASP79       0.2597
     28  O         61.7870   63.8910   10.2050 O.2    79  ASP79      -0.2718
     29  CB        61.3040   65.1310   13.1170 C.3    79  ASP79       0.1424
     30  CG        62.8000   65.1930   12.8070 C.2    79  ASP79       0.3668
     31  OD1       63.2960   66.2710   12.4510 O.co2  79  ASP79      -0.2456
     32  OD2       63.4760   64.1680   12.9640 O.co2  79  ASP79      -0.2456
     33  N         60.3630   62.5600   11.3410 N.am   80  ASP80      -0.1974
     34  CA        60.7530   61.3070   10.6640 C.3    80  ASP80       0.1709
     35  C         60.1490   61.1150    9.2820 C.2    80  ASP80       0.2293
     36  O         60.5840   60.2490    8.5270 O.2    80  ASP80      -0.2864
     37  CB        60.3690   60.0950   11.5320 C.3    80  ASP80       0.1436
     38  CG        61.1820   59.9990   12.8120 C.2    80  ASP80       0.3671
     39  OD1       62.3540   60.4450   12.8290 O.co2  80  ASP80      -0.2456
     40  OD2       60.6560   59.4390   13.8140 O.co2  80  ASP80      -0.2456
     41  N         63.0050   64.1180    7.5430 N.3    85  ASP85      -0.1239
     42  CA        64.2800   63.4000    7.6950 C.3    85  ASP85       0.1674
     43  C         64.2480   61.9820    7.1110 C.2    85  ASP85       0.2266
     44  O         65.3150   61.3600    6.9450 O.2    85  ASP85      -0.2867
     45  CB        64.7420   63.3790    9.1600 C.3    85  ASP85       0.1410
     46  CG        65.1540   64.7480    9.6680 C.2    85  ASP85       0.3668
     47  OD1       65.3520   65.6660    8.8290 O.co2  85  ASP85      -0.2456
     48  OD2       65.2970   64.9090   10.9020 O.co2  85  ASP85      -0.2456
     49  N         62.7930   54.8500   14.7600 N.3    90  ARG90      -0.1245
     50  CA        62.7210   55.8220   15.8740 C.3    90  ARG90       0.1563
     51  C         62.4490   55.0040   17.1430 C.2    90  ARG90       0.2260
     52  O         61.5690   54.1530   17.1640 O.2    90  ARG90      -0.2867
     53  CB        61.5910   56.8050   15.6370 C.3    90  ARG90       0.0307
     54  CG        61.1760   57.6790   16.8300 C.3    90  ARG90       0.0489
     55  CD        62.2350   58.7040   17.1740 C.3    90  ARG90       0.2205
     56  NE        62.3150   59.7750   16.1880 N.pl3  90  ARG90      -0.0865
     57  CZ        63.2120   60.7550   16.2250 C.cat  90  ARG90       0.5346
     58  NH1       64.0840   60.8480   17.2270 N.pl3  90  ARG90       0.1354
     59  NH2       63.2280   61.6640   15.2650 N.pl3  90  ARG90       0.1354
     60  N         59.8760   75.5390   18.3430 N.3   146  MET146     -0.1245
     61  CA        60.2270   74.2790   17.7080 C.3   146  MET146      0.1570
     62  C         59.9890   74.2330   16.1910 C.2   146  MET146      0.2261
     63  O         60.8900   73.8360   15.4400 O.2   146  MET146     -0.2867
     64  CB        59.5110   73.1170   18.4190 C.3   146  MET146      0.0387
     65  CG        59.8500   71.7380   17.8600 C.3   146  MET146      0.0595
     66  SD        58.7760   71.2130   16.5160 S.3   146  MET146     -0.1393
     67  CE        57.1840   71.1090   17.3700 C.3   146  MET146      0.0692
     68  N         62.6410   73.8060   13.2110 N.3   150  GLN150     -0.1245
     69  CA        62.5310   72.7480   12.2100 C.3   150  GLN150      0.1566
     70  C         62.6430   73.2860   10.7850 C.2   150  GLN150      0.2260
     71  O         63.3480   72.7070    9.9640 O.2   150  GLN150     -0.2867
     72  CB        61.2270   71.9500   12.3770 C.3   150  GLN150      0.0367
     73  CG        61.2430   71.0390   13.5890 C.3   150  GLN150      0.0905
     74  CD        62.2090   69.8810   13.4120 C.2   150  GLN150      0.2608
     75  OE1       63.4240   70.0530   13.5380 O.2   150  GLN150     -0.2717
     76  NE2       61.6800   68.7100   13.0800 N.am  150  GLN150     -0.0878
     77  N         66.2390   74.2890   10.0990 N.3   153  ASP153     -0.1239
     78  CA        67.0700   73.0890    9.9820 C.3   153  ASP153      0.1674
     79  C         66.9930   72.5550    8.5420 C.2   153  ASP153      0.2266
     80  O         68.0120   72.2450    7.9130 O.2   153  ASP153     -0.2867
     81  CB        66.5960   72.0750   11.0380 C.3   153  ASP153      0.1410
     82  CG        67.2520   70.7090   10.9230 C.2   153  ASP153      0.3668
     83  OD1       66.7720   69.8900   10.1170 O.co2 153  ASP153     -0.2456
     84  OD2       68.2020   70.4330   11.6900 O.co2 153  ASP153     -0.2456
     85  N         64.7700   74.5980   17.6100 N.3   173  LYS173     -0.1231
     86  CA        64.2570   73.2650   17.3540 C.3   173  LYS173      0.1693
     87  C         64.3000   72.3620   18.5750 C.2   173  LYS173      0.2592
     88  O         63.4590   71.4810   18.7070 O.2   173  LYS173     -0.2718
     89  CB        64.9520   72.5750   16.1600 C.3   173  LYS173      0.0285
     90  CG        66.2780   71.9230   16.4330 C.3   173  LYS173      0.0035
     91  CD        66.6910   71.0680   15.2330 C.3   173  LYS173      0.0206
     92  CE        68.0300   70.4210   15.4950 C.3   173  LYS173      0.1093
     93  NZ        68.4280   69.4560   14.4370 N.3   173  LYS173     -0.1314
     94  N         65.2830   72.5670   19.4520 N.am  174  THR174     -0.1953
     95  CA        65.4680   71.6970   20.6230 C.3   174  THR174      0.1897
     96  C         65.5000   72.4610   21.9480 C.2   174  THR174      0.2313
     97  O         64.9640   71.9860   22.9580 O.2   174  THR174     -0.2863
     98  CB        66.7880   70.9020   20.4540 C.3   174  THR174      0.1794
     99  OG1       66.6570   70.0520   19.3120 O.3   174  THR174     -0.2208
    100  CG2       67.1260   70.0560   21.6920 C.3   174  THR174      0.0378
    101  N         71.2830   69.1510   22.3340 N.3   211  GLN211     -0.1245
    102  CA        71.4170   69.0620   20.8880 C.3   211  GLN211      0.1566
    103  C         72.8820   68.8600   20.4850 C.2   211  GLN211      0.2260
    104  O         73.1690   68.1450   19.5150 O.2   211  GLN211     -0.2867
    105  CB        70.8080   70.2720   20.1710 C.3   211  GLN211      0.0367
    106  CG        70.5760   70.0640   18.6670 C.3   211  GLN211      0.0905
    107  CD        69.8150   68.7930   18.3260 C.2   211  GLN211      0.2608
    108  OE1       68.7040   68.5490   18.8320 O.2   211  GLN211     -0.2717
    109  NE2       70.3970   67.9780   17.4490 N.am  211  GLN211     -0.0878
    110  N         73.2670   65.3170   21.0220 N.3   214  ASP214     -0.1239
    111  CA        72.5570   64.5410   19.9830 C.3   214  ASP214      0.1674
    112  C         73.3610   64.5090   18.6770 C.2   214  ASP214      0.2266
    113  O         73.4620   63.4730   18.0230 O.2   214  ASP214     -0.2867
    114  CB        71.1810   65.1350   19.7180 C.3   214  ASP214      0.1410
    115  CG        70.3740   64.3220   18.7210 C.2   214  ASP214      0.3668
    116  OD1       69.9590   63.2060   19.0860 O.co2 214  ASP214     -0.2456
    117  OD2       70.1420   64.8110   17.5910 O.co2 214  ASP214     -0.2456
    118  N         74.8420   61.1410   16.8890 N.3   218  ASP218     -0.1239
    119  CA        74.4380   60.7570   15.5390 C.3   218  ASP218      0.1674
    120  C         75.6050   60.2800   14.6580 C.2   218  ASP218      0.2266
    121  O         75.3960   59.5100   13.7100 O.2   218  ASP218     -0.2867
    122  CB        73.6890   61.8980   14.8710 C.3   218  ASP218      0.1410
    123  CG        72.2880   62.0740   15.4270 C.2   218  ASP218      0.3668
    124  OD1       71.8360   61.2250   16.2220 O.co2 218  ASP218     -0.2456
    125  OD2       71.6390   63.0730   15.0740 O.co2 218  ASP218     -0.2456
    126  N         67.7190   54.8530   16.1650 N.3   228  LYS228     -0.1245
    127  CA        67.4280   55.5400   14.9150 C.3   228  LYS228      0.1561
    128  C         68.6560   55.3550   14.0280 C.2   228  LYS228      0.2260
    129  O         69.6950   54.8800   14.4960 O.2   228  LYS228     -0.2867
    130  CB        67.1010   57.0230   15.1530 C.3   228  LYS228      0.0271
    131  CG        68.2090   57.8430   15.8040 C.3   228  LYS228      0.0035
    132  CD        67.6580   59.0690   16.5570 C.3   228  LYS228      0.0206
    133  CE        68.7770   59.9590   17.1160 C.3   228  LYS228      0.1093
    134  NZ        68.2810   61.1490   17.8890 N.3   228  LYS228     -0.1314
    135  N         72.4180   63.0640    9.5350 N.3   233  ASP233     -0.1239
    136  CA        72.8990   64.4630    9.4960 C.3   233  ASP233      0.1674
    137  C         73.9570   64.7050    8.4260 C.2   233  ASP233      0.2266
    138  O         73.9250   65.7260    7.7400 O.2   233  ASP233     -0.2867
    139  CB        73.5280   64.8710   10.8460 C.3   233  ASP233      0.1410
    140  CG        72.5160   64.9550   11.9820 C.2   233  ASP233      0.3668
    141  OD1       71.3030   64.8530   11.6940 O.co2 233  ASP233     -0.2456
    142  OD2       72.9420   65.1230   13.1610 O.co2 233  ASP233     -0.2456
    143  N         73.2960   68.4780    6.9730 N.3   238  LYS238     -0.1245
    144  CA        72.7500   69.3180    8.0380 C.3   238  LYS238      0.1561
    145  C         73.8490   70.1170    8.7140 C.2   238  LYS238      0.2260
    146  O         74.9960   69.6880    8.7460 O.2   238  LYS238     -0.2867
    147  CB        72.1000   68.4460    9.1130 C.3   238  LYS238      0.0271
    148  CG        70.9360   67.5940    8.6390 C.3   238  LYS238      0.0035
    149  CD        69.6580   68.3980    8.4950 C.3   238  LYS238      0.0206
    150  CE        68.4870   67.4460    8.3140 C.3   238  LYS238      0.1093
    151  NZ        67.1710   68.1280    8.2620 N.3   238  LYS238     -0.1314
@<TRIPOS>BOND
     1    44    43    2
     2   143   144    1
     3    43    42    1
     4    41    42    1
     5    42    45    1
     6   138   137    2
     7    80    79    2
     8   144   145    1
     9   144   147    1
    10   151   150    1
    11   150   149    1
    12   137   136    1
    13   149   148    1
    14    36    35    2
    15    79    78    1
    16   148   147    1
    17   145   146    2
    18    47    46   ar
    19    45    46    1
    20    35    34    1
    21   136   135    1
    22   136   139    1
    23    46    48   ar
    24    71    70    2
    25    78    77    1
    26    78    81    1
    27    83    82   ar
    28    28    27    2
    29    34    33    1
    30    34    37    1
    31    70    69    1
    32   139   140    1
    33    82    81    1
    34    82    84   ar
    35    27    33   am
    36    27    26    1
    37    37    38    1
    38   141   140   ar
    39    26    25    1
    40    26    29    1
    41   140   142   ar
    42    69    72    1
    43    69    68    1
    44    72    73    1
    45    31    30   ar
    46    30    32   ar
    47    30    29    1
    48    38    39   ar
    49    38    40   ar
    50    76    74   am
    51    74    75    2
    52    74    73    1
    53   121   120    2
    54   128   129    2
    55   128   127    1
    56    20    19    2
    57    93    92    1
    58   120   119    1
    59    49    50    1
    60   122   123    1
    61   122   119    1
    62   127   130    1
    63   127   126    1
    64    14    13    2
    65   125   123   ar
    66    19    18    1
    67   130   131    1
    68    91    92    1
    69    91    90    1
    70    59    57    1
    71   123   124   ar
    72    63    62    2
    73   119   118    1
    74    53    50    1
    75    53    54    1
    76   131   132    1
    77    50    51    1
    78    13    12    1
    79    13    17   am
    80    89    90    1
    81    89    86    1
    82    56    57    2
    83    56    55    1
    84    62    61    1
    85    57    58    1
    86    18    17    1
    87    18    21    1
    88    66    67    1
    89    66    65    1
    90   132   133    1
    91    12    11    1
    92    12    15    1
    93    54    55    1
    94   133   134    1
    95    51    52    2
    96    86    85    1
    97    86    87    1
    98    21    22    1
    99   109   107   am
   100    15    16    1
   101   117   115   ar
   102    61    60    1
   103    61    64    1
   104    65    64    1
   105   113   112    2
   106   107   106    1
   107   107   108    2
   108    24    22    1
   109    87    88    2
   110    87    94   am
   111   106   105    1
   112    22    23    1
   113   112   111    1
   114   115   116   ar
   115   115   114    1
   116    99    98    1
   117    94    95    1
   118   104   103    2
   119   114   111    1
   120     4     3    2
   121   111   110    1
   122   105   102    1
   123    98    95    1
   124    98   100    1
   125   103   102    1
   126    95    96    1
   127   102   101    1
   128     3     2    1
   129     2     1    1
   130     2     5    1
   131     9     7   ar
   132     9    10   ar
   133    96    97    2
   134     7     6   ar
   135    10     8   ar
   136     6     5    1
   137     6     8   ar
