@<TRIPOS>MOLECULE
tmp/4lfiB00.pdb
 202 193 0 0 0
SMALL
GASTEIGER

@<TRIPOS>ATOM
      1  N         25.8280    8.0260   19.6990 N.3    46  VAL46      -0.1231
      2  CA        24.6500    8.6940   20.2580 C.3    46  VAL46       0.1692
      3  C         24.6150   10.1830   20.0050 C.2    46  VAL46       0.2593
      4  O         23.5900   10.8240   20.2090 O.2    46  VAL46      -0.2718
      5  CB        24.4530    8.4090   21.7620 C.3    46  VAL46       0.0266
      6  CG1       24.1150    6.9420   21.9570 C.3    46  VAL46       0.0020
      7  CG2       25.6580    8.7960   22.6000 C.3    46  VAL46       0.0020
      8  N         25.7220   10.7540   19.5530 N.am   47  GLY47      -0.1942
      9  CA        25.6860   12.1520   19.1900 C.3    47  GLY47       0.2014
     10  C         27.0440   12.6700   18.7880 C.2    47  GLY47       0.2639
     11  O         28.0110   11.9240   18.7140 O.2    47  GLY47      -0.2714
     12  N         27.0980   13.9660   18.5150 N.am   48  ARG48      -0.1963
     13  CA        28.3560   14.5930   18.1390 C.3    48  ARG48       0.1729
     14  C         28.3090   16.0720   18.4390 C.2    48  ARG48       0.2617
     15  O         27.2640   16.6160   18.7520 O.2    48  ARG48      -0.2715
     16  CB        28.6510   14.3610   16.6680 C.3    48  ARG48       0.0348
     17  CG        27.5560   14.8020   15.7100 C.3    48  ARG48       0.0492
     18  CD        27.8080   14.2270   14.3120 C.3    48  ARG48       0.2205
     19  NE        29.1650   14.5190   13.8420 N.pl3  48  ARG48      -0.0865
     20  CZ        29.6690   14.1440   12.6660 C.cat  48  ARG48       0.5346
     21  NH1       28.9390   13.4500   11.8000 N.pl3  48  ARG48       0.1354
     22  NH2       30.9190   14.4700   12.3530 N.pl3  48  ARG48       0.1354
     23  N         29.4630   16.7030   18.3710 N.am   49  GLY49      -0.1940
     24  CA        29.5380   18.1430   18.5450 C.3    49  GLY49       0.2014
     25  C         30.8250   18.6720   17.9850 C.2    49  GLY49       0.2639
     26  O         31.5750   17.9570   17.3010 O.2    49  GLY49      -0.2714
     27  N         31.1070   19.9240   18.3140 N.am   50  LYS50      -0.1963
     28  CA        32.2790   20.5980   17.7870 C.3    50  LYS50       0.1728
     29  C         33.5600   19.9800   18.3170 C.2    50  LYS50       0.2616
     30  O         34.6290   20.0950   17.6900 O.2    50  LYS50      -0.2715
     31  CB        32.2090   22.0860   18.1460 C.3    50  LYS50       0.0311
     32  CG        33.2940   22.9440   17.5290 C.3    50  LYS50       0.0038
     33  CD        33.0350   24.4200   17.7890 C.3    50  LYS50       0.0206
     34  CE        34.2420   25.2690   17.4130 C.3    50  LYS50       0.1093
     35  NZ        33.9280   26.7210   17.5490 N.3    50  LYS50      -0.1314
     36  N         33.4700   19.3220   19.4700 N.am   51  TYR51      -0.1960
     37  CA        34.6520   18.8710   20.1780 C.3    51  TYR51       0.1771
     38  C         34.7610   17.3680   20.3740 C.2    51  TYR51       0.2620
     39  O         35.7020   16.9020   21.0250 O.2    51  TYR51      -0.2715
     40  CB        34.7300   19.5840   21.5180 C.3    51  TYR51       0.0574
     41  CG        34.8830   21.0620   21.3600 C.ar   51  TYR51      -0.0198
     42  CD1       36.1230   21.6160   21.0340 C.ar   51  TYR51      -0.0009
     43  CD2       33.8080   21.9210   21.5360 C.ar   51  TYR51      -0.0009
     44  CE1       36.2710   22.9790   20.8740 C.ar   51  TYR51       0.0417
     45  CE2       33.9480   23.2870   21.3930 C.ar   51  TYR51       0.0417
     46  CZ        35.1890   23.8070   21.0470 C.ar   51  TYR51       0.1957
     47  OH        35.3450   25.1680   20.9130 O.3    51  TYR51      -0.2866
     48  N         33.8110   16.6050   19.8330 N.am   52  SER52      -0.1950
     49  CA        33.7770   15.1780   20.1140 C.3    52  SER52       0.1924
     50  C         32.8550   14.3950   19.1840 C.2    52  SER52       0.2314
     51  O         32.0230   14.9610   18.4600 O.2    52  SER52      -0.2863
     52  CB        33.2860   14.9420   21.5410 C.3    52  SER52       0.2116
     53  OG        31.9140   15.2690   21.6230 O.3    52  SER52      -0.2180
     54  N         30.3710   11.0570   20.2180 N.3    54  VAL54      -0.1245
     55  CA        29.9190   10.4200   21.4580 C.3    54  VAL54       0.1561
     56  C         29.1930    9.1070   21.1870 C.2    54  VAL54       0.2260
     57  O         28.2650    9.0330   20.3620 O.2    54  VAL54      -0.2867
     58  CB        29.0240   11.3980   22.2510 C.3    54  VAL54       0.0252
     59  CG1       28.5780   10.7890   23.5740 C.3    54  VAL54       0.0019
     60  CG2       29.7870   12.6900   22.5070 C.3    54  VAL54       0.0019
     61  N         28.4690    6.3550   28.4540 N.3    67  VAL67      -0.1245
     62  CA        28.7680    7.0340   27.1990 C.3    67  VAL67       0.1561
     63  C         30.2400    7.3760   27.1870 C.2    67  VAL67       0.2260
     64  O         30.8640    7.5820   28.2270 O.2    67  VAL67      -0.2867
     65  CB        27.8760    8.2690   26.8460 C.3    67  VAL67       0.0252
     66  CG1       26.4590    8.1070   27.3490 C.3    67  VAL67       0.0019
     67  CG2       28.4640    9.5830   27.3130 C.3    67  VAL67       0.0019
     68  N         32.9110    9.8950   25.3710 N.3    69  LYS69      -0.1245
     69  CA        33.0560   11.1260   24.6180 C.3    69  LYS69       0.1561
     70  C         34.4590   11.1130   24.0500 C.2    69  LYS69       0.2260
     71  O         35.4210   11.3180   24.7910 O.2    69  LYS69      -0.2867
     72  CB        32.8520   12.3430   25.5320 C.3    69  LYS69       0.0271
     73  CG        32.9760   13.6840   24.8130 C.3    69  LYS69       0.0035
     74  CD        32.6550   14.8490   25.7300 C.3    69  LYS69       0.0206
     75  CE        32.7840   16.1970   25.0150 C.3    69  LYS69       0.1093
     76  NZ        32.2920   17.3320   25.8530 N.3    69  LYS69      -0.1314
     77  N         26.0980   15.7710   35.2500 N.3   134  ILE134     -0.1245
     78  CA        26.5430   14.4900   34.7050 C.3   134  ILE134      0.1561
     79  C         27.7500   13.9720   35.4620 C.2   134  ILE134      0.2260
     80  O         28.6480   14.7470   35.8200 O.2   134  ILE134     -0.2867
     81  CB        26.8270   14.5830   33.1820 C.3   134  ILE134      0.0252
     82  CG1       26.7570   13.1900   32.5350 C.3   134  ILE134      0.0019
     83  CG2       28.1340   15.3040   32.8800 C.3   134  ILE134      0.0019
     84  CD1       25.3390   12.7030   32.3170 C.3   134  ILE134      0.0001
     85  N         31.2370    8.6930   30.8140 N.3   152  PHE152     -0.1227
     86  CA        30.1910    9.2310   31.6800 C.3   152  PHE152      0.1736
     87  C         29.0920    8.2070   31.9550 C.2   152  PHE152      0.2595
     88  O         28.9810    7.1750   31.2840 O.2   152  PHE152     -0.2718
     89  CB        29.5040   10.4140   31.0100 C.3   152  PHE152      0.0547
     90  CG        30.3950   11.5890   30.7410 C.ar  152  PHE152     -0.0202
     91  CD1       30.6080   12.5490   31.7160 C.ar  152  PHE152     -0.0042
     92  CD2       30.9910   11.7590   29.5020 C.ar  152  PHE152     -0.0042
     93  CE1       31.4160   13.6450   31.4600 C.ar  152  PHE152     -0.0003
     94  CE2       31.7960   12.8610   29.2420 C.ar  152  PHE152     -0.0003
     95  CZ        31.9990   13.8060   30.2220 C.ar  152  PHE152     -0.0000
     96  N         28.2460    8.5460   32.9240 N.am  153  GLU153     -0.1965
     97  CA        26.9570    7.9140   33.0640 C.3   153  GLU153      0.1733
     98  C         26.1540    8.1090   31.7830 C.2   153  GLU153      0.2616
     99  O         26.3310    9.1060   31.0550 O.2   153  GLU153     -0.2715
    100  CB        26.1990    8.4950   34.2600 C.3   153  GLU153      0.0429
    101  CG        25.4630    9.7800   33.9670 C.3   153  GLU153      0.1163
    102  CD        24.7590   10.3460   35.1750 C.2   153  GLU153      0.3649
    103  OE1       25.3540   11.2170   35.8220 O.co2 153  GLU153     -0.2457
    104  OE2       23.6270    9.9320   35.4680 O.co2 153  GLU153     -0.2457
    105  N         25.2840    7.1500   31.4930 N.am  154  TYR154     -0.1960
    106  CA        24.4190    7.2270   30.3170 C.3   154  TYR154      0.1771
    107  C         23.0520    7.7840   30.6720 C.2   154  TYR154      0.2619
    108  O         22.4470    7.3800   31.6650 O.2   154  TYR154     -0.2715
    109  CB        24.2810    5.8490   29.6650 C.3   154  TYR154      0.0574
    110  CG        23.2090    5.7740   28.6080 C.ar  154  TYR154     -0.0198
    111  CD1       23.4660    6.1430   27.2950 C.ar  154  TYR154     -0.0009
    112  CD2       21.9270    5.3440   28.9300 C.ar  154  TYR154     -0.0009
    113  CE1       22.4750    6.0840   26.3320 C.ar  154  TYR154      0.0417
    114  CE2       20.9380    5.2710   27.9760 C.ar  154  TYR154      0.0417
    115  CZ        21.2190    5.6420   26.6780 C.ar  154  TYR154      0.1957
    116  OH        20.2370    5.5640   25.7390 O.3   154  TYR154     -0.2866
    117  N         22.5640    8.7020   29.8470 N.am  155  VAL155     -0.1977
    118  CA        21.2040    9.2250   29.9660 C.3   155  VAL155      0.1596
    119  C         20.4320    8.9180   28.6900 C.2   155  VAL155      0.2287
    120  O         20.9440    9.1460   27.5900 O.2   155  VAL155     -0.2864
    121  CB        21.1870   10.7570   30.1820 C.3   155  VAL155      0.0276
    122  CG1       19.7600   11.2580   30.3820 C.3   155  VAL155      0.0022
    123  CG2       22.0480   11.1370   31.3660 C.3   155  VAL155      0.0022
    124  N         18.2700    9.9900   26.2370 N.3   157  ASN157     -0.1240
    125  CA        17.8400   11.3130   25.7780 C.3   157  ASN157      0.1653
    126  C         17.1440   11.2530   24.4300 C.2   157  ASN157      0.2266
    127  O         17.4990   10.4320   23.5800 O.2   157  ASN157     -0.2867
    128  CB        19.0620   12.2380   25.6720 C.3   157  ASN157      0.1155
    129  CG        18.6810   13.6770   25.3570 C.2   157  ASN157      0.2627
    130  OD1       17.9220   14.2910   26.0910 O.2   157  ASN157     -0.2716
    131  ND2       19.1850   14.2050   24.2550 N.am  157  ASN157     -0.0877
    132  N         27.9830   27.2180   28.2240 N.3   195  ASP195     -0.1239
    133  CA        27.4090   26.6430   26.9940 C.3   195  ASP195      0.1674
    134  C         26.0520   26.0060   27.2780 C.2   195  ASP195      0.2266
    135  O         25.7660   24.8890   26.8320 O.2   195  ASP195     -0.2867
    136  CB        28.3770   25.6370   26.3610 C.3   195  ASP195      0.1410
    137  CG        28.0780   25.3510   24.8650 C.2   195  ASP195      0.3668
    138  OD1       27.3490   26.1160   24.2170 O.co2 195  ASP195     -0.2456
    139  OD2       28.5640   24.3160   24.3640 O.co2 195  ASP195     -0.2456
    140  N         22.4880   25.1680   26.6460 N.3   197  LYS197     -0.1245
    141  CA        21.6420   25.0580   25.4580 C.3   197  LYS197      0.1561
    142  C         21.0060   23.6690   25.4390 C.2   197  LYS197      0.2260
    143  O         21.4740   22.7760   26.1380 O.2   197  LYS197     -0.2867
    144  CB        22.4630   25.2460   24.1830 C.3   197  LYS197      0.0271
    145  CG        23.5910   24.2410   24.0130 C.3   197  LYS197      0.0035
    146  CD        24.4470   24.5690   22.8040 C.3   197  LYS197      0.0206
    147  CE        25.4370   23.4480   22.5710 C.3   197  LYS197      0.1093
    148  NZ        26.3430   23.6340   21.4060 N.3   197  LYS197     -0.1314
    149  N         21.0250   20.9870   23.5090 N.3   199  HIS199     -0.1226
    150  CA        21.8580   19.8210   23.2460 C.3   199  HIS199      0.1752
    151  C         22.8110   19.4910   24.3910 C.2   199  HIS199      0.2596
    152  O         23.4140   18.4370   24.4010 O.2   199  HIS199     -0.2718
    153  CB        22.6250   20.0020   21.9330 C.3   199  HIS199      0.0759
    154  CG        21.8050   19.7780   20.7010 C.ar  199  HIS199      0.0818
    155  ND1       20.9720   18.6880   20.5430 N.ar  199  HIS199     -0.2268
    156  CD2       21.7390   20.4720   19.5380 C.ar  199  HIS199      0.1154
    157  CE1       20.4220   18.7240   19.3400 C.ar  199  HIS199      0.1986
    158  NE2       20.8670   19.7990   18.7110 N.ar  199  HIS199     -0.2212
    159  N         22.9370   20.3890   25.3660 N.am  200  ASN200     -0.1974
    160  CA        23.7660   20.1450   26.5370 C.3   200  ASN200      0.1688
    161  C         22.9590   19.8190   27.7900 C.2   200  ASN200      0.2292
    162  O         23.5010   19.7950   28.8970 O.2   200  ASN200     -0.2864
    163  CB        24.6960   21.3520   26.7780 C.3   200  ASN200      0.1181
    164  CG        25.7990   21.4230   25.7510 C.2   200  ASN200      0.2629
    165  OD1       25.9960   20.4830   24.9750 O.2   200  ASN200     -0.2716
    166  ND2       26.5210   22.5380   25.7290 N.am  200  ASN200     -0.0877
    167  N         20.5490   16.7610   28.9070 N.3   202  MET202     -0.1245
    168  CA        20.0070   15.4210   28.6300 C.3   202  MET202      0.1570
    169  C         18.7770   15.2000   29.5120 C.2   202  MET202      0.2261
    170  O         18.8030   15.4870   30.7220 O.2   202  MET202     -0.2867
    171  CB        21.0530   14.3510   28.9080 C.3   202  MET202      0.0387
    172  CG        22.3220   14.4670   28.0560 C.3   202  MET202      0.0595
    173  SD        22.0430   14.2140   26.2820 S.3   202  MET202     -0.1393
    174  CE        21.7390   15.8750   25.6810 C.3   202  MET202      0.0692
    175  N         25.1280   18.4140   30.9190 N.3   213  ILE213     -0.1231
    176  CA        26.3310   17.7920   30.3960 C.3   213  ILE213      0.1692
    177  C         27.1900   18.8480   29.7400 C.2   213  ILE213      0.2592
    178  O         26.8680   20.0460   29.7690 O.2   213  ILE213     -0.2718
    179  CB        26.0320   16.6600   29.3480 C.3   213  ILE213      0.0266
    180  CG1       25.4180   17.2080   28.0760 C.3   213  ILE213      0.0019
    181  CG2       25.1110   15.6050   29.9420 C.3   213  ILE213      0.0020
    182  CD1       25.5010   16.2480   26.9060 C.3   213  ILE213      0.0001
    183  N         28.2860   18.3850   29.1600 N.am  214  ASP214     -0.1974
    184  CA        29.1510   19.1830   28.2990 C.3   214  ASP214      0.1709
    185  C         29.7900   20.3500   29.0490 C.2   214  ASP214      0.2293
    186  O         29.4130   21.5120   28.8900 O.2   214  ASP214     -0.2864
    187  CB        28.4420   19.7060   27.0420 C.3   214  ASP214      0.1436
    188  CG        29.4580   20.2890   26.0150 C.2   214  ASP214      0.3671
    189  OD1       30.6570   20.2630   26.3110 O.co2 214  ASP214     -0.2456
    190  OD2       29.0790   20.7960   24.9450 O.co2 214  ASP214     -0.2456
    191  N         32.9260   21.1820   28.6920 N.3   216  GLY216     -0.1210
    192  CA        34.1550   21.4430   27.9520 C.3   216  GLY216      0.1956
    193  C         34.4680   22.9060   27.6730 C.2   216  GLY216      0.2611
    194  O         35.5840   23.2230   27.2900 O.2   216  GLY216     -0.2717
    195  N         33.4890   23.7920   27.8250 N.am  217  LEU217     -0.1979
    196  CA        33.7490   25.2390   27.7620 C.3   217  LEU217      0.1596
    197  C         33.6030   25.9070   29.1290 C.2   217  LEU217      0.2287
    198  O         33.7240   27.1340   29.2380 O.2   217  LEU217     -0.2864
    199  CB        32.8170   25.9150   26.7490 C.3   217  LEU217      0.0297
    200  CG        33.1380   25.6000   25.2810 C.3   217  LEU217      0.0022
    201  CD1       32.1210   26.2470   24.3510 C.3   217  LEU217      0.0001
    202  CD2       34.5510   26.0360   24.8870 C.3   217  LEU217      0.0001
@<TRIPOS>BOND
     1    21    20    1
     2    22    20    1
     3    20    19    2
     4    19    18    1
     5    18    17    1
     6    17    16    1
     7    16    13    1
     8    26    25    2
     9    34    35    1
    10    34    33    1
    11    32    33    1
    12    32    31    1
    13    30    29    2
    14    28    31    1
    15    28    27    1
    16    28    29    1
    17    25    27   am
    18    25    24    1
    19    13    14    1
    20    13    12    1
    21    29    36   am
    22    23    14   am
    23    23    24    1
    24    14    15    2
    25    51    50    2
    26    12    10   am
    27   158   157   ar
    28   158   156   ar
    29    11    10    2
    30    10     9    1
    31    50    49    1
    32     9     8    1
    33   157   155   ar
    34    36    37    1
    35   156   154   ar
    36     8     3   am
    37     1     2    1
    38    48    49    1
    39    48    38   am
    40     3     4    2
    41     3     2    1
    42    49    52    1
    43    37    38    1
    44    37    40    1
    45    54    55    1
    46     2     5    1
    47    57    56    2
    48    38    39    2
    49   155   154   ar
    50   154   153    1
    51    44    42   ar
    52    44    46   ar
    53    47    46    1
    54    42    41   ar
    55    46    45   ar
    56    56    55    1
    57    41    40    1
    58    41    43   ar
    59    45    43   ar
    60   148   147    1
    61    55    58    1
    62    52    53    1
    63     5     6    1
    64     5     7    1
    65   153   150    1
    66    58    60    1
    67    58    59    1
    68   147   146    1
    69   146   145    1
    70   150   149    1
    71   150   151    1
    72   127   126    2
    73   145   144    1
    74    70    69    1
    75    70    71    2
    76   144   141    1
    77   138   137   ar
    78   131   129   am
    79   201   200    1
    80   139   137   ar
    81   151   152    2
    82   151   159   am
    83   126   125    1
    84    69    68    1
    85    69    72    1
    86    73    72    1
    87    73    74    1
    88   137   136    1
    89   202   200    1
    90   190   188   ar
    91   165   164    2
    92    75    74    1
    93    75    76    1
    94   200   199    1
    95   129   128    1
    96   129   130    2
    97   159   160    1
    98   142   141    1
    99   142   143    2
   100   141   140    1
   101   128   125    1
   102   174   173    1
   103   166   164   am
   104   116   115    1
   105   164   163    1
   106   125   124    1
   107   188   189   ar
   108   188   187    1
   109   173   172    1
   110   113   115   ar
   111   113   111   ar
   112   136   133    1
   113   160   163    1
   114   160   161    1
   115   115   114   ar
   116   199   196    1
   117   135   134    2
   118    65    62    1
   119    65    67    1
   120    65    66    1
   121   182   180    1
   122   133   134    1
   123   133   132    1
   124   187   184    1
   125    63    62    1
   126    63    64    2
   127    62    61    1
   128   194   193    2
   129   111   110   ar
   130   120   119    2
   131   193   195   am
   132   193   192    1
   133   196   195    1
   134   196   197    1
   135   161   162    2
   136   192   191    1
   137   114   112   ar
   138   172   171    1
   139   180   179    1
   140   184   185    1
   141   184   183    1
   142   110   112   ar
   143   110   109    1
   144   168   167    1
   145   168   171    1
   146   168   169    1
   147   119   118    1
   148   186   185    2
   149   197   198    2
   150   183   177   am
   151    94    92   ar
   152    94    95   ar
   153   179   181    1
   154   179   176    1
   155    92    90   ar
   156   169   170    2
   157   109   106    1
   158   177   178    2
   159   177   176    1
   160   117   118    1
   161   117   107   am
   162   118   121    1
   163   121   122    1
   164   121   123    1
   165    95    93   ar
   166   106   107    1
   167   106   105    1
   168   176   175    1
   169   107   108    2
   170    90    89    1
   171    90    91   ar
   172    85    86    1
   173    89    86    1
   174    99    98    2
   175    88    87    2
   176    93    91   ar
   177   105    98   am
   178    86    87    1
   179    98    97    1
   180    87    96   am
   181    84    82    1
   182    82    81    1
   183    83    81    1
   184    96    97    1
   185    97   100    1
   186    81    78    1
   187   101   100    1
   188   101   102    1
   189    78    77    1
   190    78    79    1
   191   102   104   ar
   192   102   103   ar
   193    79    80    2
