@<TRIPOS>MOLECULE
tmp/4lflB00.pdb
 99 97 0 0 0
SMALL
GASTEIGER

@<TRIPOS>ATOM
      1  N         55.1520  -15.7970    8.1320 N.3     8  ASP8       -0.1225
      2  CA        55.6490  -15.2600    6.8800 C.3     8  ASP8        0.1805
      3  C         55.6760  -13.7490    7.1010 C.2     8  ASP8        0.2598
      4  O         55.3340  -13.2700    8.1830 O.2     8  ASP8       -0.2718
      5  CB        54.8070  -15.6950    5.6610 C.3     8  ASP8        0.1424
      6  CG        53.4540  -15.0260    5.5690 C.2     8  ASP8        0.3668
      7  OD1       53.0360  -14.3030    6.4930 O.co2   8  ASP8       -0.2456
      8  OD2       52.7960  -15.2540    4.5300 O.co2   8  ASP8       -0.2456
      9  N         56.1020  -13.0020    6.0940 N.am    9  HIS9       -0.1961
     10  CA        56.2500  -11.5550    6.1940 C.3     9  HIS9        0.1787
     11  C         55.0090  -10.7130    6.4550 C.2     9  HIS9        0.2620
     12  O         55.1210   -9.5690    6.8980 O.2     9  HIS9       -0.2715
     13  CB        56.9050  -11.0580    4.9170 C.3     9  HIS9        0.0785
     14  CG        56.1890  -11.5160    3.6890 C.ar    9  HIS9        0.0821
     15  ND1       55.5080  -10.6570    2.8550 N.ar    9  HIS9       -0.2267
     16  CD2       55.9860  -12.7600    3.1980 C.ar    9  HIS9        0.1154
     17  CE1       54.9140  -11.3540    1.9020 C.ar    9  HIS9        0.1986
     18  NE2       55.1900  -12.6330    2.0870 N.ar    9  HIS9       -0.2212
     19  N         53.8320  -11.2570    6.1720 N.am   10  ILE10      -0.1977
     20  CA        52.5980  -10.5070    6.3660 C.3    10  ILE10       0.1596
     21  C         52.2600  -10.2840    7.8380 C.2    10  ILE10       0.2287
     22  O         51.6520   -9.2720    8.1980 O.2    10  ILE10      -0.2864
     23  CB        51.4120  -11.2370    5.6870 C.3    10  ILE10       0.0276
     24  CG1       51.6990  -11.4080    4.1890 C.3    10  ILE10       0.0022
     25  CG2       50.1020  -10.4850    5.9300 C.3    10  ILE10       0.0022
     26  CD1       51.8740  -10.1040    3.4170 C.3    10  ILE10       0.0001
     27  N         59.2130  -10.0150    1.4600 N.3    39  ARG39      -0.1231
     28  CA        58.4310  -11.0830    0.8460 C.3    39  ARG39       0.1694
     29  C         59.1290  -12.4330    0.8630 C.2    39  ARG39       0.2592
     30  O         60.2330  -12.5910    0.3320 O.2    39  ARG39      -0.2718
     31  CB        58.0620  -10.7030   -0.5900 C.3    39  ARG39       0.0321
     32  CG        57.2770  -11.7730   -1.3270 C.3    39  ARG39       0.0489
     33  CD        56.7600  -11.2440   -2.6570 C.3    39  ARG39       0.2205
     34  NE        55.6680  -10.2950   -2.4710 N.pl3  39  ARG39      -0.0865
     35  CZ        55.1870   -9.5070   -3.4280 C.cat  39  ARG39       0.5346
     36  NH1       55.7060   -9.5510   -4.6470 N.pl3  39  ARG39       0.1354
     37  NH2       54.1840   -8.6770   -3.1630 N.pl3  39  ARG39       0.1354
     38  N         58.4790  -13.4060    1.4950 N.am   40  THR40      -0.1953
     39  CA        59.0220  -14.7500    1.5740 C.3    40  THR40       0.1897
     40  C         57.9070  -15.7970    1.4500 C.2    40  THR40       0.2313
     41  O         56.7780  -15.4590    1.0720 O.2    40  THR40      -0.2863
     42  CB        59.8740  -14.9370    2.8610 C.3    40  THR40       0.1794
     43  OG1       60.5310  -16.2100    2.8200 O.3    40  THR40      -0.2208
     44  CG2       59.0160  -14.8270    4.1100 C.3    40  THR40       0.0378
     45  N         55.6060  -18.9290    3.1620 N.3    42  TYR42      -0.1241
     46  CA        55.1400  -19.6020    4.3590 C.3    42  TYR42       0.1605
     47  C         55.5210  -21.0690    4.5680 C.2    42  TYR42       0.2264
     48  O         55.7300  -21.4850    5.7060 O.2    42  TYR42      -0.2867
     49  CB        53.6160  -19.4060    4.5050 C.3    42  TYR42       0.0534
     50  CG        52.7700  -19.9190    3.3550 C.ar   42  TYR42      -0.0201
     51  CD1       52.5590  -21.2840    3.1760 C.ar   42  TYR42      -0.0009
     52  CD2       52.1930  -19.0390    2.4350 C.ar   42  TYR42      -0.0009
     53  CE1       51.8020  -21.7680    2.1080 C.ar   42  TYR42       0.0417
     54  CE2       51.4270  -19.5180    1.3600 C.ar   42  TYR42       0.0417
     55  CZ        51.2430  -20.8840    1.2080 C.ar   42  TYR42       0.1957
     56  OH        50.5160  -21.3850    0.1470 O.3    42  TYR42      -0.2866
     57  N         50.3360  -16.7340    9.4020 N.3    65  CYS65      -0.1221
     58  CA        50.5190  -16.0380    8.1320 C.3    65  CYS65       0.1808
     59  C         49.2440  -15.2120    7.9750 C.2    65  CYS65       0.2602
     60  O         48.4210  -15.1890    8.8930 O.2    65  CYS65      -0.2717
     61  CB        50.7760  -17.0000    6.9500 C.3    65  CYS65       0.0970
     62  SG        49.4800  -18.1580    6.4490 S.3    65  CYS65      -0.0800
     63  N         49.0820  -14.5060    6.8580 N.am   66  GLY66      -0.1942
     64  CA        47.8940  -13.6860    6.6810 C.3    66  GLY66       0.2014
     65  C         46.6140  -14.3310    7.1840 C.2    66  GLY66       0.2639
     66  O         45.9330  -13.7950    8.0590 O.2    66  GLY66      -0.2714
     67  N         46.2970  -15.4970    6.6280 N.am   67  THR67      -0.1950
     68  CA        45.0940  -16.2350    7.0060 C.3    67  THR67       0.1897
     69  C         45.4230  -17.4450    7.8740 C.2    67  THR67       0.2313
     70  O         44.5320  -18.0170    8.4970 O.2    67  THR67      -0.2863
     71  CB        44.3860  -16.7930    5.7820 C.3    67  THR67       0.1794
     72  OG1       45.2740  -17.7050    5.1250 O.3    67  THR67      -0.2208
     73  CG2       43.9870  -15.6840    4.8290 C.3    67  THR67       0.0378
     74  N         46.1520  -20.2890    6.8290 N.3    69  ILE69      -0.1231
     75  CA        45.9510  -21.4970    6.0280 C.3    69  ILE69       0.1692
     76  C         47.2430  -22.0520    5.4230 C.2    69  ILE69       0.2592
     77  O         47.5430  -23.2420    5.5470 O.2    69  ILE69      -0.2718
     78  CB        44.9520  -21.2530    4.8760 C.3    69  ILE69       0.0266
     79  CG1       43.6250  -20.7200    5.4220 C.3    69  ILE69       0.0019
     80  CG2       44.7270  -22.5580    4.0990 C.3    69  ILE69       0.0020
     81  CD1       42.9870  -21.6060    6.4860 C.3    69  ILE69       0.0001
     82  N         48.0140  -21.1930    4.7710 N.am   70  GLY70      -0.1957
     83  CA        49.2400  -21.6630    4.1570 C.3    70  GLY70       0.1869
     84  C         50.2690  -22.2530    5.1070 C.2    70  GLY70       0.2309
     85  O         50.7410  -23.3810    4.9240 O.2    70  GLY70      -0.2863
     86  N         62.7020  -18.9810   -7.9340 N.3   165  TRP165     -0.1241
     87  CA        62.2020  -17.6760   -7.5220 C.3   165  TRP165      0.1605
     88  C         63.2640  -16.6160   -7.7860 C.2   165  TRP165      0.2264
     89  O         62.9670  -15.5350   -8.2990 O.2   165  TRP165     -0.2867
     90  CB        61.8330  -17.6970   -6.0340 C.3   165  TRP165      0.0550
     91  CG        61.4230  -16.3650   -5.4700 C.ar  165  TRP165      0.0003
     92  CD1       62.2420  -15.4110   -4.9290 C.ar  165  TRP165      0.0946
     93  CD2       60.0910  -15.8450   -5.3820 C.ar  165  TRP165      0.0152
     94  NE1       61.5020  -14.3340   -4.5070 N.ar  165  TRP165     -0.2442
     95  CE2       60.1780  -14.5730   -4.7720 C.ar  165  TRP165      0.0810
     96  CE3       58.8310  -16.3300   -5.7570 C.ar  165  TRP165      0.0012
     97  CZ2       59.0530  -13.7810   -4.5300 C.ar  165  TRP165      0.0191
     98  CZ3       57.7140  -15.5420   -5.5150 C.ar  165  TRP165      0.0001
     99  CH2       57.8340  -14.2800   -4.9060 C.ar  165  TRP165      0.0015
@<TRIPOS>BOND
     1    89    88    2
     2    86    87    1
     3    88    87    1
     4    87    90    1
     5    90    91    1
     6    96    98   ar
     7    96    93   ar
     8    98    99   ar
     9    91    93   ar
    10    91    92   ar
    11    93    95   ar
    12    92    94   ar
    13    99    97   ar
    14    95    97   ar
    15    95    94   ar
    16    36    35    1
    17    35    37    1
    18    35    34    2
    19    33    34    1
    20    33    32    1
    21    32    31    1
    22    31    28    1
    23    56    55    1
    24    30    29    2
    25    28    29    1
    26    28    27    1
    27    29    38   am
    28    41    40    2
    29    55    54   ar
    30    55    53   ar
    31    54    52   ar
    32    40    39    1
    33    38    39    1
    34    39    42    1
    35    17    18   ar
    36    17    15   ar
    37    18    16   ar
    38    53    51   ar
    39    52    50   ar
    40    43    42    1
    41    15    14   ar
    42    42    44    1
    43    45    46    1
    44    51    50   ar
    45    16    14   ar
    46    50    49    1
    47    26    24    1
    48    14    13    1
    49    80    78    1
    50    83    82    1
    51    83    84    1
    52    24    23    1
    53    46    49    1
    54    46    47    1
    55     8     6   ar
    56    47    48    2
    57    82    76   am
    58    73    71    1
    59    78    79    1
    60    78    75    1
    61    13    10    1
    62    85    84    2
    63    72    71    1
    64    79    81    1
    65    76    77    2
    66    76    75    1
    67     6     5    1
    68     6     7   ar
    69     5     2    1
    70    23    25    1
    71    23    20    1
    72    71    68    1
    73    75    74    1
    74     9    10    1
    75     9     3   am
    76    19    20    1
    77    19    11   am
    78    10    11    1
    79    20    21    1
    80    62    61    1
    81    11    12    2
    82    67    68    1
    83    67    65   am
    84    64    63    1
    85    64    65    1
    86    63    59   am
    87     2     3    1
    88     2     1    1
    89    61    58    1
    90    68    69    1
    91     3     4    2
    92    65    66    2
    93    21    22    2
    94    69    70    2
    95    59    58    1
    96    59    60    2
    97    58    57    1
