@<TRIPOS>MOLECULE
tmp/4lfmB00.pdb
 74 71 0 0 0
SMALL
GASTEIGER

@<TRIPOS>ATOM
      1  N         55.2940  -15.8440    8.1390 N.3     8  ASP8       -0.1225
      2  CA        55.7740  -15.3120    6.8750 C.3     8  ASP8        0.1805
      3  C         55.8410  -13.8010    7.1030 C.2     8  ASP8        0.2598
      4  O         55.5220  -13.3140    8.1940 O.2     8  ASP8       -0.2718
      5  CB        54.8790  -15.7240    5.6910 C.3     8  ASP8        0.1424
      6  CG        53.5880  -14.9450    5.5970 C.2     8  ASP8        0.3668
      7  OD1       53.1840  -14.2610    6.5590 O.co2   8  ASP8       -0.2456
      8  OD2       52.9580  -15.0490    4.5210 O.co2   8  ASP8       -0.2456
      9  N         56.2770  -13.0580    6.0960 N.am    9  HIS9       -0.1961
     10  CA        56.4600  -11.6120    6.2100 C.3     9  HIS9        0.1787
     11  C         55.2320  -10.7440    6.4620 C.2     9  HIS9        0.2620
     12  O         55.3600   -9.5910    6.8840 O.2     9  HIS9       -0.2715
     13  CB        57.1510  -11.1190    4.9470 C.3     9  HIS9        0.0785
     14  CG        56.4250  -11.5020    3.6990 C.ar    9  HIS9        0.0821
     15  ND1       55.7830  -10.5840    2.8960 N.ar    9  HIS9       -0.2267
     16  CD2       56.1970  -12.7160    3.1420 C.ar    9  HIS9        0.1154
     17  CE1       55.1930  -11.2150    1.8950 C.ar    9  HIS9        0.1986
     18  NE2       55.4290  -12.5090    2.0220 N.ar    9  HIS9       -0.2212
     19  N         54.0470  -11.2780    6.1960 N.am   10  ILE10      -0.1977
     20  CA        52.8240  -10.5140    6.3810 C.3    10  ILE10       0.1596
     21  C         52.4660  -10.3000    7.8490 C.2    10  ILE10       0.2287
     22  O         51.8540   -9.2880    8.2050 O.2    10  ILE10      -0.2864
     23  CB        51.6390  -11.2180    5.6720 C.3    10  ILE10       0.0276
     24  CG1       51.9340  -11.3290    4.1750 C.3    10  ILE10       0.0022
     25  CG2       50.3320  -10.4660    5.9200 C.3    10  ILE10       0.0022
     26  CD1       52.1730   -9.9850    3.4920 C.3    10  ILE10       0.0001
     27  N         58.7500  -13.4270    1.5460 N.3    40  THR40      -0.1218
     28  CA        59.2920  -14.7730    1.6290 C.3    40  THR40       0.1862
     29  C         58.1700  -15.8140    1.5060 C.2    40  THR40       0.2287
     30  O         57.0340  -15.4630    1.1680 O.2    40  THR40      -0.2866
     31  CB        60.1230  -14.9690    2.9250 C.3    40  THR40       0.1770
     32  OG1       60.7550  -16.2570    2.9010 O.3    40  THR40      -0.2211
     33  CG2       59.2410  -14.8320    4.1570 C.3    40  THR40       0.0375
     34  N         55.8590  -18.9490    3.1800 N.3    42  TYR42      -0.1241
     35  CA        55.3760  -19.6300    4.3690 C.3    42  TYR42       0.1605
     36  C         55.7520  -21.1030    4.5810 C.2    42  TYR42       0.2264
     37  O         55.9490  -21.5200    5.7240 O.2    42  TYR42      -0.2867
     38  CB        53.8500  -19.4340    4.4940 C.3    42  TYR42       0.0534
     39  CG        53.0140  -19.9860    3.3540 C.ar   42  TYR42      -0.0201
     40  CD1       52.7710  -21.3560    3.2370 C.ar   42  TYR42      -0.0009
     41  CD2       52.4710  -19.1390    2.3850 C.ar   42  TYR42      -0.0009
     42  CE1       52.0130  -21.8710    2.1830 C.ar   42  TYR42       0.0417
     43  CE2       51.7080  -19.6470    1.3260 C.ar   42  TYR42       0.0417
     44  CZ        51.4880  -21.0140    1.2340 C.ar   42  TYR42       0.1957
     45  OH        50.7570  -21.5240    0.1830 O.3    42  TYR42      -0.2866
     46  N         50.4840  -16.7170    9.3550 N.3    65  CYS65      -0.1221
     47  CA        50.6730  -16.0190    8.0880 C.3    65  CYS65       0.1808
     48  C         49.3960  -15.1850    7.9560 C.2    65  CYS65       0.2602
     49  O         48.5970  -15.1610    8.8900 O.2    65  CYS65      -0.2717
     50  CB        50.9270  -16.9780    6.9040 C.3    65  CYS65       0.0970
     51  SG        49.6520  -18.1540    6.4110 S.3    65  CYS65      -0.0800
     52  N         49.2030  -14.4670    6.8540 N.am   66  GLY66      -0.1942
     53  CA        48.0040  -13.6440    6.7330 C.3    66  GLY66       0.2014
     54  C         46.7250  -14.3060    7.2320 C.2    66  GLY66       0.2639
     55  O         46.0280  -13.7750    8.1030 O.2    66  GLY66      -0.2714
     56  N         46.4240  -15.4770    6.6770 N.am   67  THR67      -0.1950
     57  CA        45.2320  -16.2300    7.0560 C.3    67  THR67       0.1897
     58  C         45.5800  -17.4400    7.9190 C.2    67  THR67       0.2313
     59  O         44.7010  -18.0030    8.5730 O.2    67  THR67      -0.2863
     60  CB        44.5110  -16.7920    5.8380 C.3    67  THR67       0.1794
     61  OG1       45.3770  -17.7310    5.1890 O.3    67  THR67      -0.2208
     62  CG2       44.1270  -15.6820    4.8730 C.3    67  THR67       0.0378
     63  N         46.3190  -20.3030    6.8440 N.3    69  ILE69      -0.1231
     64  CA        46.1120  -21.5080    6.0410 C.3    69  ILE69       0.1692
     65  C         47.4000  -22.0710    5.4340 C.2    69  ILE69       0.2592
     66  O         47.7040  -23.2580    5.5670 O.2    69  ILE69      -0.2718
     67  CB        45.1160  -21.2540    4.8840 C.3    69  ILE69       0.0266
     68  CG1       43.7970  -20.6790    5.4190 C.3    69  ILE69       0.0019
     69  CG2       44.8820  -22.5540    4.1140 C.3    69  ILE69       0.0020
     70  CD1       43.1120  -21.5290    6.4980 C.3    69  ILE69       0.0001
     71  N         48.1640  -21.2200    4.7640 N.am   70  GLY70      -0.1957
     72  CA        49.3810  -21.7080    4.1510 C.3    70  GLY70       0.1869
     73  C         50.4000  -22.3140    5.1000 C.2    70  GLY70       0.2309
     74  O         50.8640  -23.4400    4.8950 O.2    70  GLY70      -0.2863
@<TRIPOS>BOND
     1    45    44    1
     2    30    29    2
     3    44    43   ar
     4    44    42   ar
     5    43    41   ar
     6    29    28    1
     7    27    28    1
     8    28    31    1
     9    17    18   ar
    10    17    15   ar
    11    18    16   ar
    12    42    40   ar
    13    41    39   ar
    14    15    14   ar
    15    32    31    1
    16    31    33    1
    17    16    14   ar
    18    34    35    1
    19    40    39   ar
    20    39    38    1
    21    26    24    1
    22    14    13    1
    23    69    67    1
    24    72    71    1
    25    72    73    1
    26    24    23    1
    27    35    38    1
    28    35    36    1
    29     8     6   ar
    30    36    37    2
    31    71    65   am
    32    62    60    1
    33    67    68    1
    34    67    64    1
    35    74    73    2
    36    13    10    1
    37    61    60    1
    38    68    70    1
    39    65    66    2
    40    65    64    1
    41     6     5    1
    42     6     7   ar
    43    23    25    1
    44    23    20    1
    45     5     2    1
    46    60    57    1
    47    64    63    1
    48     9    10    1
    49     9     3   am
    50    19    20    1
    51    19    11   am
    52    10    11    1
    53    20    21    1
    54    51    50    1
    55    11    12    2
    56    56    57    1
    57    56    54   am
    58    53    52    1
    59    53    54    1
    60    52    48   am
    61     2     3    1
    62     2     1    1
    63    50    47    1
    64    57    58    1
    65     3     4    2
    66    54    55    2
    67    21    22    2
    68    58    59    2
    69    48    47    1
    70    48    49    2
    71    47    46    1
