@<TRIPOS>MOLECULE
tmp/4lfuA01.pdb
 174 169 0 0 0
SMALL
GASTEIGER

@<TRIPOS>ATOM
      1  N         17.8730   62.7310   44.7880 N.3    39  SER39      -0.1217
      2  CA        18.1520   61.3300   44.9640 C.3    39  SER39       0.1889
      3  C         19.1280   60.8890   43.8660 C.2    39  SER39       0.2288
      4  O         19.0110   61.2960   42.7260 O.2    39  SER39      -0.2866
      5  CB        16.8640   60.4970   44.9520 C.3    39  SER39       0.2089
      6  OG        16.2470   60.4940   43.6810 O.3    39  SER39      -0.2183
      7  N         20.2840   57.4780   42.1590 N.3    41  CYS41      -0.1235
      8  CA        19.9710   56.0350   41.9830 C.3    41  CYS41       0.1677
      9  C         20.7530   55.4360   40.8320 C.2    41  CYS41       0.2270
     10  O         20.8570   56.0330   39.7680 O.2    41  CYS41      -0.2867
     11  CB        18.4960   55.7900   41.6550 C.3    41  CYS41       0.0956
     12  SG        17.3410   56.4420   42.8510 S.3    41  CYS41      -0.0801
     13  N         15.7400   62.5780   50.9710 N.3    59  TYR59      -0.1241
     14  CA        14.3290   62.3980   51.2730 C.3    59  TYR59       0.1605
     15  C         14.1550   61.8640   52.6890 C.2    59  TYR59       0.2264
     16  O         14.9910   61.0650   53.1710 O.2    59  TYR59      -0.2867
     17  CB        13.6950   61.4070   50.3210 C.3    59  TYR59       0.0534
     18  CG        13.3320   61.9460   48.9540 C.ar   59  TYR59      -0.0201
     19  CD1       13.8550   61.3570   47.7990 C.ar   59  TYR59      -0.0009
     20  CD2       12.4470   63.0120   48.8080 C.ar   59  TYR59      -0.0009
     21  CE1       13.5090   61.8210   46.5300 C.ar   59  TYR59       0.0417
     22  CE2       12.0940   63.4800   47.5600 C.ar   59  TYR59       0.0417
     23  CZ        12.6430   62.8840   46.4190 C.ar   59  TYR59       0.1957
     24  OH        12.3180   63.3470   45.1700 O.3    59  TYR59      -0.2866
     25  N          8.0960   54.1120   49.7900 N.3    67  TYR67      -0.1241
     26  CA         8.4100   53.7670   48.3810 C.3    67  TYR67       0.1605
     27  C          8.8680   52.3080   48.2110 C.2    67  TYR67       0.2264
     28  O          8.4900   51.6470   47.2480 O.2    67  TYR67      -0.2867
     29  CB         9.4700   54.7570   47.8750 C.3    67  TYR67       0.0534
     30  CG         9.9560   54.6370   46.4450 C.ar   67  TYR67      -0.0201
     31  CD1       10.8300   53.6170   46.0620 C.ar   67  TYR67      -0.0009
     32  CD2        9.6130   55.5980   45.4920 C.ar   67  TYR67      -0.0009
     33  CE1       11.3220   53.5480   44.7610 C.ar   67  TYR67       0.0417
     34  CE2       10.1110   55.5310   44.1900 C.ar   67  TYR67       0.0417
     35  CZ        10.9490   54.5010   43.8460 C.ar   67  TYR67       0.1957
     36  OH        11.4280   54.4120   42.5860 O.3    67  TYR67      -0.2866
     37  N          8.0690   53.1400   38.6900 N.3    76  ASP76      -0.1239
     38  CA         8.6570   54.4860   38.7160 C.3    76  ASP76       0.1674
     39  C          9.2020   54.9170   37.3490 C.2    76  ASP76       0.2266
     40  O         10.2420   54.4290   36.9130 O.2    76  ASP76      -0.2867
     41  CB         9.7200   54.6030   39.7950 C.3    76  ASP76       0.1410
     42  CG        10.1850   56.0260   40.0110 C.2    76  ASP76       0.3668
     43  OD1       10.9950   56.2590   40.9340 O.co2  76  ASP76      -0.2456
     44  OD2        9.7560   56.9240   39.2690 O.co2  76  ASP76      -0.2456
     45  N         10.4880   57.6630   36.3040 N.3    78  VAL78      -0.1231
     46  CA        11.6230   58.5710   36.3910 C.3    78  VAL78       0.1692
     47  C         12.9590   57.7970   36.2480 C.2    78  VAL78       0.2591
     48  O         14.0200   58.3970   36.0380 O.2    78  VAL78      -0.2718
     49  CB        11.4580   59.3970   37.7160 C.3    78  VAL78       0.0266
     50  CG1       12.7520   59.7830   38.3570 C.3    78  VAL78       0.0020
     51  CG2       10.5110   60.5890   37.4800 C.3    78  VAL78       0.0020
     52  N         12.8740   56.4660   36.3230 N.am   79  LEU79      -0.1980
     53  CA        14.0260   55.5570   36.2850 C.3    79  LEU79       0.1596
     54  C         14.0270   54.6920   35.0170 C.2    79  LEU79       0.2287
     55  O         14.6460   53.6270   34.9580 O.2    79  LEU79      -0.2864
     56  CB        14.0180   54.6750   37.5440 C.3    79  LEU79       0.0297
     57  CG        14.7800   55.0590   38.8180 C.3    79  LEU79       0.0022
     58  CD1       15.2370   56.5290   38.9450 C.3    79  LEU79       0.0001
     59  CD2       14.0220   54.6280   40.0530 C.3    79  LEU79       0.0001
     60  N          9.7500   66.5700   34.9920 N.3    91  TRP91      -0.1227
     61  CA         8.5300   65.8090   35.3890 C.3    91  TRP91       0.1737
     62  C          7.2490   66.5130   34.9510 C.2    91  TRP91       0.2595
     63  O          7.1440   67.7400   35.0210 O.2    91  TRP91      -0.2718
     64  CB         8.4480   65.4970   36.8940 C.3    91  TRP91       0.0564
     65  CG         9.6500   64.7980   37.4670 C.ar   91  TRP91       0.0003
     66  CD1       10.7320   64.2890   36.7760 C.ar   91  TRP91       0.0946
     67  CD2        9.8950   64.5170   38.8540 C.ar   91  TRP91       0.0152
     68  NE1       11.6280   63.7390   37.6570 N.ar   91  TRP91      -0.2442
     69  CE2       11.1440   63.8620   38.9340 C.ar   91  TRP91       0.0810
     70  CE3        9.1890   64.7780   40.0360 C.ar   91  TRP91       0.0012
     71  CZ2       11.6950   63.4420   40.1450 C.ar   91  TRP91       0.0191
     72  CZ3        9.7480   64.3810   41.2520 C.ar   91  TRP91       0.0001
     73  CH2       10.9880   63.7090   41.2900 C.ar   91  TRP91       0.0015
     74  N          6.3050   65.7220   34.4680 N.am   92  ASN92      -0.1960
     75  CA         4.9730   66.2050   34.1090 C.3    92  ASN92       0.1819
     76  C          3.9590   65.1680   34.5230 C.2    92  ASN92       0.2621
     77  O          4.3400   64.0490   34.8470 O.2    92  ASN92      -0.2715
     78  CB         4.8460   66.5270   32.6120 C.3    92  ASN92       0.1195
     79  CG         5.1220   65.3270   31.7160 C.2    92  ASN92       0.2630
     80  OD1        4.4240   64.3110   31.7530 O.2    92  ASN92      -0.2716
     81  ND2        6.1450   65.4520   30.8880 N.am   92  ASN92      -0.0877
     82  N          2.6770   65.5310   34.5040 N.am   93  ASP93      -0.1971
     83  CA         1.6250   64.6040   34.9230 C.3    93  ASP93       0.1709
     84  C          1.4930   63.3830   34.0400 C.2    93  ASP93       0.2293
     85  O          1.3030   62.2850   34.5530 O.2    93  ASP93      -0.2864
     86  CB         0.2860   65.3170   35.0790 C.3    93  ASP93       0.1436
     87  CG         0.2600   66.2180   36.2860 C.2    93  ASP93       0.3671
     88  OD1        1.0160   65.9420   37.2330 O.co2  93  ASP93      -0.2456
     89  OD2       -0.5020   67.2060   36.2920 O.co2  93  ASP93      -0.2456
     90  N          3.2890   60.0070   34.7460 N.3    96  PHE96      -0.1241
     91  CA         2.8490   59.1410   35.8340 C.3    96  PHE96       0.1605
     92  C          1.5170   58.4400   35.6300 C.2    96  PHE96       0.2264
     93  O          0.9820   57.8680   36.5740 O.2    96  PHE96      -0.2867
     94  CB         2.8560   59.9310   37.1480 C.3    96  PHE96       0.0534
     95  CG         4.2390   60.4020   37.5560 C.ar   96  PHE96      -0.0203
     96  CD1        5.0610   59.5920   38.3350 C.ar   96  PHE96      -0.0042
     97  CD2        4.7190   61.6400   37.1370 C.ar   96  PHE96      -0.0042
     98  CE1        6.3410   60.0180   38.6980 C.ar   96  PHE96      -0.0003
     99  CE2        5.9870   62.0760   37.4840 C.ar   96  PHE96      -0.0003
    100  CZ         6.8090   61.2680   38.2760 C.ar   96  PHE96      -0.0000
    101  N          2.1120   56.0550   42.8060 N.3   102  LEU102     -0.1231
    102  CA         3.3290   56.8120   43.1460 C.3   102  LEU102      0.1693
    103  C          3.0590   58.3190   43.1530 C.2   102  LEU102      0.2592
    104  O          3.4750   59.0350   44.0660 O.2   102  LEU102     -0.2718
    105  CB         4.4600   56.4940   42.1390 C.3   102  LEU102      0.0284
    106  CG         5.9540   56.6340   42.4830 C.3   102  LEU102      0.0019
    107  CD1        6.7690   56.9120   41.2070 C.3   102  LEU102      0.0001
    108  CD2        6.2750   57.6570   43.5670 C.3   102  LEU102      0.0001
    109  N          2.3930   58.7820   42.1050 N.am  103  TRP103     -0.1976
    110  CA         2.0300   60.1900   41.9180 C.3   103  TRP103      0.1640
    111  C          1.1130   60.6580   43.0580 C.2   103  TRP103      0.2290
    112  O          1.3110   61.7420   43.5960 O.2   103  TRP103     -0.2864
    113  CB         1.3840   60.3400   40.5290 C.3   103  TRP103      0.0576
    114  CG         0.8430   61.7220   40.0970 C.ar  103  TRP103      0.0006
    115  CD1        1.5350   62.7190   39.4430 C.ar  103  TRP103      0.0946
    116  CD2       -0.5090   62.2030   40.2350 C.ar  103  TRP103      0.0152
    117  NE1        0.7070   63.7880   39.1860 N.ar  103  TRP103     -0.2442
    118  CE2       -0.5490   63.5100   39.6700 C.ar  103  TRP103      0.0810
    119  CE3       -1.6830   61.6660   40.7910 C.ar  103  TRP103      0.0012
    120  CZ2       -1.7300   64.2860   39.6330 C.ar  103  TRP103      0.0191
    121  CZ3       -2.8560   62.4460   40.7720 C.ar  103  TRP103      0.0001
    122  CH2       -2.8620   63.7420   40.1930 C.ar  103  TRP103      0.0015
    123  N          3.1220   60.7010   46.3790 N.3   106  ALA106     -0.1231
    124  CA         4.0600   61.8430   46.3590 C.3   106  ALA106      0.1694
    125  C          3.3820   63.2040   46.5580 C.2   106  ALA106      0.2591
    126  O          3.8390   64.0110   47.3610 O.2   106  ALA106     -0.2718
    127  CB         4.9110   61.8470   45.0670 C.3   106  ALA106      0.0304
    128  N          2.3200   63.4660   45.8060 N.am  107  ARG107     -0.1980
    129  CA         1.5450   64.7030   45.9510 C.3   107  ARG107      0.1597
    130  C          0.8670   64.8510   47.3210 C.2   107  ARG107      0.2287
    131  O          0.7480   65.9780   47.8280 O.2   107  ARG107     -0.2864
    132  CB         0.4880   64.7980   44.8570 C.3   107  ARG107      0.0334
    133  CG         1.0420   65.0280   43.4640 C.3   107  ARG107      0.0492
    134  CD        -0.0840   65.2960   42.5080 C.3   107  ARG107      0.2205
    135  NE        -0.7760   66.5480   42.8280 N.pl3 107  ARG107     -0.0865
    136  CZ        -0.4650   67.7430   42.3230 C.cat 107  ARG107      0.5346
    137  NH1        0.5320   67.8890   41.4440 N.pl3 107  ARG107      0.1354
    138  NH2       -1.1580   68.8040   42.7080 N.pl3 107  ARG107      0.1354
    139  N          5.0330   66.7770   47.5640 N.3   111  LEU111     -0.1231
    140  CA         5.8100   66.9730   46.3250 C.3   111  LEU111      0.1693
    141  C          4.9640   67.5400   45.1780 C.2   111  LEU111      0.2592
    142  O          3.8600   67.0540   44.8950 O.2   111  LEU111     -0.2718
    143  CB         6.4820   65.6710   45.8530 C.3   111  LEU111      0.0284
    144  CG         7.8220   65.1610   46.3910 C.3   111  LEU111      0.0019
    145  CD1        8.2670   63.9750   45.5350 C.3   111  LEU111      0.0001
    146  CD2        8.9090   66.2450   46.4290 C.3   111  LEU111      0.0001
    147  N          5.5180   68.5320   44.4870 N.am  112  ARG112     -0.1966
    148  CA         4.8180   69.1790   43.3620 C.3   112  ARG112      0.1729
    149  C          5.5880   69.1320   42.0300 C.2   112  ARG112      0.2616
    150  O          4.9860   69.0240   40.9800 O.2   112  ARG112     -0.2715
    151  CB         4.4340   70.6410   43.7230 C.3   112  ARG112      0.0348
    152  CG         3.3570   70.7830   44.8590 C.3   112  ARG112      0.0492
    153  CD         1.9910   70.1910   44.4680 C.3   112  ARG112      0.2205
    154  NE         0.9820   70.2870   45.5370 N.pl3 112  ARG112     -0.0865
    155  CZ         0.6520   69.3010   46.3800 C.cat 112  ARG112      0.5346
    156  NH1        1.2470   68.1170   46.3050 N.pl3 112  ARG112      0.1354
    157  NH2       -0.2770   69.4970   47.3170 N.pl3 112  ARG112      0.1354
    158  N          6.9140   69.2170   42.0860 N.am  113  ARG113     -0.1977
    159  CA         7.7400   69.4610   40.9000 C.3   113  ARG113      0.1597
    160  C          9.1000   68.7700   41.0450 C.2   113  ARG113      0.2287
    161  O          9.5960   68.5690   42.1640 O.2   113  ARG113     -0.2864
    162  CB         7.9600   70.9820   40.6780 C.3   113  ARG113      0.0334
    163  CG         6.6950   71.8620   40.4610 C.3   113  ARG113      0.0492
    164  CD         6.0570   71.7000   39.0700 C.3   113  ARG113      0.2205
    165  NE         4.9120   72.6010   38.8760 N.pl3 113  ARG113     -0.0865
    166  CZ         3.6300   72.3180   39.1490 C.cat 113  ARG113      0.5346
    167  NH1        3.2660   71.1420   39.6530 N.pl3 113  ARG113      0.1354
    168  NH2        2.6890   73.2320   38.9290 N.pl3 113  ARG113      0.1354
    169  N         17.9400   62.9890   40.4220 N.3   130  SER130     -0.1217
    170  CA        16.6490   63.6780   40.4930 C.3   130  SER130      0.1889
    171  C         16.7210   64.8140   41.4700 C.2   130  SER130      0.2288
    172  O         17.3290   64.6760   42.5130 O.2   130  SER130     -0.2866
    173  CB        15.5840   62.7330   40.9880 C.3   130  SER130      0.2089
    174  OG        15.1830   61.8610   39.9670 O.3   130  SER130     -0.2183
@<TRIPOS>BOND
     1    81    79   am
     2    79    80    2
     3    79    78    1
     4    78    75    1
     5    84    85    2
     6    84    83    1
     7    75    74    1
     8    75    76    1
     9    74    62   am
    10    82    76   am
    11    82    83    1
    12    76    77    2
    13    90    91    1
    14    83    86    1
    15    62    63    2
    16    62    61    1
    17    55    54    2
    18    60    61    1
    19    54    53    1
    20    86    87    1
    21    61    64    1
    22    92    91    1
    23    92    93    2
    24    91    94    1
    25    48    47    2
    26    47    52   am
    27    47    46    1
    28    53    52    1
    29    53    56    1
    30    87    89   ar
    31    87    88   ar
    32    45    46    1
    33    46    49    1
    34    66    65   ar
    35    66    68   ar
    36    64    65    1
    37    40    39    2
    38    97    99   ar
    39    97    95   ar
    40    94    95    1
    41    39    38    1
    42    65    67   ar
    43    51    49    1
    44    99   100   ar
    45    56    57    1
    46    95    96   ar
    47    68    69   ar
    48    49    50    1
    49   100    98   ar
    50    96    98   ar
    51    37    38    1
    52    38    41    1
    53    57    58    1
    54    57    59    1
    55    67    69   ar
    56    67    70   ar
    57   165   164    1
    58   165   166    2
    59   168   166    1
    60    69    71   ar
    61   164   163    1
    62   166   167    1
    63   117   115   ar
    64   117   118   ar
    65    44    42   ar
    66   115   114   ar
    67   120   118   ar
    68   120   122   ar
    69   118   116   ar
    70    10     9    2
    71    41    42    1
    72   174   173    1
    73    42    43   ar
    74    70    72   ar
    75   114   116   ar
    76   114   113    1
    77    71    73   ar
    78   122   121   ar
    79   116   119   ar
    80   169   170    1
    81   163   162    1
    82   170   173    1
    83   170   171    1
    84   113   110    1
    85   162   159    1
    86   121   119   ar
    87     9     8    1
    88   159   160    1
    89   159   158    1
    90   150   149    2
    91   160   161    2
    92   107   106    1
    93    72    73   ar
    94   137   136    1
    95   171   172    2
    96    11     8    1
    97    11    12    1
    98   110   109    1
    99   110   111    1
   100     8     7    1
   101   149   158   am
   102   149   148    1
   103   109   103   am
   104   105   106    1
   105   105   102    1
   106   136   138    1
   107   136   135    2
   108   106   108    1
   109   134   135    1
   110   134   133    1
   111    36    35    1
   112     4     3    2
   113   101   102    1
   114   111   112    2
   115   102   103    1
   116   103   104    2
   117   148   151    1
   118   148   147    1
   119   133   132    1
   120     6     5    1
   121   151   152    1
   122    35    34   ar
   123    35    33   ar
   124     3     2    1
   125    34    32   ar
   126   153   152    1
   127   153   154    1
   128   147   141   am
   129    33    31   ar
   130     1     2    1
   131   132   129    1
   132   142   141    2
   133     5     2    1
   134   127   124    1
   135    24    23    1
   136   141   140    1
   137    32    30   ar
   138   145   144    1
   139   154   155    2
   140   128   129    1
   141   128   125   am
   142   143   140    1
   143   143   144    1
   144   129   130    1
   145    31    30   ar
   146   156   155    1
   147   140   139    1
   148   124   123    1
   149   124   125    1
   150   155   157    1
   151   144   146    1
   152    23    21   ar
   153    23    22   ar
   154    30    29    1
   155    21    19   ar
   156   125   126    2
   157    28    27    2
   158   130   131    2
   159    22    20   ar
   160    19    18   ar
   161    29    26    1
   162    27    26    1
   163    26    25    1
   164    20    18   ar
   165    18    17    1
   166    17    14    1
   167    13    14    1
   168    14    15    1
   169    15    16    2
