@<TRIPOS>MOLECULE
tmp/4lfuA00.pdb
 166 160 0 0 0
SMALL
GASTEIGER

@<TRIPOS>ATOM
      1  N         17.8730   62.7310   44.7880 N.3    39  SER39      -0.1217
      2  CA        18.1520   61.3300   44.9640 C.3    39  SER39       0.1889
      3  C         19.1280   60.8890   43.8660 C.2    39  SER39       0.2288
      4  O         19.0110   61.2960   42.7260 O.2    39  SER39      -0.2866
      5  CB        16.8640   60.4970   44.9520 C.3    39  SER39       0.2089
      6  OG        16.2470   60.4940   43.6810 O.3    39  SER39      -0.2183
      7  N         20.2840   57.4780   42.1590 N.3    41  CYS41      -0.1235
      8  CA        19.9710   56.0350   41.9830 C.3    41  CYS41       0.1677
      9  C         20.7530   55.4360   40.8320 C.2    41  CYS41       0.2270
     10  O         20.8570   56.0330   39.7680 O.2    41  CYS41      -0.2867
     11  CB        18.4960   55.7900   41.6550 C.3    41  CYS41       0.0956
     12  SG        17.3410   56.4420   42.8510 S.3    41  CYS41      -0.0801
     13  N         19.5700   47.9270   42.4030 N.3    53  VAL53      -0.1245
     14  CA        19.3980   49.3730   42.4040 C.3    53  VAL53       0.1561
     15  C         19.9420   49.9610   43.7030 C.2    53  VAL53       0.2260
     16  O         19.4960   49.6170   44.7850 O.2    53  VAL53      -0.2867
     17  CB        17.9270   49.7840   42.2250 C.3    53  VAL53       0.0252
     18  CG1       17.7780   51.3140   42.2960 C.3    53  VAL53       0.0019
     19  CG2       17.3970   49.2500   40.9050 C.3    53  VAL53       0.0019
     20  N         21.0250   53.4970   45.9130 N.3    55  PHE55      -0.1241
     21  CA        20.6180   54.9020   45.9720 C.3    55  PHE55       0.1605
     22  C         21.2170   55.6890   47.1410 C.2    55  PHE55       0.2264
     23  O         21.7180   55.1250   48.1010 O.2    55  PHE55      -0.2867
     24  CB        19.0880   55.0200   46.0050 C.3    55  PHE55       0.0534
     25  CG        18.4720   54.4770   47.2570 C.ar   55  PHE55      -0.0203
     26  CD1       18.2500   53.1120   47.4020 C.ar   55  PHE55      -0.0042
     27  CD2       18.0940   55.3350   48.2870 C.ar   55  PHE55      -0.0042
     28  CE1       17.6860   52.6160   48.5630 C.ar   55  PHE55      -0.0003
     29  CE2       17.5070   54.8450   49.4520 C.ar   55  PHE55      -0.0003
     30  CZ        17.3010   53.4980   49.5950 C.ar   55  PHE55      -0.0000
     31  N         19.9220   59.5140   49.0400 N.3    57  THR57      -0.1218
     32  CA        18.9380   60.5650   48.9490 C.3    57  THR57       0.1862
     33  C         18.9080   61.3630   50.2440 C.2    57  THR57       0.2287
     34  O         19.3690   60.8680   51.2850 O.2    57  THR57      -0.2866
     35  CB        17.5430   59.9550   48.5570 C.3    57  THR57       0.1770
     36  OG1       16.6260   61.0110   48.2660 O.3    57  THR57      -0.2211
     37  CG2       16.9770   59.1020   49.6530 C.3    57  THR57       0.0375
     38  N         15.7400   62.5780   50.9710 N.3    59  TYR59      -0.1241
     39  CA        14.3290   62.3980   51.2730 C.3    59  TYR59       0.1605
     40  C         14.1550   61.8640   52.6890 C.2    59  TYR59       0.2264
     41  O         14.9910   61.0650   53.1710 O.2    59  TYR59      -0.2867
     42  CB        13.6950   61.4070   50.3210 C.3    59  TYR59       0.0534
     43  CG        13.3320   61.9460   48.9540 C.ar   59  TYR59      -0.0201
     44  CD1       13.8550   61.3570   47.7990 C.ar   59  TYR59      -0.0009
     45  CD2       12.4470   63.0120   48.8080 C.ar   59  TYR59      -0.0009
     46  CE1       13.5090   61.8210   46.5300 C.ar   59  TYR59       0.0417
     47  CE2       12.0940   63.4800   47.5600 C.ar   59  TYR59       0.0417
     48  CZ        12.6430   62.8840   46.4190 C.ar   59  TYR59       0.1957
     49  OH        12.3180   63.3470   45.1700 O.3    59  TYR59      -0.2866
     50  N          9.4710   58.3190   53.7700 N.3    63  TRP63      -0.1227
     51  CA         9.1250   58.3130   52.3330 C.3    63  TRP63       0.1737
     52  C          9.8350   57.2040   51.5610 C.2    63  TRP63       0.2595
     53  O          9.2350   56.5200   50.7390 O.2    63  TRP63      -0.2718
     54  CB         9.4910   59.6520   51.6810 C.3    63  TRP63       0.0564
     55  CG         8.7830   60.8570   52.2240 C.ar   63  TRP63       0.0003
     56  CD1        8.1290   60.9720   53.4280 C.ar   63  TRP63       0.0946
     57  CD2        8.6990   62.1440   51.5950 C.ar   63  TRP63       0.0152
     58  NE1        7.6370   62.2500   53.5760 N.ar   63  TRP63      -0.2442
     59  CE2        7.9710   62.9900   52.4680 C.ar   63  TRP63       0.0810
     60  CE3        9.1670   62.6640   50.3730 C.ar   63  TRP63       0.0012
     61  CZ2        7.7010   64.3400   52.1630 C.ar   63  TRP63       0.0191
     62  CZ3        8.8810   64.0010   50.0570 C.ar   63  TRP63       0.0001
     63  CH2        8.1450   64.8240   50.9540 C.ar   63  TRP63       0.0015
     64  N         11.1250   57.0520   51.8250 N.am   64  VAL64      -0.1980
     65  CA        11.9570   56.0360   51.1920 C.3    64  VAL64       0.1595
     66  C         11.4130   54.6630   51.6010 C.2    64  VAL64       0.2287
     67  O         11.1590   53.7850   50.7740 O.2    64  VAL64      -0.2864
     68  CB        13.4600   56.1940   51.6450 C.3    64  VAL64       0.0276
     69  CG1       14.3040   54.9990   51.2040 C.3    64  VAL64       0.0022
     70  CG2       14.0520   57.4720   51.1280 C.3    64  VAL64       0.0022
     71  N          8.5200   53.9550   52.6220 N.3    66  TYR66      -0.1227
     72  CA         7.1770   53.7970   52.0110 C.3    66  TYR66       0.1736
     73  C          7.2470   53.4100   50.5440 C.2    66  TYR66       0.2595
     74  O          6.5260   52.5230   50.0960 O.2    66  TYR66      -0.2718
     75  CB         6.3610   55.1070   52.1660 C.3    66  TYR66       0.0548
     76  CG         4.8920   55.0170   51.8190 C.ar   66  TYR66      -0.0200
     77  CD1        3.9620   54.4610   52.7190 C.ar   66  TYR66      -0.0009
     78  CD2        4.4270   55.5020   50.6170 C.ar   66  TYR66      -0.0009
     79  CE1        2.5980   54.3940   52.4080 C.ar   66  TYR66       0.0417
     80  CE2        3.0550   55.4330   50.2720 C.ar   66  TYR66       0.0417
     81  CZ         2.1450   54.8780   51.1730 C.ar   66  TYR66       0.1957
     82  OH         0.7990   54.8120   50.8110 O.3    66  TYR66      -0.2866
     83  N          8.0960   54.1120   49.7900 N.am   67  TYR67      -0.1962
     84  CA         8.4100   53.7670   48.3810 C.3    67  TYR67       0.1771
     85  C          8.8680   52.3080   48.2110 C.2    67  TYR67       0.2619
     86  O          8.4900   51.6470   47.2480 O.2    67  TYR67      -0.2715
     87  CB         9.4700   54.7570   47.8750 C.3    67  TYR67       0.0574
     88  CG         9.9560   54.6370   46.4450 C.ar   67  TYR67      -0.0198
     89  CD1       10.8300   53.6170   46.0620 C.ar   67  TYR67      -0.0009
     90  CD2        9.6130   55.5980   45.4920 C.ar   67  TYR67      -0.0009
     91  CE1       11.3220   53.5480   44.7610 C.ar   67  TYR67       0.0417
     92  CE2       10.1110   55.5310   44.1900 C.ar   67  TYR67       0.0417
     93  CZ        10.9490   54.5010   43.8460 C.ar   67  TYR67       0.1957
     94  OH        11.4280   54.4120   42.5860 O.3    67  TYR67      -0.2866
     95  N          9.6680   51.8170   49.1580 N.am   68  GLN68      -0.1977
     96  CA        10.1690   50.4300   49.1640 C.3    68  GLN68       0.1601
     97  C          9.1020   49.3920   49.4750 C.2    68  GLN68       0.2287
     98  O          9.0350   48.3570   48.8070 O.2    68  GLN68      -0.2864
     99  CB        11.3440   50.2930   50.1380 C.3    68  GLN68       0.0394
    100  CG        12.6330   50.9750   49.6390 C.3    68  GLN68       0.0908
    101  CD        13.7440   50.9760   50.6820 C.2    68  GLN68       0.2608
    102  OE1       13.4940   51.1810   51.8810 O.2    68  GLN68      -0.2717
    103  NE2       14.9810   50.7580   50.2340 N.am   68  GLN68      -0.0878
    104  N          7.2100   50.7820   44.5860 N.3    72  PHE72      -0.1227
    105  CA         7.0740   51.8360   43.5940 C.3    72  PHE72       0.1736
    106  C          8.1810   51.7740   42.5700 C.2    72  PHE72       0.2595
    107  O          8.0950   52.4320   41.5620 O.2    72  PHE72      -0.2718
    108  CB         7.0490   53.2300   44.2370 C.3    72  PHE72       0.0547
    109  CG         5.7630   53.5660   44.9620 C.ar   72  PHE72      -0.0202
    110  CD1        4.5620   52.9280   44.6460 C.ar   72  PHE72      -0.0042
    111  CD2        5.7470   54.5640   45.9330 C.ar   72  PHE72      -0.0042
    112  CE1        3.3580   53.2770   45.3110 C.ar   72  PHE72      -0.0003
    113  CE2        4.5520   54.9170   46.6040 C.ar   72  PHE72      -0.0003
    114  CZ         3.3660   54.2620   46.2880 C.ar   72  PHE72      -0.0000
    115  N          9.2330   51.0020   42.8370 N.am   73  LEU73      -0.1980
    116  CA        10.3820   50.9040   41.9110 C.3    73  LEU73       0.1596
    117  C          9.9530   50.2760   40.5820 C.2    73  LEU73       0.2287
    118  O         10.3750   50.7270   39.5080 O.2    73  LEU73      -0.2864
    119  CB        11.5630   50.1420   42.5570 C.3    73  LEU73       0.0297
    120  CG        12.8010   49.8270   41.6950 C.3    73  LEU73       0.0022
    121  CD1       13.5160   51.1120   41.2370 C.3    73  LEU73       0.0001
    122  CD2       13.7780   48.8780   42.4390 C.3    73  LEU73       0.0001
    123  N         12.8740   56.4660   36.3230 N.3    79  LEU79      -0.1245
    124  CA        14.0260   55.5570   36.2850 C.3    79  LEU79       0.1561
    125  C         14.0270   54.6920   35.0170 C.2    79  LEU79       0.2260
    126  O         14.6460   53.6270   34.9580 O.2    79  LEU79      -0.2867
    127  CB        14.0180   54.6750   37.5440 C.3    79  LEU79       0.0270
    128  CG        14.7800   55.0590   38.8180 C.3    79  LEU79       0.0019
    129  CD1       15.2370   56.5290   38.9450 C.3    79  LEU79       0.0001
    130  CD2       14.0220   54.6280   40.0530 C.3    79  LEU79       0.0001
    131  N          2.1120   56.0550   42.8060 N.3   102  LEU102     -0.1245
    132  CA         3.3290   56.8120   43.1460 C.3   102  LEU102      0.1561
    133  C          3.0590   58.3190   43.1530 C.2   102  LEU102      0.2260
    134  O          3.4750   59.0350   44.0660 O.2   102  LEU102     -0.2867
    135  CB         4.4600   56.4940   42.1390 C.3   102  LEU102      0.0270
    136  CG         5.9540   56.6340   42.4830 C.3   102  LEU102      0.0019
    137  CD1        6.7690   56.9120   41.2070 C.3   102  LEU102      0.0001
    138  CD2        6.2750   57.6570   43.5670 C.3   102  LEU102      0.0001
    139  N          0.6680   59.1600   46.2100 N.3   105  ALA105     -0.1231
    140  CA         1.5020   59.1750   47.4170 C.3   105  ALA105      0.1694
    141  C          2.4170   60.3990   47.4700 C.2   105  ALA105      0.2591
    142  O          2.4860   61.0580   48.4870 O.2   105  ALA105     -0.2718
    143  CB         2.3140   57.8880   47.5230 C.3   105  ALA105      0.0304
    144  N          3.1220   60.7010   46.3790 N.am  106  ALA106     -0.1980
    145  CA         4.0600   61.8430   46.3590 C.3   106  ALA106      0.1597
    146  C          3.3820   63.2040   46.5580 C.2   106  ALA106      0.2287
    147  O          3.8390   64.0110   47.3610 O.2   106  ALA106     -0.2864
    148  CB         4.9110   61.8470   45.0670 C.3   106  ALA106      0.0319
    149  N          2.1340   63.8400   50.1050 N.3   109  HIS109     -0.1241
    150  CA         3.1530   64.1580   51.0930 C.3   109  HIS109      0.1621
    151  C          3.7990   65.5090   50.8330 C.2   109  HIS109      0.2264
    152  O          4.6930   65.9540   51.5850 O.2   109  HIS109     -0.2867
    153  CB         4.1910   63.0330   51.1660 C.3   109  HIS109      0.0745
    154  CG         3.6510   61.7760   51.7700 C.ar  109  HIS109      0.0817
    155  ND1        2.8230   60.9160   51.0790 N.ar  109  HIS109     -0.2268
    156  CD2        3.7780   61.2600   53.0150 C.ar  109  HIS109      0.1154
    157  CE1        2.4890   59.9090   51.8630 C.ar  109  HIS109      0.1986
    158  NE2        3.0560   60.0920   53.0420 N.ar  109  HIS109     -0.2212
    159  N          5.0330   66.7770   47.5640 N.3   111  LEU111     -0.1245
    160  CA         5.8100   66.9730   46.3250 C.3   111  LEU111      0.1561
    161  C          4.9640   67.5400   45.1780 C.2   111  LEU111      0.2260
    162  O          3.8600   67.0540   44.8950 O.2   111  LEU111     -0.2867
    163  CB         6.4820   65.6710   45.8530 C.3   111  LEU111      0.0270
    164  CG         7.8220   65.1610   46.3910 C.3   111  LEU111      0.0019
    165  CD1        8.2670   63.9750   45.5350 C.3   111  LEU111      0.0001
    166  CD2        8.9090   66.2450   46.4290 C.3   111  LEU111      0.0001
@<TRIPOS>BOND
     1   126   125    2
     2   125   124    1
     3   124   123    1
     4   124   127    1
     5   127   128    1
     6   128   129    1
     7   128   130    1
     8   118   117    2
     9    10     9    2
    10   117   116    1
    11     9     8    1
    12    19    17    1
    13   137   136    1
    14   121   120    1
    15   107   106    2
    16    11     8    1
    17    11    12    1
    18   120   122    1
    19   120   119    1
    20   116   119    1
    21   116   115    1
    22     8     7    1
    23   135   136    1
    24   135   132    1
    25    17    18    1
    26    17    14    1
    27    13    14    1
    28    14    15    1
    29   136   138    1
    30   106   115   am
    31   106   105    1
    32    94    93    1
    33     4     3    2
    34   131   132    1
    35   132   133    1
    36   133   134    2
    37   105   108    1
    38   105   104    1
    39     6     5    1
    40    15    16    2
    41    93    92   ar
    42    93    91   ar
    43     3     2    1
    44    92    90   ar
    45   108   109    1
    46   110   109   ar
    47   110   112   ar
    48    91    89   ar
    49     1     2    1
    50   162   161    2
    51     5     2    1
    52   109   111   ar
    53   148   145    1
    54    49    48    1
    55   161   160    1
    56   112   114   ar
    57    90    88   ar
    58   165   164    1
    59   163   160    1
    60   163   164    1
    61    20    21    1
    62   111   113   ar
    63    21    24    1
    64    21    22    1
    65    24    25    1
    66    89    88   ar
    67   139   140    1
    68   114   113   ar
    69   160   159    1
    70   145   144    1
    71   145   146    1
    72   144   141   am
    73   164   166    1
    74    48    46   ar
    75    48    47   ar
    76    88    87    1
    77    46    44   ar
    78   146   147    2
    79    22    23    2
    80    86    85    2
    81    25    26   ar
    82    25    27   ar
    83    26    28   ar
    84   140   141    1
    85   140   143    1
    86   141   142    2
    87    47    45   ar
    88    44    43   ar
    89    87    84    1
    90    85    84    1
    91    85    95   am
    92    36    35    1
    93    27    29   ar
    94    84    83    1
    95    35    32    1
    96    35    37    1
    97    28    30   ar
    98    98    97    2
    99    45    43   ar
   100    32    31    1
   101    32    33    1
   102    43    42    1
   103    95    96    1
   104    96    97    1
   105    96    99    1
   106    29    30   ar
   107   100    99    1
   108   100   101    1
   109    83    73   am
   110    62    60   ar
   111    62    63   ar
   112    74    73    2
   113   149   150    1
   114   103   101   am
   115    33    34    2
   116    80    78   ar
   117    80    81   ar
   118    42    39    1
   119    60    57   ar
   120    73    72    1
   121    78    76   ar
   122   101   102    2
   123    53    52    2
   124    67    66    2
   125    82    81    1
   126   151   150    1
   127   151   152    2
   128    63    61   ar
   129    38    39    1
   130   155   154   ar
   131   155   157   ar
   132   150   153    1
   133    70    68    1
   134   153   154    1
   135    81    79   ar
   136    65    66    1
   137    65    68    1
   138    65    64    1
   139    69    68    1
   140    39    40    1
   141    52    64   am
   142    52    51    1
   143    57    55   ar
   144    57    59   ar
   145    54    55    1
   146    54    51    1
   147   154   156   ar
   148    76    75    1
   149    76    77   ar
   150   157   158   ar
   151    72    75    1
   152    72    71    1
   153    61    59   ar
   154    55    56   ar
   155    51    50    1
   156    79    77   ar
   157    59    58   ar
   158    40    41    2
   159   156   158   ar
   160    56    58   ar
