@<TRIPOS>MOLECULE
tmp/4lg0B00.pdb
 82 79 0 0 0
SMALL
GASTEIGER

@<TRIPOS>ATOM
      1  N         71.2380   13.4840   11.3590 N.3     4  GLN4       -0.1245
      2  CA        70.2290   13.9480   12.2780 C.3     4  GLN4        0.1566
      3  C         69.9360   15.4200   11.9830 C.2     4  GLN4        0.2260
      4  O         70.8250   16.1620   11.5620 O.2     4  GLN4       -0.2867
      5  CB        70.6980   13.6970   13.7200 C.3     4  GLN4        0.0367
      6  CG        70.9260   12.2110   13.9930 C.3     4  GLN4        0.0905
      7  CD        71.4760   11.8870   15.3880 C.2     4  GLN4        0.2608
      8  OE1       71.7000   12.7730   16.2260 O.2     4  GLN4       -0.2717
      9  NE2       71.7100   10.5900   15.6350 N.am    4  GLN4       -0.0878
     10  N         69.6880   18.1770   13.6240 N.3     6  TRP6       -0.1241
     11  CA        70.5840   19.2190   14.1470 C.3     6  TRP6        0.1605
     12  C         71.9120   19.2880   13.3470 C.2     6  TRP6        0.2264
     13  O         72.4580   20.3710   13.1160 O.2     6  TRP6       -0.2867
     14  CB        70.8830   18.9870   15.6250 C.3     6  TRP6        0.0550
     15  CG        71.6850   17.7550   15.9300 C.ar    6  TRP6        0.0003
     16  CD1       71.2010   16.5150   16.2600 C.ar    6  TRP6        0.0946
     17  CD2       73.1130   17.6550   16.0140 C.ar    6  TRP6        0.0152
     18  NE1       72.2330   15.6480   16.5100 N.ar    6  TRP6       -0.2442
     19  CE2       73.4200   16.3210   16.3840 C.ar    6  TRP6        0.0810
     20  CE3       74.1560   18.5580   15.8340 C.ar    6  TRP6        0.0012
     21  CZ2       74.7490   15.8630   16.5530 C.ar    6  TRP6        0.0191
     22  CZ3       75.4880   18.0960   16.0040 C.ar    6  TRP6        0.0001
     23  CH2       75.7520   16.7670   16.3680 C.ar    6  TRP6        0.0015
     24  N         68.5510   18.8470   25.5910 N.3    68  ASN68      -0.1225
     25  CA        69.4550   20.0080   25.5920 C.3    68  ASN68       0.1785
     26  C         70.3640   20.1420   24.3690 C.2    68  ASN68       0.2597
     27  O         71.5620   20.4780   24.4930 O.2    68  ASN68      -0.2718
     28  CB        70.2520   20.0630   26.9100 C.3    68  ASN68       0.1169
     29  CG        69.3550   20.3470   28.1200 C.2    68  ASN68       0.2627
     30  OD1       68.7120   21.4010   28.2140 O.2    68  ASN68      -0.2716
     31  ND2       69.2960   19.4050   29.0360 N.am   68  ASN68      -0.0877
     32  N         69.7990   19.9110   23.1800 N.am   69  ILE69      -0.1980
     33  CA        70.5690   20.0570   21.9370 C.3    69  ILE69       0.1595
     34  C         70.3650   21.4310   21.3320 C.2    69  ILE69       0.2287
     35  O         71.3200   22.1060   20.9790 O.2    69  ILE69      -0.2864
     36  CB        70.2480   18.9300   20.9450 C.3    69  ILE69       0.0276
     37  CG1       70.9040   17.6290   21.4150 C.3    69  ILE69       0.0022
     38  CG2       70.7620   19.2420   19.5600 C.3    69  ILE69       0.0022
     39  CD1       70.2780   16.3630   20.8620 C.3    69  ILE69       0.0001
     40  N         72.2590   24.6750   22.2090 N.3    83  VAL83      -0.1231
     41  CA        72.6800   24.7890   23.6320 C.3    83  VAL83       0.1692
     42  C         73.5430   23.6000   24.0490 C.2    83  VAL83       0.2592
     43  O         73.7410   23.3450   25.2310 O.2    83  VAL83      -0.2718
     44  CB        71.4890   24.8900   24.6130 C.3    83  VAL83       0.0266
     45  CG1       70.6390   26.1030   24.3150 C.3    83  VAL83       0.0020
     46  CG2       70.6260   23.6440   24.5660 C.3    83  VAL83       0.0020
     47  N         74.0150   22.8510   23.0630 N.am   84  CYS84      -0.1956
     48  CA        75.0130   21.8330   23.2740 C.3    84  CYS84       0.1843
     49  C         76.3630   22.5060   23.0630 C.2    84  CYS84       0.2625
     50  O         76.4150   23.7060   22.7790 O.2    84  CYS84      -0.2714
     51  CB        74.7780   20.6610   22.3180 C.3    84  CYS84       0.0997
     52  SG        74.6700   21.1130   20.5670 S.3    84  CYS84      -0.0797
     53  N         77.4450   21.7470   23.2610 N.am   85  ASP85      -0.1957
     54  CA        78.8220   22.2660   23.1840 C.3    85  ASP85       0.1840
     55  C         79.3260   22.2480   21.7400 C.2    85  ASP85       0.2621
     56  O         80.0840   21.3480   21.3250 O.2    85  ASP85      -0.2715
     57  CB        79.7600   21.4330   24.0750 C.3    85  ASP85       0.1450
     58  CG        81.1620   22.0250   24.1760 C.2    85  ASP85       0.3671
     59  OD1       81.4530   23.0270   23.4910 O.co2  85  ASP85      -0.2456
     60  OD2       81.9860   21.4790   24.9450 O.co2  85  ASP85      -0.2456
     61  N         78.9090   23.2380   20.9660 N.am   86  LEU86      -0.1977
     62  CA        79.3600   23.3000   19.5860 C.3    86  LEU86       0.1596
     63  C         80.8440   23.6360   19.4840 C.2    86  LEU86       0.2287
     64  O         81.5270   23.1230   18.6060 O.2    86  LEU86      -0.2864
     65  CB        78.5470   24.3030   18.7820 C.3    86  LEU86       0.0297
     66  CG        77.1620   23.8430   18.3520 C.3    86  LEU86       0.0022
     67  CD1       76.5520   24.9440   17.5060 C.3    86  LEU86       0.0001
     68  CD2       77.2410   22.5280   17.5810 C.3    86  LEU86       0.0001
     69  N         83.3970   22.5770   20.9480 N.3    88  SER88      -0.1202
     70  CA        84.2250   21.3550   20.9140 C.3    88  SER88       0.2020
     71  C         84.1110   20.5590   19.6140 C.2    88  SER88       0.2618
     72  O         85.0710   19.9930   19.1470 O.2    88  SER88      -0.2717
     73  CB        83.8660   20.4570   22.0910 C.3    88  SER88       0.2103
     74  OG        83.8550   21.2350   23.2730 O.3    88  SER88      -0.2182
     75  N         82.9220   20.5080   19.0490 N.am   89  LEU89      -0.1979
     76  CA        82.6660   19.7450   17.8380 C.3    89  LEU89       0.1596
     77  C         83.2370   20.4360   16.6170 C.2    89  LEU89       0.2287
     78  O         83.7820   19.7730   15.7310 O.2    89  LEU89      -0.2864
     79  CB        81.1420   19.5830   17.6560 C.3    89  LEU89       0.0297
     80  CG        80.5760   18.8830   16.4110 C.3    89  LEU89       0.0022
     81  CD1       81.1670   17.4880   16.2290 C.3    89  LEU89       0.0001
     82  CD2       79.0510   18.8190   16.5290 C.3    89  LEU89       0.0001
@<TRIPOS>BOND
     1     1     2    1
     2     4     3    2
     3     3     2    1
     4     2     5    1
     5    13    12    2
     6    12    11    1
     7    10    11    1
     8     5     6    1
     9     6     7    1
    10    11    14    1
    11     7     9   am
    12     7     8    2
    13    14    15    1
    14    78    77    2
    15    20    22   ar
    16    20    17   ar
    17    15    17   ar
    18    15    16   ar
    19    22    23   ar
    20    17    19   ar
    21    81    80    1
    22    16    18   ar
    23    23    21   ar
    24    19    18   ar
    25    19    21   ar
    26    80    82    1
    27    80    79    1
    28    77    76    1
    29    67    66    1
    30    68    66    1
    31    79    76    1
    32    76    75    1
    33    66    65    1
    34    64    63    2
    35    65    62    1
    36    75    71   am
    37    72    71    2
    38    63    62    1
    39    38    36    1
    40    62    61    1
    41    71    70    1
    42    52    51    1
    43    39    37    1
    44    70    69    1
    45    70    73    1
    46    36    37    1
    47    36    33    1
    48    61    55   am
    49    35    34    2
    50    56    55    2
    51    34    33    1
    52    55    54    1
    53    33    32    1
    54    73    74    1
    55    40    41    1
    56    51    48    1
    57    50    49    2
    58    49    53   am
    59    49    48    1
    60    47    48    1
    61    47    42   am
    62    32    26   am
    63    54    53    1
    64    54    57    1
    65    59    58   ar
    66    41    42    1
    67    41    44    1
    68    42    43    2
    69    57    58    1
    70    58    60   ar
    71    45    44    1
    72    26    27    2
    73    26    25    1
    74    46    44    1
    75    24    25    1
    76    25    28    1
    77    28    29    1
    78    29    30    2
    79    29    31   am
