@<TRIPOS>MOLECULE
tmp/4lg1A00.pdb
 192 186 0 0 0
SMALL
GASTEIGER

@<TRIPOS>ATOM
      1  N          1.3230   -3.7040   34.5130 N.3    30  CYS30      -0.1221
      2  CA         0.9580   -3.9850   33.1190 C.3    30  CYS30       0.1808
      3  C          2.1940   -3.7790   32.3010 C.2    30  CYS30       0.2601
      4  O          2.7600   -2.7160   32.3480 O.2    30  CYS30      -0.2717
      5  CB        -0.1300   -3.0370   32.6400 C.3    30  CYS30       0.0970
      6  SG        -0.7340   -3.4770   30.9850 S.3    30  CYS30      -0.0800
      7  N          2.6390   -4.7730   31.5490 N.am   31  VAL31      -0.1965
      8  CA         3.8600   -4.5570   30.7800 C.3    31  VAL31       0.1727
      9  C          3.5330   -3.7510   29.5280 C.2    31  VAL31       0.2616
     10  O          2.3840   -3.7550   29.0890 O.2    31  VAL31      -0.2715
     11  CB         4.5600   -5.8750   30.3730 C.3    31  VAL31       0.0290
     12  CG1        4.7560   -6.7510   31.5750 C.3    31  VAL31       0.0023
     13  CG2        3.7620   -6.6250   29.3400 C.3    31  VAL31       0.0023
     14  N          4.5350   -3.0680   28.9880 N.am   32  VAL32      -0.1963
     15  CA         4.4800   -2.5760   27.6190 C.3    32  VAL32       0.1727
     16  C          4.7710   -3.7850   26.7210 C.2    32  VAL32       0.2616
     17  O          5.9030   -4.2220   26.6250 O.2    32  VAL32      -0.2715
     18  CB         5.5090   -1.4740   27.3470 C.3    32  VAL32       0.0290
     19  CG1        5.4370   -1.0190   25.8870 C.3    32  VAL32       0.0023
     20  CG2        5.3030   -0.2710   28.2760 C.3    32  VAL32       0.0023
     21  N          3.7440   -4.3430   26.0990 N.am   33  TRP33      -0.1974
     22  CA         3.9190   -5.5300   25.2580 C.3    33  TRP33       0.1640
     23  C          4.7010   -5.2300   23.9700 C.2    33  TRP33       0.2290
     24  O          4.7060   -4.0850   23.4650 O.2    33  TRP33      -0.2864
     25  CB         2.5540   -6.1580   24.9680 C.3    33  TRP33       0.0576
     26  CG         1.9400   -6.7770   26.2160 C.ar   33  TRP33       0.0006
     27  CD1        1.2080   -6.1470   27.1820 C.ar   33  TRP33       0.0946
     28  CD2        2.0800   -8.1380   26.6480 C.ar   33  TRP33       0.0152
     29  NE1        0.8580   -7.0340   28.1680 N.ar   33  TRP33      -0.2442
     30  CE2        1.3710   -8.2670   27.8600 C.ar   33  TRP33       0.0810
     31  CE3        2.6960   -9.2670   26.1000 C.ar   33  TRP33       0.0012
     32  CZ2        1.2840   -9.4730   28.5530 C.ar   33  TRP33       0.0191
     33  CZ3        2.6150  -10.4760   26.8000 C.ar   33  TRP33       0.0001
     34  CH2        1.9020  -10.5610   28.0110 C.ar   33  TRP33       0.0015
     35  N          2.5970   -3.5580   21.2950 N.3    36  ALA36      -0.1245
     36  CA         2.3800   -2.1110   21.4650 C.3    36  ALA36       0.1562
     37  C          3.5660   -1.3260   20.9180 C.2    36  ALA36       0.2260
     38  O          3.4060   -0.2880   20.2920 O.2    36  ALA36      -0.2867
     39  CB         2.1250   -1.7590   22.9210 C.3    36  ALA36       0.0290
     40  N         -8.2880    3.9950   21.7370 N.3    63  GLU63      -0.1245
     41  CA        -7.5610    2.7610   21.9620 C.3    63  GLU63       0.1567
     42  C         -8.3390    1.8530   22.8950 C.2    63  GLU63       0.2260
     43  O         -8.7650    2.2840   23.9540 O.2    63  GLU63      -0.2867
     44  CB        -6.1610    3.0290   22.5060 C.3    63  GLU63       0.0388
     45  CG        -5.3800    1.7320   22.6840 C.3    63  GLU63       0.1160
     46  CD        -3.9630    1.8980   23.1960 C.2    63  GLU63       0.3649
     47  OE1       -3.5940    2.9380   23.7950 O.co2  63  GLU63      -0.2457
     48  OE2       -3.1940    0.9390   22.9740 O.co2  63  GLU63      -0.2457
     49  N         -8.2090   -1.7010   25.2260 N.3    65  GLY65      -0.1210
     50  CA        -7.1960   -2.4230   25.9850 C.3    65  GLY65       0.1956
     51  C         -5.8420   -1.7430   26.0370 C.2    65  GLY65       0.2613
     52  O         -4.8100   -2.4090   25.8820 O.2    65  GLY65      -0.2717
     53  N         -5.8370   -0.4370   26.3090 N.am   66  SER66      -0.1938
     54  CA        -4.6130    0.3920   26.2980 C.3    66  SER66       0.2055
     55  C         -3.4930   -0.0180   27.2610 C.2    66  SER66       0.2644
     56  O         -2.3010    0.2100   26.9710 O.2    66  SER66      -0.2714
     57  CB        -4.9150    1.8630   26.5850 C.3    66  SER66       0.2130
     58  OG        -5.7430    2.4530   25.6040 O.3    66  SER66      -0.2179
     59  N         -3.8650   -0.6020   28.3890 N.am   67  GLY67      -0.1939
     60  CA        -2.8800   -1.0580   29.3900 C.3    67  GLY67       0.2014
     61  C         -2.0830    0.1010   29.9470 C.2    67  GLY67       0.2639
     62  O         -2.6200    0.9120   30.6770 O.2    67  GLY67      -0.2714
     63  N         -0.8180    0.2210   29.5470 N.am   68  THR68      -0.1950
     64  CA        -0.0010    1.3370   29.9580 C.3    68  THR68       0.1897
     65  C         -0.3980    2.6230   29.2280 C.2    68  THR68       0.2313
     66  O         -0.0740    3.7280   29.6900 O.2    68  THR68      -0.2863
     67  CB         1.4880    1.1060   29.6800 C.3    68  THR68       0.1794
     68  OG1        1.6840    0.8730   28.2830 O.3    68  THR68      -0.2208
     69  CG2        2.0270   -0.0740   30.4880 C.3    68  THR68       0.0378
     70  N          0.5950    3.0160   26.0440 N.3    70  ALA70      -0.1245
     71  CA         1.6740    3.2400   25.1090 C.3    70  ALA70       0.1562
     72  C          1.2070    3.7090   23.7210 C.2    70  ALA70       0.2260
     73  O          1.6540    4.7420   23.2270 O.2    70  ALA70      -0.2867
     74  CB         2.5080    1.9820   24.9700 C.3    70  ALA70       0.0290
     75  N         -9.5210    1.0910   29.0350 N.3    86  ASP86      -0.1225
     76  CA        -9.2350   -0.2140   29.5900 C.3    86  ASP86       0.1805
     77  C        -10.2130   -0.4150   30.7570 C.2    86  ASP86       0.2597
     78  O        -11.1930    0.3330   30.9090 O.2    86  ASP86      -0.2718
     79  CB        -7.7810   -0.2680   30.0710 C.3    86  ASP86       0.1424
     80  CG        -7.1980   -1.6820   30.0910 C.2    86  ASP86       0.3668
     81  OD1       -6.2080   -1.9070   29.3710 O.co2  86  ASP86      -0.2456
     82  OD2       -7.6970   -2.5690   30.8470 O.co2  86  ASP86      -0.2456
     83  N         -9.9490   -1.4300   31.5690 N.am   87  LEU87      -0.1979
     84  CA       -10.7360   -1.6900   32.7740 C.3    87  LEU87       0.1596
     85  C        -10.5350   -0.6100   33.8340 C.2    87  LEU87       0.2287
     86  O         -9.5410    0.1050   33.8430 O.2    87  LEU87      -0.2864
     87  CB       -10.3460   -3.0600   33.3610 C.3    87  LEU87       0.0297
     88  CG       -10.5220   -4.2600   32.4190 C.3    87  LEU87       0.0022
     89  CD1       -9.8630   -5.5310   32.9620 C.3    87  LEU87       0.0001
     90  CD2      -11.9980   -4.4870   32.1470 C.3    87  LEU87       0.0001
     91  N         -7.0520   -0.2970   35.4910 N.3    90  LEU90      -0.1245
     92  CA        -5.9060    0.3100   34.8140 C.3    90  LEU90       0.1561
     93  C         -5.9710    1.8320   34.7230 C.2    90  LEU90       0.2260
     94  O         -5.0620    2.4280   34.1800 O.2    90  LEU90      -0.2867
     95  CB        -5.7690   -0.2530   33.3840 C.3    90  LEU90       0.0270
     96  CG        -4.9480   -1.5000   33.1450 C.3    90  LEU90       0.0019
     97  CD1       -3.4930   -1.3070   33.5600 C.3    90  LEU90       0.0001
     98  CD2       -5.5960   -2.6790   33.8430 C.3    90  LEU90       0.0001
     99  N        -13.6210    1.4480   29.6150 N.3   114  LEU114     -0.1231
    100  CA       -14.4510    0.8190   28.5980 C.3   114  LEU114      0.1693
    101  C        -14.2430   -0.6770   28.7070 C.2   114  LEU114      0.2592
    102  O        -13.2130   -1.2130   28.2670 O.2   114  LEU114     -0.2718
    103  CB       -14.1010    1.3620   27.2010 C.3   114  LEU114      0.0284
    104  CG       -15.1370    1.0960   26.1090 C.3   114  LEU114      0.0019
    105  CD1      -14.7680    1.8340   24.8240 C.3   114  LEU114      0.0001
    106  CD2      -15.2860   -0.3780   25.8180 C.3   114  LEU114      0.0001
    107  N        -15.1990   -1.3500   29.3420 N.am  115  LYS115     -0.1966
    108  CA       -15.1520   -2.7940   29.4800 C.3   115  LYS115      0.1728
    109  C        -15.8390   -3.3920   28.2700 C.2   115  LYS115      0.2616
    110  O        -16.9520   -2.9860   27.9330 O.2   115  LYS115     -0.2715
    111  CB       -15.8410   -3.2560   30.7660 C.3   115  LYS115      0.0311
    112  CG       -15.7910   -4.7550   30.9440 C.3   115  LYS115      0.0038
    113  CD       -16.0440   -5.1570   32.3910 C.3   115  LYS115      0.0206
    114  CE       -15.8900   -6.6600   32.5460 C.3   115  LYS115      0.1093
    115  NZ       -16.8710   -7.3780   31.6980 N.3   115  LYS115     -0.1314
    116  N        -15.1670   -4.3330   27.6100 N.am  116  TRP116     -0.1974
    117  CA       -15.6280   -4.8200   26.3090 C.3   116  TRP116      0.1640
    118  C        -16.9710   -5.4850   26.4780 C.2   116  TRP116      0.2290
    119  O        -17.1740   -6.2340   27.4260 O.2   116  TRP116     -0.2864
    120  CB       -14.6330   -5.7960   25.6680 C.3   116  TRP116      0.0576
    121  CG       -13.2580   -5.2300   25.5060 C.ar  116  TRP116      0.0006
    122  CD1      -12.9250   -3.9080   25.4330 C.ar  116  TRP116      0.0946
    123  CD2      -12.0340   -5.9580   25.4050 C.ar  116  TRP116      0.0152
    124  NE1      -11.5700   -3.7790   25.2920 N.ar  116  TRP116     -0.2442
    125  CE2      -10.9970   -5.0140   25.2850 C.ar  116  TRP116      0.0810
    126  CE3      -11.7090   -7.3140   25.4180 C.ar  116  TRP116      0.0012
    127  CZ2       -9.6640   -5.3750   25.1540 C.ar  116  TRP116      0.0191
    128  CZ3      -10.3790   -7.6770   25.2920 C.ar  116  TRP116      0.0001
    129  CH2       -9.3690   -6.7080   25.1620 C.ar  116  TRP116      0.0015
    130  N         -3.6400   -3.1820   20.5060 N.3   132  ALA132     -0.1231
    131  CA        -2.3830   -3.9330   20.5770 C.3   132  ALA132      0.1694
    132  C         -2.5340   -5.0880   21.5680 C.2   132  ALA132      0.2592
    133  O         -2.9100   -4.8790   22.7220 O.2   132  ALA132     -0.2718
    134  CB        -1.2330   -2.9990   20.9730 C.3   132  ALA132      0.0304
    135  N         -2.2480   -6.3020   21.0950 N.am  133  ASP133     -0.1960
    136  CA        -2.3530   -7.5450   21.8670 C.3   133  ASP133      0.1840
    137  C         -3.6720   -7.7120   22.6120 C.2   133  ASP133      0.2622
    138  O         -3.6890   -8.1100   23.7700 O.2   133  ASP133     -0.2715
    139  CB        -1.1460   -7.6980   22.8030 C.3   133  ASP133      0.1450
    140  CG        -0.0760   -8.6360   22.2560 C.2   133  ASP133      0.3671
    141  OD1       -0.2930   -9.3110   21.2240 O.co2 133  ASP133     -0.2456
    142  OD2        0.9990   -8.7240   22.8860 O.co2 133  ASP133     -0.2456
    143  N         -4.7860   -7.4560   21.9280 N.am  134  CYS134     -0.1968
    144  CA        -6.1060   -7.6210   22.5370 C.3   134  CYS134      0.1712
    145  C         -6.8120   -8.9380   22.1710 C.2   134  CYS134      0.2296
    146  O         -7.9960   -9.0980   22.4690 O.2   134  CYS134     -0.2864
    147  CB        -7.0070   -6.4610   22.1260 C.3   134  CYS134      0.0983
    148  SG        -6.5650   -4.9080   22.9330 S.3   134  CYS134     -0.0798
    149  N         -6.4640  -12.6080   22.9090 N.3   136  TYR136     -0.1227
    150  CA        -5.8390  -13.6670   23.6800 C.3   136  TYR136      0.1736
    151  C         -6.7750  -14.4510   24.5970 C.2   136  TYR136      0.2595
    152  O         -6.3230  -15.4180   25.2200 O.2   136  TYR136     -0.2718
    153  CB        -4.6680  -13.1060   24.4930 C.3   136  TYR136      0.0548
    154  CG        -5.0580  -12.1410   25.5900 C.ar  136  TYR136     -0.0200
    155  CD1       -5.5020  -10.8550   25.2940 C.ar  136  TYR136     -0.0009
    156  CD2       -4.9570  -12.5060   26.9220 C.ar  136  TYR136     -0.0009
    157  CE1       -5.8570   -9.9710   26.2970 C.ar  136  TYR136      0.0417
    158  CE2       -5.3040  -11.6290   27.9320 C.ar  136  TYR136      0.0417
    159  CZ        -5.7490  -10.3620   27.6140 C.ar  136  TYR136      0.1957
    160  OH        -6.0870   -9.5040   28.6260 O.3   136  TYR136     -0.2866
    161  N         -8.0580  -14.0870   24.6840 N.am  137  TYR137     -0.1976
    162  CA        -8.9780  -14.8760   25.5590 C.3   137  TYR137      0.1639
    163  C        -10.4680  -14.6490   25.2450 C.2   137  TYR137      0.2290
    164  O        -10.7930  -13.8070   24.4150 O.2   137  TYR137     -0.2864
    165  CB        -8.6780  -14.6900   27.0560 C.3   137  TYR137      0.0560
    166  CG        -9.2220  -13.4390   27.6930 C.ar  137  TYR137     -0.0198
    167  CD1      -10.1440  -13.5240   28.7460 C.ar  137  TYR137     -0.0009
    168  CD2       -8.8080  -12.1670   27.2690 C.ar  137  TYR137     -0.0009
    169  CE1      -10.6430  -12.3830   29.3560 C.ar  137  TYR137      0.0417
    170  CE2       -9.2990  -11.0170   27.8770 C.ar  137  TYR137      0.0417
    171  CZ       -10.2140  -11.1240   28.9240 C.ar  137  TYR137      0.1957
    172  OH       -10.7220   -9.9880   29.5360 O.3   137  TYR137     -0.2866
    173  N        -13.0630  -12.9920   26.2750 N.3   139  GLU139     -0.1245
    174  CA       -13.5410  -11.6100   26.0990 C.3   139  GLU139      0.1567
    175  C        -13.0780  -10.9740   24.7780 C.2   139  GLU139      0.2260
    176  O        -13.7900  -10.1380   24.2140 O.2   139  GLU139     -0.2867
    177  CB       -13.1020  -10.7240   27.2710 C.3   139  GLU139      0.0388
    178  CG       -13.6480  -11.1580   28.6270 C.3   139  GLU139      0.1160
    179  CD       -15.1710  -11.2250   28.6710 C.2   139  GLU139      0.3649
    180  OE1      -15.7210  -12.3510   28.6330 O.co2 139  GLU139     -0.2457
    181  OE2      -15.8170  -10.1590   28.7240 O.co2 139  GLU139     -0.2457
    182  N          0.8140  -16.3000   19.1840 N.3   165  ARG165     -0.1245
    183  CA         1.2000  -17.2410   20.2240 C.3   165  ARG165      0.1563
    184  C          0.7710  -18.6450   19.8060 C.2   165  ARG165      0.2260
    185  O         -0.3700  -18.8470   19.3910 O.2   165  ARG165     -0.2867
    186  CB         0.5350  -16.8600   21.5410 C.3   165  ARG165      0.0307
    187  CG         1.0400  -15.5460   22.1290 C.3   165  ARG165      0.0489
    188  CD         0.0130  -14.8880   23.0400 C.3   165  ARG165      0.2205
    189  NE         0.5690  -13.7050   23.6920 N.pl3 165  ARG165     -0.0865
    190  CZ         0.5430  -12.4720   23.1950 C.cat 165  ARG165      0.5346
    191  NH1       -0.0290  -12.2250   22.0300 N.pl3 165  ARG165      0.1354
    192  NH2        1.0890  -11.4790   23.8840 N.pl3 165  ARG165      0.1354
@<TRIPOS>BOND
     1   182   183    1
     2   185   184    2
     3   184   183    1
     4   183   186    1
     5    38    37    2
     6   130   131    1
     7   131   134    1
     8   131   132    1
     9    37    36    1
    10   135   132   am
    11   135   136    1
    12   141   140   ar
    13    35    36    1
    14    36    39    1
    15   186   187    1
    16   132   133    2
    17    40    41    1
    18   136   137    1
    19   136   139    1
    20   143   144    1
    21   143   137   am
    22    41    44    1
    23    41    42    1
    24   191   190    1
    25   147   144    1
    26   147   148    1
    27   187   188    1
    28   145   146    2
    29   145   144    1
    30   140   139    1
    31   140   142   ar
    32    44    45    1
    33   137   138    2
    34    45    46    1
    35    42    43    2
    36   149   150    1
    37    48    46   ar
    38   188   189    1
    39   190   189    2
    40   190   192    1
    41    46    47   ar
    42    73    72    2
    43    24    23    2
    44   150   153    1
    45   150   151    1
    46    72    71    1
    47    23    22    1
    48   176   175    2
    49   164   163    2
    50   153   154    1
    51   151   161   am
    52   151   152    2
    53   161   162    1
    54   175   174    1
    55   105   104    1
    56    25    22    1
    57    25    26    1
    58    74    71    1
    59    71    70    1
    60   127   129   ar
    61   127   125   ar
    62   129   128   ar
    63    49    50    1
    64   163   162    1
    65    22    21    1
    66   125   124   ar
    67   125   123   ar
    68   124   122   ar
    69   128   126   ar
    70   155   154   ar
    71   155   157   ar
    72   123   126   ar
    73   123   121   ar
    74   122   121   ar
    75   121   120    1
    76   162   165    1
    77   154   156   ar
    78    58    57    1
    79   120   117    1
    80   106   104    1
    81    52    51    2
    82    19    18    1
    83    50    51    1
    84    51    53   am
    85   174   173    1
    86   174   177    1
    87    21    16   am
    88    31    28   ar
    89    31    33   ar
    90   104   103    1
    91    26    28   ar
    92    26    27   ar
    93   157   159   ar
    94    54    53    1
    95    54    57    1
    96    54    55    1
    97   117   118    1
    98   117   116    1
    99   118   119    2
   100    17    16    2
   101    28    30   ar
   102    16    15    1
   103    33    34   ar
   104   156   158   ar
   105    56    55    2
   106   165   166    1
   107    27    29   ar
   108   103   100    1
   109    55    59   am
   110   168   166   ar
   111   168   170   ar
   112   177   178    1
   113    18    15    1
   114    18    20    1
   115   116   109   am
   116   159   158   ar
   117   159   160    1
   118    15    14    1
   119   166   167   ar
   120    30    29   ar
   121    30    32   ar
   122   170   171   ar
   123   110   109    2
   124    34    32   ar
   125   102   101    2
   126   109   108    1
   127    68    67    1
   128    59    60    1
   129   100   101    1
   130   100    99    1
   131   178   179    1
   132   180   179   ar
   133   179   181   ar
   134   101   107   am
   135   167   169   ar
   136   171   169   ar
   137   171   172    1
   138    14     9   am
   139    75    76    1
   140    10     9    2
   141    65    66    2
   142    65    64    1
   143    13    11    1
   144   107   108    1
   145    81    80   ar
   146    60    61    1
   147   108   111    1
   148     9     8    1
   149    63    61   am
   150    63    64    1
   151    76    79    1
   152    76    77    1
   153    67    64    1
   154    67    69    1
   155    61    62    2
   156    79    80    1
   157    80    82   ar
   158    11     8    1
   159    11    12    1
   160    77    78    2
   161    77    83   am
   162   111   112    1
   163     8     7    1
   164   112   113    1
   165     6     5    1
   166     7     3   am
   167    83    84    1
   168   115   114    1
   169    90    88    1
   170     3     4    2
   171     3     2    1
   172   113   114    1
   173    88    89    1
   174    88    87    1
   175     5     2    1
   176    84    87    1
   177    84    85    1
   178     2     1    1
   179    96    95    1
   180    96    97    1
   181    96    98    1
   182    95    92    1
   183    85    86    2
   184    94    93    2
   185    93    92    1
   186    92    91    1
