@<TRIPOS>MOLECULE
tmp/4lg6A00.pdb
 220 211 0 0 0
SMALL
GASTEIGER

@<TRIPOS>ATOM
      1  N         20.3780    7.4990   19.9270 N.3    32  ASP32      -0.1225
      2  CA        21.7370    7.5670   19.3490 C.3    32  ASP32       0.1805
      3  C         21.8130    8.5970   18.1880 C.2    32  ASP32       0.2598
      4  O         20.8660    9.3760   17.9660 O.2    32  ASP32      -0.2718
      5  CB        22.2080    6.1540   18.9320 C.3    32  ASP32       0.1424
      6  CG        21.4760    5.5860   17.6770 C.2    32  ASP32       0.3668
      7  OD1       20.7140    6.2830   16.9770 O.co2  32  ASP32      -0.2456
      8  OD2       21.6650    4.3840   17.4210 O.co2  32  ASP32      -0.2456
      9  N         22.9340    8.5920   17.4570 N.am   33  GLU33      -0.1965
     10  CA        23.1690    9.5160   16.3050 C.3    33  GLU33       0.1733
     11  C         22.0810    9.5100   15.2070 C.2    33  GLU33       0.2616
     12  O         21.8700   10.5310   14.4830 O.2    33  GLU33      -0.2715
     13  CB        24.5260    9.1990   15.6540 C.3    33  GLU33       0.0429
     14  CG        25.6730    9.3810   16.6350 C.3    33  GLU33       0.1163
     15  CD        26.0710    8.0490   17.2430 C.2    33  GLU33       0.3649
     16  OE1       25.4280    7.0100   16.9700 O.co2  33  GLU33      -0.2457
     17  OE2       27.0630    8.0420   18.0020 O.co2  33  GLU33      -0.2457
     18  N         21.4130    8.3620   15.0630 N.am   34  GLU34      -0.1977
     19  CA        20.4150    8.1630   14.0190 C.3    34  GLU34       0.1602
     20  C         18.9720    8.2390   14.5380 C.2    34  GLU34       0.2287
     21  O         18.0120    7.8870   13.8040 O.2    34  GLU34      -0.2864
     22  CB        20.6440    6.8010   13.3730 C.3    34  GLU34       0.0415
     23  CG        21.9830    6.6650   12.6460 C.3    34  GLU34       0.1163
     24  CD        21.8930    7.0450   11.1780 C.2    34  GLU34       0.3649
     25  OE1       20.9730    6.5450   10.4760 O.co2  34  GLU34      -0.2457
     26  OE2       22.7430    7.8400   10.7240 O.co2  34  GLU34      -0.2457
     27  N         17.7320    6.4530   16.9490 N.3    36  PHE36      -0.1241
     28  CA        17.3030    5.1210   17.4280 C.3    36  PHE36       0.1605
     29  C         17.3220    5.0040   18.9660 C.2    36  PHE36       0.2264
     30  O         18.3010    5.3290   19.6180 O.2    36  PHE36      -0.2867
     31  CB        18.1670    4.0140   16.8160 C.3    36  PHE36       0.0534
     32  CG        17.8260    3.6860   15.3840 C.ar   36  PHE36      -0.0203
     33  CD1       17.5150    4.6910   14.4660 C.ar   36  PHE36      -0.0042
     34  CD2       17.8340    2.3620   14.9480 C.ar   36  PHE36      -0.0042
     35  CE1       17.2150    4.3920   13.1350 C.ar   36  PHE36      -0.0003
     36  CE2       17.5320    2.0560   13.6220 C.ar   36  PHE36      -0.0003
     37  CZ        17.2320    3.0670   12.7080 C.ar   36  PHE36      -0.0000
     38  N         14.2170    0.4150   19.7810 N.3    40  MET40      -0.1230
     39  CA        14.3740    0.1600   18.3470 C.3    40  MET40       0.1702
     40  C         15.5170   -0.8410   18.1280 C.2    40  MET40       0.2592
     41  O         15.3980   -1.7210   17.2810 O.2    40  MET40      -0.2718
     42  CB        14.6200    1.4540   17.5560 C.3    40  MET40       0.0401
     43  CG        13.3500    2.3020   17.3950 C.3    40  MET40       0.0596
     44  SD        13.7120    4.0420   16.9350 S.3    40  MET40      -0.1393
     45  CE        14.3560    3.8210   15.3090 C.3    40  MET40       0.0692
     46  N         16.6220   -0.6950   18.8540 N.am   41  TRP41      -0.1976
     47  CA        17.7220   -1.6740   18.6910 C.3    41  TRP41       0.1640
     48  C         17.2880   -3.1000   19.0710 C.2    41  TRP41       0.2290
     49  O         17.6690   -4.1110   18.4140 O.2    41  TRP41      -0.2864
     50  CB        18.9490   -1.3020   19.4920 C.3    41  TRP41       0.0576
     51  CG        19.8150   -0.2590   18.8700 C.ar   41  TRP41       0.0006
     52  CD1       19.5520    1.0580   18.7630 C.ar   41  TRP41       0.0946
     53  CD2       21.0940   -0.4630   18.2770 C.ar   41  TRP41       0.0152
     54  NE1       20.5960    1.7020   18.1670 N.ar   41  TRP41      -0.2442
     55  CE2       21.5570    0.7920   17.8500 C.ar   41  TRP41       0.0810
     56  CE3       21.9160   -1.5870   18.1000 C.ar   41  TRP41       0.0012
     57  CZ2       22.8080    0.9660   17.2240 C.ar   41  TRP41       0.0191
     58  CZ3       23.1690   -1.4170   17.4660 C.ar   41  TRP41       0.0001
     59  CH2       23.5900   -0.1450   17.0490 C.ar   41  TRP41       0.0015
     60  N         14.9520   -4.5110   16.5160 N.3    44  ALA44      -0.1231
     61  CA        15.6430   -4.8680   15.2550 C.3    44  ALA44       0.1694
     62  C         16.3970   -6.1880   15.3170 C.2    44  ALA44       0.2592
     63  O         16.6770   -6.7990   14.2730 O.2    44  ALA44      -0.2718
     64  CB        16.6030   -3.7710   14.8790 C.3    44  ALA44       0.0304
     65  N         16.7720   -6.5890   16.5390 N.am   45  HIS45      -0.1976
     66  CA        17.5660   -7.7950   16.7540 C.3    45  HIS45       0.1656
     67  C         16.7220   -8.8650   17.4240 C.2    45  HIS45       0.2291
     68  O         17.2580   -9.8230   17.9230 O.2    45  HIS45      -0.2864
     69  CB        18.7950   -7.4790   17.5960 C.3    45  HIS45       0.0771
     70  CG        19.8050   -6.6460   16.8760 C.ar   45  HIS45       0.0820
     71  ND1       19.7880   -5.2670   16.9070 N.ar   45  HIS45      -0.2267
     72  CD2       20.8310   -6.9930   16.0730 C.ar   45  HIS45       0.1154
     73  CE1       20.7770   -4.8070   16.1620 C.ar   45  HIS45       0.1986
     74  NE2       21.4210   -5.8330   15.6460 N.ar   45  HIS45      -0.2212
     75  N         12.1830    5.8580   10.8810 N.3    69  GLU69      -0.1245
     76  CA        12.2140    4.4160   11.1750 C.3    69  GLU69       0.1567
     77  C         11.5070    4.2070   12.4860 C.2    69  GLU69       0.2260
     78  O         11.7150    4.9890   13.4120 O.2    69  GLU69      -0.2867
     79  CB        13.6320    3.9010   11.3830 C.3    69  GLU69       0.0388
     80  CG        14.5910    4.0370   10.2060 C.3    69  GLU69       0.1160
     81  CD        15.3450    5.3680   10.1360 C.2    69  GLU69       0.3649
     82  OE1       14.9160    6.3690   10.7620 O.co2  69  GLU69      -0.2457
     83  OE2       16.3730    5.4140    9.4120 O.co2  69  GLU69      -0.2457
     84  N          8.3650   -1.0480   12.3180 N.3    73  SER73      -0.1202
     85  CA         8.8770   -1.3860   10.9940 C.3    73  SER73       0.2020
     86  C         10.1330   -2.2930   11.0790 C.2    73  SER73       0.2618
     87  O         10.2840   -3.2520   10.2850 O.2    73  SER73      -0.2717
     88  CB         9.1710   -0.1150   10.1840 C.3    73  SER73       0.2103
     89  OG        10.2110    0.6480   10.7770 O.3    73  SER73      -0.2182
     90  N         11.0080   -2.0000   12.0380 N.am   74  LEU74      -0.1979
     91  CA        12.2390   -2.8000   12.2120 C.3    74  LEU74       0.1596
     92  C         11.8400   -4.2430   12.5010 C.2    74  LEU74       0.2287
     93  O         12.3860   -5.1570   11.9020 O.2    74  LEU74      -0.2864
     94  CB        13.1250   -2.2480   13.3250 C.3    74  LEU74       0.0297
     95  CG        13.7940   -0.9480   12.8960 C.3    74  LEU74       0.0022
     96  CD1       14.2050   -0.1310   14.0940 C.3    74  LEU74       0.0001
     97  CD2       14.9860   -1.2280   12.0110 C.3    74  LEU74       0.0001
     98  N         10.1710   -5.9180    9.4540 N.3    77  SER77      -0.1202
     99  CA        11.1070   -6.2100    8.3640 C.3    77  SER77       0.2020
    100  C         11.8080   -7.5480    8.5340 C.2    77  SER77       0.2618
    101  O         12.1650   -8.1640    7.5630 O.2    77  SER77      -0.2717
    102  CB        12.1290   -5.1030    8.1840 C.3    77  SER77       0.2103
    103  OG        13.1390   -5.1530    9.1570 O.3    77  SER77      -0.2182
    104  N         11.9960   -7.9810    9.7690 N.am   78  LYS78      -0.1979
    105  CA        12.6900   -9.2420   10.0620 C.3    78  LYS78       0.1596
    106  C         11.7410  -10.3760   10.4470 C.2    78  LYS78       0.2287
    107  O         12.1980  -11.4700   10.7300 O.2    78  LYS78      -0.2864
    108  CB        13.6560   -9.0340   11.2080 C.3    78  LYS78       0.0298
    109  CG        14.6850   -7.9480   10.9880 C.3    78  LYS78       0.0038
    110  CD        15.7210   -8.3320    9.9570 C.3    78  LYS78       0.0206
    111  CE        16.8520   -7.3000    9.9870 C.3    78  LYS78       0.1093
    112  NZ        18.1120   -7.7820    9.3630 N.3    78  LYS78      -0.1314
    113  N          8.1300    5.9430    6.3120 N.3    98  ASP98      -0.1239
    114  CA         9.4170    6.5730    6.5770 C.3    98  ASP98       0.1674
    115  C          9.9180    7.2850    5.3060 C.2    98  ASP98       0.2266
    116  O          9.2480    7.3450    4.3020 O.2    98  ASP98      -0.2867
    117  CB        10.4390    5.5410    7.1280 C.3    98  ASP98       0.1410
    118  CG        10.6820    4.3880    6.1940 C.2    98  ASP98       0.3668
    119  OD1       10.9590    3.2920    6.7210 O.co2  98  ASP98      -0.2456
    120  OD2       10.6330    4.5650    4.9440 O.co2  98  ASP98      -0.2456
    121  N         12.2680    6.4430    3.3230 N.3   100  ASN100     -0.1225
    122  CA        12.5150    5.5570    2.1990 C.3   100  ASN100      0.1785
    123  C         11.2310    4.9750    1.6710 C.2   100  ASN100      0.2598
    124  O         11.2320    3.9530    1.0150 O.2   100  ASN100     -0.2718
    125  CB        13.5310    4.4980    2.5750 C.3   100  ASN100      0.1169
    126  CG        14.9340    5.0430    2.5510 C.2   100  ASN100      0.2627
    127  OD1       15.2150    6.0470    1.8850 O.2   100  ASN100     -0.2716
    128  ND2       15.8210    4.4030    3.2740 N.am  100  ASN100     -0.0877
    129  N         10.1310    5.6600    1.9470 N.am  101  GLY101     -0.1942
    130  CA         8.8160    5.2310    1.5020 C.3   101  GLY101      0.2014
    131  C          8.3790    3.8380    1.8990 C.2   101  GLY101      0.2639
    132  O          7.5850    3.2180    1.1620 O.2   101  GLY101     -0.2714
    133  N          8.8640    3.3340    3.0390 N.am  102  GLY102     -0.1954
    134  CA         8.4320    2.0290    3.5580 C.3   102  GLY102      0.1869
    135  C          7.3650    2.1950    4.6560 C.2   102  GLY102      0.2309
    136  O          7.3750    3.1740    5.3820 O.2   102  GLY102     -0.2863
    137  N          4.6050   -2.9510    4.0670 N.3   106  LEU106     -0.1231
    138  CA         5.5310   -3.1340    2.9270 C.3   106  LEU106      0.1693
    139  C          6.7750   -3.8990    3.3520 C.2   106  LEU106      0.2592
    140  O          7.2990   -4.7600    2.5860 O.2   106  LEU106     -0.2718
    141  CB         5.8900   -1.7940    2.2960 C.3   106  LEU106      0.0284
    142  CG         4.7710   -1.1670    1.4370 C.3   106  LEU106      0.0019
    143  CD1        5.0670    0.2660    1.0610 C.3   106  LEU106      0.0001
    144  CD2        4.4500   -1.9870    0.2050 C.3   106  LEU106      0.0001
    145  N          7.2690   -3.6140    4.5570 N.am  107  TYR107     -0.1976
    146  CA         8.4680   -4.3260    5.0870 C.3   107  TYR107      0.1639
    147  C          8.1540   -5.7930    5.3990 C.2   107  TYR107      0.2290
    148  O          8.9620   -6.6830    5.0890 O.2   107  TYR107     -0.2864
    149  CB         9.0850   -3.5990    6.3150 C.3   107  TYR107      0.0560
    150  CG         9.7130   -2.2900    5.9750 C.ar  107  TYR107     -0.0198
    151  CD1        9.2710   -1.0940    6.5370 C.ar  107  TYR107     -0.0009
    152  CD2       10.7770   -2.2380    5.0860 C.ar  107  TYR107     -0.0009
    153  CE1        9.8850    0.1050    6.2310 C.ar  107  TYR107      0.0417
    154  CE2       11.3780   -1.0360    4.7540 C.ar  107  TYR107      0.0417
    155  CZ        10.9480    0.1210    5.3130 C.ar  107  TYR107      0.1957
    156  OH        11.6010    1.2920    4.9170 O.3   107  TYR107     -0.2866
    157  N          7.8270   -7.2990    1.9570 N.3   110  HIS110     -0.1241
    158  CA         9.1720   -7.4170    1.3490 C.3   110  HIS110      0.1621
    159  C          9.9780   -8.6040    1.8630 C.2   110  HIS110      0.2264
    160  O         10.7660   -9.1890    1.1100 O.2   110  HIS110     -0.2867
    161  CB         9.9600   -6.1180    1.5370 C.3   110  HIS110      0.0745
    162  CG        11.3110   -6.1420    0.8920 C.ar  110  HIS110      0.0817
    163  ND1       11.4920   -5.8920   -0.4490 N.ar  110  HIS110     -0.2268
    164  CD2       12.5380   -6.4170    1.3950 C.ar  110  HIS110      0.1154
    165  CE1       12.7750   -6.0100   -0.7520 C.ar  110  HIS110      0.1986
    166  NE2       13.4350   -6.3140    0.3510 N.ar  110  HIS110     -0.2212
    167  N          2.9760    3.6370   -2.5880 N.3   131  THR131     -0.1218
    168  CA         4.2310    4.3710   -2.5920 C.3   131  THR131      0.1862
    169  C          4.1790    5.5540   -3.5930 C.2   131  THR131      0.2287
    170  O          3.2520    5.6760   -4.4380 O.2   131  THR131     -0.2866
    171  CB         5.4050    3.4810   -3.0380 C.3   131  THR131      0.1770
    172  OG1        5.2150    3.0920   -4.4120 O.3   131  THR131     -0.2211
    173  CG2        5.5320    2.2470   -2.1410 C.3   131  THR131      0.0375
    174  N          5.7690    5.7030   -6.1050 N.3   133  SER133     -0.1217
    175  CA         5.7970    5.0620   -7.4090 C.3   133  SER133      0.1889
    176  C          4.4430    4.5260   -7.8710 C.2   133  SER133      0.2288
    177  O          4.3040    4.1250   -9.0010 O.2   133  SER133     -0.2866
    178  CB         6.7830    3.9070   -7.3950 C.3   133  SER133      0.2089
    179  OG         7.0040    3.4630   -8.7110 O.3   133  SER133     -0.2183
    180  N          2.6770    1.8650   -6.4390 N.3   135  TYR135     -0.1241
    181  CA         2.3770    0.4750   -6.1050 C.3   135  TYR135      0.1605
    182  C          1.9880    0.3010   -4.6340 C.2   135  TYR135      0.2264
    183  O          2.4080    1.0720   -3.7590 O.2   135  TYR135     -0.2867
    184  CB         3.5350   -0.4520   -6.5020 C.3   135  TYR135      0.0534
    185  CG         4.7690   -0.4190   -5.6260 C.ar  135  TYR135     -0.0201
    186  CD1        4.8130   -1.0950   -4.4210 C.ar  135  TYR135     -0.0009
    187  CD2        5.9370    0.2160   -6.0650 C.ar  135  TYR135     -0.0009
    188  CE1        5.9590   -1.1040   -3.6280 C.ar  135  TYR135      0.0417
    189  CE2        7.0870    0.2180   -5.2810 C.ar  135  TYR135      0.0417
    190  CZ         7.1070   -0.4400   -4.0610 C.ar  135  TYR135      0.1957
    191  OH         8.2850   -0.4460   -3.2900 O.3   135  TYR135     -0.2866
    192  N          0.4650   -5.2900   -4.8400 N.3   139  ASP139     -0.1225
    193  CA         1.3380   -5.1840   -6.0160 C.3   139  ASP139      0.1805
    194  C          2.7030   -5.7410   -5.7170 C.2   139  ASP139      0.2597
    195  O          3.2550   -6.5190   -6.5130 O.2   139  ASP139     -0.2718
    196  CB         1.4650   -3.7230   -6.4890 C.3   139  ASP139      0.1424
    197  CG         0.1160   -3.0950   -6.8770 C.2   139  ASP139      0.3668
    198  OD1       -0.8290   -3.8170   -7.2910 O.co2 139  ASP139     -0.2456
    199  OD2       -0.0000   -1.8590   -6.7700 O.co2 139  ASP139     -0.2456
    200  N          3.2710   -5.3290   -4.5710 N.am  140  LEU140     -0.1979
    201  CA         4.6020   -5.7580   -4.1960 C.3   140  LEU140      0.1596
    202  C          4.6860   -7.2980   -3.9890 C.2   140  LEU140      0.2287
    203  O          5.6650   -7.9560   -4.4250 O.2   140  LEU140     -0.2864
    204  CB         5.0790   -4.9910   -2.9350 C.3   140  LEU140      0.0297
    205  CG         6.4940   -5.3050   -2.4570 C.3   140  LEU140      0.0022
    206  CD1        7.5660   -4.9550   -3.5050 C.3   140  LEU140      0.0001
    207  CD2        6.7840   -4.5710   -1.1660 C.3   140  LEU140      0.0001
    208  N          4.6340   -8.7920   -7.4360 N.3   143  ALA143     -0.1231
    209  CA         5.9480   -8.5390   -8.0090 C.3   143  ALA143      0.1694
    210  C          7.0310   -9.4800   -7.4860 C.2   143  ALA143      0.2591
    211  O          7.8730   -9.9400   -8.2560 O.2   143  ALA143     -0.2718
    212  CB         6.3470   -7.0920   -7.7590 C.3   143  ALA143      0.0304
    213  N          7.0070   -9.7830   -6.1890 N.am  144  LEU144     -0.1980
    214  CA         8.0580  -10.5710   -5.5530 C.3   144  LEU144      0.1596
    215  C          7.7920  -12.0690   -5.5600 C.2   144  LEU144      0.2287
    216  O          8.6880  -12.8610   -5.2050 O.2   144  LEU144     -0.2864
    217  CB         8.3360  -10.0840   -4.1070 C.3   144  LEU144      0.0297
    218  CG         8.8080   -8.6170   -3.9450 C.3   144  LEU144      0.0022
    219  CD1        8.7980   -8.2270   -2.4840 C.3   144  LEU144      0.0001
    220  CD2       10.1950   -8.4130   -4.5220 C.3   144  LEU144      0.0001
@<TRIPOS>BOND
     1   177   176    2
     2   179   178    1
     3   211   210    2
     4   209   212    1
     5   209   210    1
     6   209   208    1
     7   176   175    1
     8   210   213   am
     9   175   178    1
    10   175   174    1
    11   198   197   ar
    12   197   199   ar
    13   197   196    1
    14   195   194    2
    15   184   181    1
    16   184   185    1
    17   196   193    1
    18   180   181    1
    19   213   214    1
    20   181   182    1
    21   187   185   ar
    22   187   189   ar
    23   193   194    1
    24   193   192    1
    25   194   200   am
    26   185   186   ar
    27   215   214    1
    28   215   216    2
    29   214   217    1
    30   189   190   ar
    31   182   183    2
    32   200   201    1
    33   220   218    1
    34   170   169    2
    35   203   202    2
    36   186   188   ar
    37   172   171    1
    38   201   202    1
    39   201   204    1
    40   217   218    1
    41   190   188   ar
    42   190   191    1
    43   218   219    1
    44   169   168    1
    45   206   205    1
    46   171   168    1
    47   171   173    1
    48   204   205    1
    49   168   167    1
    50   205   207    1
    51   165   163   ar
    52   165   166   ar
    53   163   162   ar
    54   144   142    1
    55   166   164   ar
    56   162   164   ar
    57   162   161    1
    58   124   123    2
    59   143   142    1
    60   160   159    2
    61   132   131    2
    62   158   161    1
    63   158   159    1
    64   158   157    1
    65   142   141    1
    66   130   131    1
    67   130   129    1
    68   123   129   am
    69   123   122    1
    70   127   126    2
    71   131   133   am
    72   122   125    1
    73   122   121    1
    74   141   138    1
    75   126   125    1
    76   126   128   am
    77   140   139    2
    78   138   139    1
    79   138   137    1
    80   133   134    1
    81   139   145   am
    82   134   135    1
    83   116   115    2
    84   145   146    1
    85   135   136    2
    86   154   152   ar
    87   154   155   ar
    88   156   155    1
    89   120   118   ar
    90   152   150   ar
    91   146   147    1
    92   146   149    1
    93   148   147    2
    94   115   114    1
    95   155   153   ar
    96   150   149    1
    97   150   151   ar
    98   118   119   ar
    99   118   117    1
   100   153   151   ar
   101   113   114    1
   102   114   117    1
   103   101   100    2
   104   102    99    1
   105   102   103    1
   106    99   100    1
   107    99    98    1
   108   100   104   am
   109   112   111    1
   110    83    81   ar
   111   104   105    1
   112   110   111    1
   113   110   109    1
   114   105   106    1
   115   105   108    1
   116    81    80    1
   117    81    82   ar
   118    88    89    1
   119    88    85    1
   120    80    79    1
   121    87    86    2
   122   106   107    2
   123    25    24   ar
   124    26    24   ar
   125    75    76    1
   126   109   108    1
   127    85    86    1
   128    85    84    1
   129    86    90   am
   130    76    79    1
   131    76    77    1
   132    24    23    1
   133    93    92    2
   134    97    95    1
   135    90    91    1
   136    91    92    1
   137    91    94    1
   138    77    78    2
   139    23    22    1
   140    37    35   ar
   141    37    36   ar
   142    95    94    1
   143    95    96    1
   144    35    33   ar
   145    22    19    1
   146    36    34   ar
   147    21    20    2
   148    19    20    1
   149    19    18    1
   150    63    62    2
   151    33    32   ar
   152    12    11    2
   153    64    61    1
   154    34    32   ar
   155    18    11   am
   156    11    10    1
   157    61    62    1
   158    61    60    1
   159    45    44    1
   160    62    65   am
   161    32    31    1
   162    74    72   ar
   163    74    73   ar
   164    13    10    1
   165    13    14    1
   166    72    70   ar
   167    73    71   ar
   168    10     9    1
   169    65    66    1
   170    14    15    1
   171    66    67    1
   172    66    69    1
   173    31    28    1
   174    70    71   ar
   175    70    69    1
   176    44    43    1
   177    27    28    1
   178    16    15   ar
   179     7     6   ar
   180    59    57   ar
   181    59    58   ar
   182    57    55   ar
   183    15    17   ar
   184    41    40    2
   185    43    42    1
   186     8     6   ar
   187    67    68    2
   188    28    29    1
   189     9     3   am
   190    58    56   ar
   191    42    39    1
   192     6     5    1
   193    55    54   ar
   194    55    53   ar
   195     4     3    2
   196    56    53   ar
   197    40    39    1
   198    40    46   am
   199    54    52   ar
   200     3     2    1
   201    53    51   ar
   202    39    38    1
   203    49    48    2
   204    47    46    1
   205    47    48    1
   206    47    50    1
   207    52    51   ar
   208    51    50    1
   209     5     2    1
   210    29    30    2
   211     2     1    1
