@<TRIPOS>MOLECULE
tmp/4lgdA00.pdb
 162 153 0 0 0
SMALL
GASTEIGER

@<TRIPOS>ATOM
      1  N         22.2050  -67.5070   15.3620 N.3    18  LEU18      -0.1231
      2  CA        21.4950  -66.8000   16.4260 C.3    18  LEU18       0.1693
      3  C         20.8910  -65.4780   15.9610 C.2    18  LEU18       0.2593
      4  O         19.9640  -64.9600   16.5850 O.2    18  LEU18      -0.2718
      5  CB        22.4320  -66.5490   17.6090 C.3    18  LEU18       0.0284
      6  CG        22.9650  -67.8000   18.3100 C.3    18  LEU18       0.0019
      7  CD1       23.7860  -67.4080   19.5230 C.3    18  LEU18       0.0001
      8  CD2       21.8330  -68.7380   18.7090 C.3    18  LEU18       0.0001
      9  N         21.4160  -64.9300   14.8710 N.am   19  GLY19      -0.1942
     10  CA        20.9110  -63.6770   14.3440 C.3    19  GLY19       0.2014
     11  C         21.9820  -62.8560   13.6550 C.2    19  GLY19       0.2639
     12  O         22.9240  -63.4020   13.0810 O.2    19  GLY19      -0.2714
     13  N         21.8370  -61.5360   13.7180 N.am   20  GLU20      -0.1963
     14  CA        22.7520  -60.6330   13.0340 C.3    20  GLU20       0.1733
     15  C         22.4630  -59.1820   13.3970 C.2    20  GLU20       0.2617
     16  O         21.5220  -58.8890   14.1340 O.2    20  GLU20      -0.2715
     17  CB        22.6310  -60.8190   11.5220 C.3    20  GLU20       0.0429
     18  CG        21.2010  -60.7480   11.0120 C.3    20  GLU20       0.1163
     19  CD        21.0930  -61.0410    9.5300 C.2    20  GLU20       0.3649
     20  OE1       22.0890  -60.8270    8.8060 O.co2  20  GLU20      -0.2457
     21  OE2       20.0150  -61.4900    9.0880 O.co2  20  GLU20      -0.2457
     22  N         23.2830  -58.2760   12.8740 N.am   21  GLY21      -0.1940
     23  CA        23.1080  -56.8550   13.1090 C.3    21  GLY21       0.2014
     24  C         23.3950  -56.0430   11.8620 C.2    21  GLY21       0.2640
     25  O         22.5020  -55.8030   11.0480 O.2    21  GLY21      -0.2714
     26  N         24.6450  -55.6170   11.7110 N.am   22  SER22      -0.1935
     27  CA        25.0470  -54.8280   10.5520 C.3    22  SER22       0.2055
     28  C         26.4860  -55.0960   10.1050 C.2    22  SER22       0.2643
     29  O         26.9950  -54.4090    9.2190 O.2    22  SER22      -0.2714
     30  CB        24.8860  -53.3370   10.8580 C.3    22  SER22       0.2130
     31  OG        23.5360  -53.0170   11.1470 O.3    22  SER22      -0.2179
     32  N         27.1380  -56.0900   10.7030 N.am   23  TYR23      -0.1959
     33  CA        28.5390  -56.3640   10.3910 C.3    23  TYR23       0.1771
     34  C         28.8370  -57.8540   10.2360 C.2    23  TYR23       0.2620
     35  O         29.9980  -58.2480   10.1310 O.2    23  TYR23      -0.2715
     36  CB        29.4440  -55.7670   11.4710 C.3    23  TYR23       0.0574
     37  CG        29.2330  -54.2850   11.6910 C.ar   23  TYR23      -0.0198
     38  CD1       29.8910  -53.3470   10.9070 C.ar   23  TYR23      -0.0009
     39  CD2       28.3760  -53.8250   12.6830 C.ar   23  TYR23      -0.0009
     40  CE1       29.7010  -51.9910   11.1040 C.ar   23  TYR23       0.0417
     41  CE2       28.1800  -52.4710   12.8870 C.ar   23  TYR23       0.0417
     42  CZ        28.8450  -51.5600   12.0950 C.ar   23  TYR23       0.1957
     43  OH        28.6520  -50.2130   12.2950 O.3    23  TYR23      -0.2866
     44  N         27.7970  -58.6820   10.2170 N.am   24  GLY24      -0.1954
     45  CA        27.9810  -60.1120   10.0500 C.3    24  GLY24       0.1869
     46  C         26.9950  -60.9450   10.8450 C.2    24  GLY24       0.2309
     47  O         26.0990  -60.4130   11.4990 O.2    24  GLY24      -0.2863
     48  N         26.0300  -63.8810   13.7650 N.3    26  VAL26      -0.1245
     49  CA        26.4430  -64.4530   15.0410 C.3    26  VAL26       0.1561
     50  C         25.9970  -65.9090   15.1130 C.2    26  VAL26       0.2260
     51  O         24.8960  -66.2500   14.6800 O.2    26  VAL26      -0.2867
     52  CB        25.8410  -63.6710   16.2240 C.3    26  VAL26       0.0252
     53  CG1       26.0040  -64.4450   17.5250 C.3    26  VAL26       0.0019
     54  CG2       26.4870  -62.2990   16.3320 C.3    26  VAL26       0.0019
     55  N         30.5050  -68.3520   21.6960 N.3    39  ALA39      -0.1245
     56  CA        29.8510  -67.7250   20.5540 C.3    39  ALA39       0.1562
     57  C         30.8930  -67.3800   19.4970 C.2    39  ALA39       0.2260
     58  O         32.0570  -67.1470   19.8180 O.2    39  ALA39      -0.2867
     59  CB        29.1050  -66.4770   20.9940 C.3    39  ALA39       0.0290
     60  N         31.2870  -64.9410   15.9740 N.3    41  LYS41      -0.1245
     61  CA        30.8040  -63.9770   14.9960 C.3    41  LYS41       0.1561
     62  C         31.6770  -64.0380   13.7470 C.2    41  LYS41       0.2260
     63  O         32.8720  -64.3210   13.8300 O.2    41  LYS41      -0.2867
     64  CB        30.8270  -62.5660   15.5860 C.3    41  LYS41       0.0271
     65  CG        30.0830  -61.5320   14.7560 C.3    41  LYS41       0.0035
     66  CD        30.1620  -60.1520   15.3860 C.3    41  LYS41       0.0206
     67  CE        29.2870  -59.1550   14.6470 C.3    41  LYS41       0.1093
     68  NZ        29.3500  -57.7980   15.2570 N.3    41  LYS41      -0.1314
     69  N         33.4730  -65.1870   21.3300 N.3    84  MET84      -0.1230
     70  CA        32.9600  -64.3650   22.4190 C.3    84  MET84       0.1702
     71  C         32.2960  -65.2460   23.4710 C.2    84  MET84       0.2592
     72  O         32.0670  -66.4320   23.2380 O.2    84  MET84      -0.2718
     73  CB        31.9460  -63.3650   21.8640 C.3    84  MET84       0.0401
     74  CG        31.9810  -62.0030   22.5240 C.3    84  MET84       0.0596
     75  SD        31.1800  -60.7370   21.5180 S.3    84  MET84      -0.1393
     76  CE        29.5580  -61.4580   21.2790 C.3    84  MET84       0.0692
     77  N         31.9870  -64.6710   24.6290 N.am   85  GLU85      -0.1966
     78  CA        31.2890  -65.4130   25.6730 C.3    85  GLU85       0.1733
     79  C         29.8390  -65.6450   25.2650 C.2    85  GLU85       0.2616
     80  O         29.2000  -64.7630   24.6930 O.2    85  GLU85      -0.2715
     81  CB        31.3430  -64.6680   27.0060 C.3    85  GLU85       0.0429
     82  CG        30.4840  -65.3000   28.0880 C.3    85  GLU85       0.1163
     83  CD        30.7000  -64.6710   29.4460 C.2    85  GLU85       0.3649
     84  OE1       31.3410  -63.6020   29.5100 O.co2  85  GLU85      -0.2457
     85  OE2       30.2320  -65.2480   30.4500 O.co2  85  GLU85      -0.2457
     86  N         29.3230  -66.8330   25.5670 N.am   86  TYR86      -0.1960
     87  CA        27.9830  -67.2110   25.1340 C.3    86  TYR86       0.1771
     88  C         26.9000  -66.7190   26.0890 C.2    86  TYR86       0.2620
     89  O         26.7010  -67.2820   27.1650 O.2    86  TYR86      -0.2715
     90  CB        27.8810  -68.7280   24.9750 C.3    86  TYR86       0.0574
     91  CG        26.5390  -69.1900   24.4530 C.ar   86  TYR86      -0.0198
     92  CD1       26.1600  -68.9390   23.1410 C.ar   86  TYR86      -0.0009
     93  CD2       25.6520  -69.8780   25.2700 C.ar   86  TYR86      -0.0009
     94  CE1       24.9360  -69.3570   22.6590 C.ar   86  TYR86       0.0417
     95  CE2       24.4240  -70.3020   24.7940 C.ar   86  TYR86       0.0417
     96  CZ        24.0720  -70.0390   23.4870 C.ar   86  TYR86       0.1957
     97  OH        22.8520  -70.4560   23.0050 O.3    86  TYR86      -0.2866
     98  N         26.2030  -65.6630   25.6810 N.am   87  CYS87      -0.1954
     99  CA        25.0390  -65.1800   26.4120 C.3    87  CYS87       0.1843
    100  C         23.7740  -65.7050   25.7340 C.2    87  CYS87       0.2626
    101  O         23.2060  -65.0450   24.8660 O.2    87  CYS87      -0.2714
    102  CB        25.0290  -63.6490   26.4500 C.3    87  CYS87       0.0997
    103  SG        26.5540  -62.9010   27.0790 S.3    87  CYS87      -0.0797
    104  N         23.3390  -66.8950   26.1380 N.am   88  GLY88      -0.1954
    105  CA        22.2520  -67.5880   25.4670 C.3    88  GLY88       0.1869
    106  C         20.9400  -66.8300   25.4020 C.2    88  GLY88       0.2309
    107  O         20.2460  -66.8690   24.3850 O.2    88  GLY88      -0.2863
    108  N         20.3070  -63.8470   25.0800 N.3    90  GLY90      -0.1210
    109  CA        20.3230  -62.6790   24.2180 C.3    90  GLY90       0.1956
    110  C         20.3740  -61.3850   25.0070 C.2    90  GLY90       0.2612
    111  O         20.6790  -61.3870   26.1990 O.2    90  GLY90      -0.2717
    112  N         20.0730  -60.2750   24.3400 N.am   91  SER91      -0.1952
    113  CA        20.1010  -58.9650   24.9810 C.3    91  SER91       0.1924
    114  C         18.7740  -58.6680   25.6620 C.2    91  SER91       0.2314
    115  O         17.7470  -59.2540   25.3250 O.2    91  SER91      -0.2863
    116  CB        20.4090  -57.8710   23.9580 C.3    91  SER91       0.2116
    117  OG        19.3290  -57.6990   23.0570 O.3    91  SER91      -0.2180
    118  N         16.2280  -57.9870   23.2380 N.3    94  ASP94      -0.1239
    119  CA        15.7380  -59.1570   22.5160 C.3    94  ASP94       0.1674
    120  C         14.7240  -59.9440   23.3410 C.2    94  ASP94       0.2266
    121  O         13.7330  -60.4420   22.8080 O.2    94  ASP94      -0.2867
    122  CB        16.9000  -60.0730   22.1240 C.3    94  ASP94       0.1410
    123  CG        17.7690  -59.4780   21.0340 C.2    94  ASP94       0.3668
    124  OD1       18.9890  -59.7470   21.0330 O.co2  94  ASP94      -0.2456
    125  OD2       17.2340  -58.7450   20.1760 O.co2  94  ASP94      -0.2456
    126  N         19.8320  -52.9500   24.2120 N.3   135  GLY135     -0.1210
    127  CA        20.3450  -53.8340   23.1810 C.3   135  GLY135      0.1956
    128  C         21.7820  -54.2600   23.4080 C.2   135  GLY135      0.2611
    129  O         22.2520  -55.2130   22.7870 O.2   135  GLY135     -0.2717
    130  N         22.4850  -53.5600   24.2930 N.am  136  ASN136     -0.1974
    131  CA        23.8860  -53.8640   24.5630 C.3   136  ASN136      0.1688
    132  C         24.1130  -54.4840   25.9390 C.2   136  ASN136      0.2292
    133  O         25.2500  -54.5870   26.4010 O.2   136  ASN136     -0.2864
    134  CB        24.7340  -52.6050   24.4130 C.3   136  ASN136      0.1181
    135  CG        24.7260  -52.0670   22.9970 C.2   136  ASN136      0.2629
    136  OD1       24.5220  -52.8140   22.0390 O.2   136  ASN136     -0.2716
    137  ND2       24.9460  -50.7660   22.8570 N.am  136  ASN136     -0.0877
    138  N         23.6130  -58.0180   27.7370 N.3   138  LEU138     -0.1245
    139  CA        23.3630  -59.4160   27.3950 C.3   138  LEU138      0.1561
    140  C         23.2020  -60.3080   28.6240 C.2   138  LEU138      0.2260
    141  O         23.9790  -60.2230   29.5760 O.2   138  LEU138     -0.2867
    142  CB        24.5020  -59.9540   26.5260 C.3   138  LEU138      0.0270
    143  CG        24.7920  -59.1710   25.2430 C.3   138  LEU138      0.0019
    144  CD1       25.9420  -59.8070   24.4810 C.3   138  LEU138      0.0001
    145  CD2       23.5520  -59.0870   24.3720 C.3   138  LEU138      0.0001
    146  N         29.1100  -54.6440   23.0990 N.3   149  ASP149     -0.1239
    147  CA        29.0420  -53.6530   22.0310 C.3   149  ASP149      0.1674
    148  C         29.4060  -52.2680   22.5490 C.2   149  ASP149      0.2266
    149  O         28.5670  -51.3690   22.6090 O.2   149  ASP149     -0.2867
    150  CB        27.6500  -53.6460   21.4060 C.3   149  ASP149      0.1410
    151  CG        27.3220  -54.9550   20.7200 C.2   149  ASP149      0.3668
    152  OD1       26.1440  -55.3650   20.7240 O.co2 149  ASP149     -0.2456
    153  OD2       28.2530  -55.5830   20.1770 O.co2 149  ASP149     -0.2456
    154  N         12.4020  -68.9230   21.7120 N.3   283  LYS283     -0.1245
    155  CA        13.4900  -68.8610   20.7450 C.3   283  LYS283      0.1561
    156  C         13.6350  -70.2090   20.0470 C.2   283  LYS283      0.2260
    157  O         13.9570  -70.2750   18.8610 O.2   283  LYS283     -0.2867
    158  CB        14.8000  -68.4830   21.4430 C.3   283  LYS283      0.0271
    159  CG        15.7760  -67.7060   20.5720 C.3   283  LYS283      0.0035
    160  CD        16.9150  -67.1320   21.4030 C.3   283  LYS283      0.0206
    161  CE        17.7500  -66.1430   20.6040 C.3   283  LYS283      0.1093
    162  NZ        18.7550  -65.4440   21.4540 N.3   283  LYS283     -0.1314
@<TRIPOS>BOND
     1    20    19   ar
     2    21    19   ar
     3    29    28    2
     4    19    18    1
     5    45    44    1
     6    45    46    1
     7    28    27    1
     8    28    32   am
     9    35    34    2
    10    44    34   am
    11    34    33    1
    12    33    32    1
    13    33    36    1
    14    27    30    1
    15    27    26    1
    16    46    47    2
    17    30    31    1
    18    38    40   ar
    19    38    37   ar
    20    18    17    1
    21    25    24    2
    22    40    42   ar
    23    36    37    1
    24    17    14    1
    25    37    39   ar
    26    26    24   am
    27    24    23    1
    28    42    43    1
    29    42    41   ar
    30    39    41   ar
    31    22    23    1
    32    22    15   am
    33    14    15    1
    34    14    13    1
    35    12    11    2
    36    15    16    2
    37    11    13   am
    38    11    10    1
    39    62    63    2
    40    62    61    1
    41    48    49    1
    42    10     9    1
    43    67    68    1
    44    67    66    1
    45    51    50    2
    46    65    66    1
    47    65    64    1
    48     9     3   am
    49    61    64    1
    50    61    60    1
    51    49    50    1
    52    49    52    1
    53     1     2    1
    54     3     2    1
    55     3     4    2
    56    52    54    1
    57    52    53    1
    58     2     5    1
    59     5     6    1
    60     6     8    1
    61     6     7    1
    62   157   156    2
    63    57    58    2
    64    57    56    1
    65   156   155    1
    66   125   123   ar
    67   153   151   ar
    68    56    59    1
    69    56    55    1
    70   159   160    1
    71   159   158    1
    72   161   160    1
    73   161   162    1
    74   151   152   ar
    75   151   150    1
    76   155   158    1
    77   155   154    1
    78   124   123   ar
    79   123   122    1
    80    76    75    1
    81    69    70    1
    82   150   147    1
    83    75    74    1
    84    73    70    1
    85    73    74    1
    86   147   148    1
    87   147   146    1
    88   136   135    2
    89   122   119    1
    90    70    71    1
    91   119   118    1
    92   119   120    1
    93   148   149    2
    94    94    92   ar
    95    94    96   ar
    96   129   128    2
    97   121   120    2
    98   137   135   am
    99   135   134    1
   100    97    96    1
   101   117   116    1
   102    92    91   ar
   103   127   128    1
   104   127   126    1
   105    72    71    2
   106   128   130   am
   107    71    77   am
   108    96    95   ar
   109   116   113    1
   110   109   110    1
   111   109   108    1
   112   130   131    1
   113   112   113    1
   114   112   110   am
   115   145   143    1
   116   107   106    2
   117   134   131    1
   118    91    90    1
   119    91    93   ar
   120   144   143    1
   121   131   132    1
   122    77    78    1
   123    80    79    2
   124    95    93   ar
   125   101   100    2
   126    90    87    1
   127   113   114    1
   128   110   111    2
   129    87    86    1
   130    87    88    1
   131   143   142    1
   132    79    86   am
   133    79    78    1
   134   115   114    2
   135   106   105    1
   136   105   104    1
   137    78    81    1
   138    98    88   am
   139    98    99    1
   140   100   104   am
   141   100    99    1
   142   132   133    2
   143    88    89    2
   144    99   102    1
   145   102   103    1
   146   142   139    1
   147    81    82    1
   148   139   138    1
   149   139   140    1
   150    82    83    1
   151   140   141    2
   152    83    84   ar
   153    83    85   ar
