@<TRIPOS>MOLECULE
tmp/4lggA00.pdb
 160 149 0 0 0
SMALL
GASTEIGER

@<TRIPOS>ATOM
      1  N         -9.4800   -8.0950  -13.7680 N.3    10  LEU10      -0.1231
      2  CA        -9.4050   -6.7880  -13.1220 C.3    10  LEU10       0.1693
      3  C         -8.3640   -5.8930  -13.7850 C.2    10  LEU10       0.2592
      4  O         -8.6970   -4.8460  -14.3400 O.2    10  LEU10      -0.2718
      5  CB        -9.0840   -6.9470  -11.6350 C.3    10  LEU10       0.0284
      6  CG       -10.1480   -7.6570  -10.7960 C.3    10  LEU10       0.0019
      7  CD1       -9.6650   -7.8400   -9.3670 C.3    10  LEU10       0.0001
      8  CD2      -11.4580   -6.8840  -10.8220 C.3    10  LEU10       0.0001
      9  N         -7.1030   -6.3090  -13.7210 N.am   11  GLY11      -0.1957
     10  CA        -6.0170   -5.5280  -14.2830 C.3    11  GLY11       0.1869
     11  C         -4.9730   -6.3930  -14.9620 C.2    11  GLY11       0.2309
     12  O         -5.0130   -7.6200  -14.8690 O.2    11  GLY11      -0.2863
     13  N         -4.4340   -9.8290  -12.8750 N.3    16  VAL16      -0.1245
     14  CA        -5.2150   -9.9170  -11.6460 C.3    16  VAL16       0.1561
     15  C         -6.6870  -10.1210  -11.9830 C.2    16  VAL16       0.2260
     16  O         -7.2450   -9.4060  -12.8150 O.2    16  VAL16      -0.2867
     17  CB        -5.0650   -8.6560  -10.7800 C.3    16  VAL16       0.0252
     18  CG1       -5.7740   -8.8480   -9.4490 C.3    16  VAL16       0.0019
     19  CG2       -3.5940   -8.3350  -10.5590 C.3    16  VAL16       0.0019
     20  N         -9.5940  -12.4770   -4.8960 N.3    28  ALA28      -0.1231
     21  CA        -8.8010  -11.8720   -5.9570 C.3    28  ALA28       0.1694
     22  C         -7.6260  -12.7910   -6.2610 C.2    28  ALA28       0.2592
     23  O         -7.0890  -13.4360   -5.3600 O.2    28  ALA28      -0.2718
     24  CB        -8.3110  -10.4960   -5.5380 C.3    28  ALA28       0.0304
     25  N         -7.2310  -12.8520   -7.5280 N.am   29  ILE29      -0.1966
     26  CA        -6.1840  -13.7740   -7.9540 C.3    29  ILE29       0.1727
     27  C         -5.1480  -13.0790   -8.8290 C.2    29  ILE29       0.2616
     28  O         -5.4510  -12.6540   -9.9430 O.2    29  ILE29      -0.2715
     29  CB        -6.7770  -14.9560   -8.7450 C.3    29  ILE29       0.0290
     30  CG1       -7.9200  -15.6030   -7.9590 C.3    29  ILE29       0.0022
     31  CG2       -5.6920  -15.9780   -9.0620 C.3    29  ILE29       0.0023
     32  CD1       -8.7330  -16.5900   -8.7640 C.3    29  ILE29       0.0001
     33  N         -3.9260  -12.9680   -8.3170 N.am   30  LYS30      -0.1977
     34  CA        -2.8170  -12.4130   -9.0840 C.3    30  LYS30       0.1596
     35  C         -2.0640  -13.5380   -9.7820 C.2    30  LYS30       0.2287
     36  O         -1.7880  -14.5740   -9.1760 O.2    30  LYS30      -0.2864
     37  CB        -1.8650  -11.6380   -8.1720 C.3    30  LYS30       0.0298
     38  CG        -0.6450  -11.0770   -8.8900 C.3    30  LYS30       0.0038
     39  CD         0.3380  -10.4320   -7.9240 C.3    30  LYS30       0.0206
     40  CE        -0.2530   -9.2030   -7.2520 C.3    30  LYS30       0.1093
     41  NZ         0.7290   -8.5370   -6.3520 N.3    30  LYS30      -0.1314
     42  N          6.0300  -11.7560   -2.0470 N.3    38  GLU38      -0.1245
     43  CA         4.9150  -11.0900   -1.3860 C.3    38  GLU38       0.1567
     44  C          4.1450  -12.0740   -0.5090 C.2    38  GLU38       0.2260
     45  O          3.8120  -11.7700    0.6360 O.2    38  GLU38      -0.2867
     46  CB         3.9760  -10.4750   -2.4250 C.3    38  GLU38       0.0388
     47  CG         2.7770   -9.7570   -1.8300 C.3    38  GLU38       0.1160
     48  CD         1.8450   -9.2060   -2.8910 C.2    38  GLU38       0.3649
     49  OE1        2.1100   -9.4300   -4.0900 O.co2  38  GLU38      -0.2457
     50  OE2        0.8470   -8.5490   -2.5260 O.co2  38  GLU38      -0.2457
     51  N          3.1610  -12.1040    3.5900 N.3    42  MET42      -0.1245
     52  CA         1.7730  -12.0820    4.0390 C.3    42  MET42       0.1570
     53  C          1.4130  -13.3140    4.8690 C.2    42  MET42       0.2261
     54  O          0.3100  -13.4030    5.4090 O.2    42  MET42      -0.2867
     55  CB         0.8330  -11.9640    2.8390 C.3    42  MET42       0.0387
     56  CG         1.0410  -10.6970    2.0230 C.3    42  MET42       0.0595
     57  SD         0.0290  -10.6420    0.5330 S.3    42  MET42      -0.1393
     58  CE        -1.6030  -10.4690    1.2450 C.3    42  MET42       0.0692
     59  N         -4.1740   -6.3710    3.4110 N.3    51  VAL51      -0.1245
     60  CA        -4.8490   -7.3310    2.5460 C.3    51  VAL51       0.1561
     61  C         -4.4810   -8.7440    2.9840 C.2    51  VAL51       0.2260
     62  O         -3.3120   -9.0420    3.2270 O.2    51  VAL51      -0.2867
     63  CB        -4.4680   -7.1370    1.0700 C.3    51  VAL51       0.0252
     64  CG1       -5.0840   -8.2320    0.2120 C.3    51  VAL51       0.0019
     65  CG2       -4.9160   -5.7720    0.5840 C.3    51  VAL51       0.0019
     66  N         -3.8510  -12.7200    2.8240 N.3    53  LEU53      -0.1245
     67  CA        -3.4690  -13.8290    1.9610 C.3    53  LEU53       0.1561
     68  C         -4.3460  -15.0340    2.2780 C.2    53  LEU53       0.2260
     69  O         -4.5300  -15.3820    3.4440 O.2    53  LEU53      -0.2867
     70  CB        -1.9970  -14.1870    2.1720 C.3    53  LEU53       0.0270
     71  CG        -1.5050  -15.4370    1.4360 C.3    53  LEU53       0.0019
     72  CD1       -1.5450  -15.2240   -0.0680 C.3    53  LEU53       0.0001
     73  CD2       -0.1040  -15.8150    1.8910 C.3    53  LEU53       0.0001
     74  N         -1.7890  -16.2490   -6.9010 N.3    63  ILE63      -0.1231
     75  CA        -1.8100  -15.8460   -5.4990 C.3    63  ILE63       0.1692
     76  C         -3.2280  -15.4230   -5.1310 C.2    63  ILE63       0.2592
     77  O         -3.7470  -14.4410   -5.6630 O.2    63  ILE63      -0.2718
     78  CB        -0.8520  -14.6700   -5.2280 C.3    63  ILE63       0.0266
     79  CG1        0.5950  -15.0930   -5.4900 C.3    63  ILE63       0.0019
     80  CG2       -1.0080  -14.1770   -3.7930 C.3    63  ILE63       0.0020
     81  CD1        1.6030  -13.9710   -5.3320 C.3    63  ILE63       0.0001
     82  N         -3.8550  -16.1710   -4.2280 N.am   64  VAL64      -0.1966
     83  CA        -5.2350  -15.9030   -3.8350 C.3    64  VAL64       0.1727
     84  C         -5.2760  -15.0330   -2.5820 C.2    64  VAL64       0.2617
     85  O         -4.4800  -15.2240   -1.6620 O.2    64  VAL64      -0.2715
     86  CB        -5.9990  -17.2110   -3.5630 C.3    64  VAL64       0.0290
     87  CG1       -7.4690  -16.9230   -3.2950 C.3    64  VAL64       0.0023
     88  CG2       -5.8460  -18.1690   -4.7360 C.3    64  VAL64       0.0023
     89  N         -6.2040  -14.0810   -2.5440 N.am   65  GLY65      -0.1940
     90  CA        -6.3070  -13.1870   -1.4050 C.3    65  GLY65       0.2014
     91  C         -7.6230  -12.4420   -1.3030 C.2    65  GLY65       0.2639
     92  O         -8.5210  -12.6100   -2.1260 O.2    65  GLY65      -0.2714
     93  N         -7.7250  -11.6070   -0.2750 N.am   66  GLU66      -0.1963
     94  CA        -8.9320  -10.8360   -0.0160 C.3    66  GLU66       0.1733
     95  C         -9.2520   -9.9080   -1.1810 C.2    66  GLU66       0.2616
     96  O         -8.3950   -9.1550   -1.6390 O.2    66  GLU66      -0.2715
     97  CB        -8.7580  -10.0210    1.2640 C.3    66  GLU66       0.0429
     98  CG        -9.9460   -9.1540    1.6220 C.3    66  GLU66       0.1163
     99  CD        -9.7510   -8.4340    2.9380 C.2    66  GLU66       0.3649
    100  OE1       -8.6250   -8.4850    3.4800 O.co2  66  GLU66      -0.2457
    101  OE2      -10.7200   -7.8220    3.4350 O.co2  66  GLU66      -0.2457
    102  N        -10.4930   -9.9700   -1.6550 N.am   67  TYR67      -0.1960
    103  CA       -10.9350   -9.1330   -2.7630 C.3    67  TYR67       0.1771
    104  C        -11.3770   -7.7570   -2.2690 C.2    67  TYR67       0.2619
    105  O        -12.2230   -7.6450   -1.3840 O.2    67  TYR67      -0.2715
    106  CB       -12.0800   -9.8130   -3.5170 C.3    67  TYR67       0.0574
    107  CG       -12.7030   -8.9490   -4.5920 C.ar   67  TYR67      -0.0198
    108  CD1      -12.0780   -8.7720   -5.8200 C.ar   67  TYR67      -0.0009
    109  CD2      -13.9200   -8.3140   -4.3810 C.ar   67  TYR67      -0.0009
    110  CE1      -12.6440   -7.9830   -6.8040 C.ar   67  TYR67       0.0417
    111  CE2      -14.4950   -7.5250   -5.3600 C.ar   67  TYR67       0.0417
    112  CZ       -13.8520   -7.3620   -6.5690 C.ar   67  TYR67       0.1957
    113  OH       -14.4170   -6.5780   -7.5490 O.3    67  TYR67      -0.2866
    114  N        -10.7930   -6.7160   -2.8540 N.am   68  MET68      -0.1977
    115  CA       -11.1260   -5.3370   -2.5170 C.3    68  MET68       0.1605
    116  C        -11.8760   -4.7180   -3.6910 C.2    68  MET68       0.2287
    117  O        -11.2960   -4.4550   -4.7460 O.2    68  MET68      -0.2864
    118  CB        -9.8530   -4.5480   -2.2100 C.3    68  MET68       0.0413
    119  CG        -8.9670   -5.2050   -1.1550 C.3    68  MET68       0.0598
    120  SD        -9.7570   -5.3310    0.4660 S.3    68  MET68      -0.1393
    121  CE        -9.8080   -3.6070    0.9490 C.3    68  MET68       0.0692
    122  N        -10.8090   -1.4310   -6.0760 N.3    71  GLY71      -0.1210
    123  CA        -9.5020   -1.3340   -6.7040 C.3    71  GLY71       0.1956
    124  C         -8.4950   -0.5390   -5.8930 C.2    71  GLY71       0.2612
    125  O         -8.6470   -0.3670   -4.6850 O.2    71  GLY71      -0.2717
    126  N         -7.4570   -0.0520   -6.5650 N.am   72  SER72      -0.1952
    127  CA        -6.4040    0.7070   -5.9020 C.3    72  SER72       0.1924
    128  C         -6.9020    2.0790   -5.4610 C.2    72  SER72       0.2314
    129  O         -7.8920    2.5900   -5.9830 O.2    72  SER72      -0.2863
    130  CB        -5.1980    0.8670   -6.8270 C.3    72  SER72       0.2116
    131  OG        -5.5530    1.5580   -8.0090 O.3    72  SER72      -0.2180
    132  N         -6.5290    4.7990   -8.3220 N.3    75  ASP75      -0.1239
    133  CA        -7.6490    4.7790   -9.2560 C.3    75  ASP75       0.1674
    134  C         -8.9130    5.3250   -8.5960 C.2    75  ASP75       0.2266
    135  O         -9.7350    5.9670   -9.2460 O.2    75  ASP75      -0.2867
    136  CB        -7.9010    3.3580   -9.7690 C.3    75  ASP75       0.1410
    137  CG        -6.7020    2.7750  -10.4980 C.2    75  ASP75       0.3668
    138  OD1       -5.8450    3.5530  -10.9660 O.co2  75  ASP75      -0.2456
    139  OD2       -6.6190    1.5330  -10.6090 O.co2  75  ASP75      -0.2456
    140  N         -5.2860   -0.6140   -1.3730 N.3   120  LEU120     -0.1245
    141  CA        -6.5410   -1.0930   -1.9410 C.3   120  LEU120      0.1561
    142  C         -7.7290   -0.6050   -1.1230 C.2   120  LEU120      0.2260
    143  O         -7.6280   -0.4200    0.0890 O.2   120  LEU120     -0.2867
    144  CB        -6.5480   -2.6200   -2.0160 C.3   120  LEU120      0.0270
    145  CG        -5.4460   -3.2460   -2.8710 C.3   120  LEU120      0.0019
    146  CD1       -5.6990   -4.7320   -3.0450 C.3   120  LEU120      0.0001
    147  CD2       -5.3460   -2.5590   -4.2240 C.3   120  LEU120      0.0001
    148  N         -1.1540   -3.1730    0.7510 N.3   130  ALA130     -0.1231
    149  CA        -0.9210   -4.3390   -0.0930 C.3   130  ALA130      0.1694
    150  C          0.4340   -4.2270   -0.7830 C.2   130  ALA130      0.2592
    151  O          1.1910   -3.2900   -0.5300 O.2   130  ALA130     -0.2718
    152  CB        -2.0260   -4.4650   -1.1250 C.3   130  ALA130      0.0304
    153  N          0.7330   -5.1850   -1.6560 N.am  131  ASP131     -0.1974
    154  CA         1.9920   -5.1900   -2.3940 C.3   131  ASP131      0.1709
    155  C          3.1920   -5.2530   -1.4530 C.2   131  ASP131      0.2293
    156  O          4.0800   -4.4020   -1.5080 O.2   131  ASP131     -0.2864
    157  CB         2.0970   -3.9540   -3.2950 C.3   131  ASP131      0.1436
    158  CG         1.2670   -4.0790   -4.5570 C.2   131  ASP131      0.3671
    159  OD1        0.0350   -3.8800   -4.4870 O.co2 131  ASP131     -0.2456
    160  OD2        1.8510   -4.3730   -5.6230 O.co2 131  ASP131     -0.2456
@<TRIPOS>BOND
     1    11    12    2
     2    11    10    1
     3     4     3    2
     4    10     9    1
     5     3     9   am
     6     3     2    1
     7     1     2    1
     8     2     5    1
     9    13    14    1
    10    16    15    2
    11    15    14    1
    12    14    17    1
    13     5     6    1
    14   138   137   ar
    15     8     6    1
    16     6     7    1
    17    17    19    1
    18    17    18    1
    19   139   137   ar
    20   137   136    1
    21    28    27    2
    22    35    36    2
    23    35    34    1
    24   136   133    1
    25   133   134    1
    26   133   132    1
    27   135   134    2
    28    34    33    1
    29    34    37    1
    30    31    29    1
    31    38    37    1
    32    38    39    1
    33    27    33   am
    34    27    26    1
    35    32    30    1
    36    29    30    1
    37    29    26    1
    38   131   130    1
    39    26    25    1
    40    39    40    1
    41   113   112    1
    42    25    22   am
    43    40    41    1
    44    74    75    1
    45   130   127    1
    46   110   112   ar
    47   110   108   ar
    48   123   122    1
    49   123   124    1
    50   112   111   ar
    51   126   127    1
    52   126   124   am
    53    22    21    1
    54    22    23    2
    55   129   128    2
    56    21    24    1
    57    21    20    1
    58   127   128    1
    59   124   125    2
    60   108   107   ar
    61    77    76    2
    62   160   158   ar
    63    75    78    1
    64    75    76    1
    65    79    81    1
    66    79    78    1
    67   111   109   ar
    68    78    80    1
    69    76    82   am
    70   117   116    2
    71    88    86    1
    72   107   109   ar
    73   107   106    1
    74   158   159   ar
    75   158   157    1
    76    82    83    1
    77   147   145    1
    78    49    48   ar
    79    83    86    1
    80    83    84    1
    81   116   115    1
    82    86    87    1
    83   106   103    1
    84   157   154    1
    85   146   145    1
    86    48    50   ar
    87    48    47    1
    88   145   144    1
    89   114   115    1
    90   114   104   am
    91   103   104    1
    92   103   102    1
    93    84    89   am
    94    84    85    2
    95    89    90    1
    96   115   118    1
    97    46    47    1
    98    46    43    1
    99   154   153    1
   100   154   155    1
   101   104   105    2
   102   118   119    1
   103    92    91    2
   104    42    43    1
   105   144   141    1
   106   141   140    1
   107   141   142    1
   108   153   150   am
   109   102    95   am
   110    96    95    2
   111   156   155    2
   112    90    91    1
   113    43    44    1
   114    91    93   am
   115    95    94    1
   116   119   120    1
   117   152   149    1
   118   142   143    2
   119   150   151    2
   120   150   149    1
   121    44    45    2
   122    93    94    1
   123   149   148    1
   124    72    71    1
   125    94    97    1
   126    64    63    1
   127   120   121    1
   128    57    58    1
   129    57    56    1
   130    65    63    1
   131    63    60    1
   132    97    98    1
   133    71    73    1
   134    71    70    1
   135    98    99    1
   136    67    70    1
   137    67    68    1
   138    67    66    1
   139    56    55    1
   140    68    69    2
   141    60    61    1
   142    60    59    1
   143    55    52    1
   144    99   101   ar
   145    99   100   ar
   146    61    62    2
   147    51    52    1
   148    52    53    1
   149    53    54    2
