@<TRIPOS>MOLECULE
tmp/4lghB00.pdb
 153 143 0 0 0
SMALL
GASTEIGER

@<TRIPOS>ATOM
      1  N         -0.4280  -17.0520   33.7460 N.3    15  LEU15      -0.1231
      2  CA        -0.6020  -17.6150   32.4130 C.3    15  LEU15       0.1693
      3  C         -1.9430  -17.2120   31.7990 C.2    15  LEU15       0.2592
      4  O         -2.0590  -17.0690   30.5800 O.2    15  LEU15      -0.2718
      5  CB        -0.4650  -19.1400   32.4550 C.3    15  LEU15       0.0284
      6  CG         0.8960  -19.7220   32.8550 C.3    15  LEU15       0.0019
      7  CD1        0.8620  -21.2480   32.8860 C.3    15  LEU15       0.0001
      8  CD2        1.9730  -19.2410   31.9070 C.3    15  LEU15       0.0001
      9  N         -2.9520  -17.0190   32.6430 N.am   16  GLY16      -0.1957
     10  CA        -4.2640  -16.6180   32.1680 C.3    16  GLY16       0.1869
     11  C         -5.2250  -16.1740   33.2540 C.2    16  GLY16       0.2309
     12  O         -5.3570  -16.8330   34.2880 O.2    16  GLY16      -0.2863
     13  N         -4.7780  -18.6470   36.1630 N.3    22  VAL22      -0.1245
     14  CA        -3.8920  -19.7980   36.0100 C.3    22  VAL22       0.1561
     15  C         -2.4310  -19.3630   36.0200 C.2    22  VAL22       0.2260
     16  O         -2.0370  -18.4690   35.2700 O.2    22  VAL22      -0.2867
     17  CB        -4.1920  -20.5970   34.7320 C.3    22  VAL22       0.0252
     18  CG1       -3.2890  -21.8170   34.6570 C.3    22  VAL22       0.0019
     19  CG2       -5.6430  -21.0310   34.7190 C.3    22  VAL22       0.0019
     20  N          1.4040  -26.3070   37.3500 N.3    34  ALA34      -0.1231
     21  CA         0.4280  -25.3150   36.9110 C.3    34  ALA34       0.1694
     22  C         -0.6160  -25.1300   38.0030 C.2    34  ALA34       0.2592
     23  O         -1.1890  -26.1060   38.4920 O.2    34  ALA34      -0.2718
     24  CB        -0.2330  -25.7460   35.6130 C.3    34  ALA34       0.0304
     25  N         -0.8650  -23.8820   38.3840 N.am   35  ILE35      -0.1966
     26  CA        -1.8030  -23.5940   39.4660 C.3    35  ILE35       0.1727
     27  C         -3.0480  -22.8610   38.9670 C.2    35  ILE35       0.2616
     28  O         -2.9530  -21.7460   38.4480 O.2    35  ILE35      -0.2715
     29  CB        -1.1350  -22.7530   40.5760 C.3    35  ILE35       0.0290
     30  CG1        0.1000  -23.4750   41.1220 C.3    35  ILE35       0.0022
     31  CG2       -2.1090  -22.5020   41.7030 C.3    35  ILE35       0.0023
     32  CD1        1.2830  -22.5610   41.3730 C.3    35  ILE35       0.0001
     33  N         -4.2120  -23.4870   39.1260 N.am   36  LYS36      -0.1977
     34  CA        -5.4750  -22.8340   38.7880 C.3    36  LYS36       0.1596
     35  C         -6.1620  -22.3250   40.0520 C.2    36  LYS36       0.2287
     36  O         -6.3190  -23.0620   41.0300 O.2    36  LYS36      -0.2864
     37  CB        -6.4040  -23.7830   38.0210 C.3    36  LYS36       0.0298
     38  CG        -7.6340  -23.0990   37.4210 C.3    36  LYS36       0.0038
     39  CD        -8.4850  -24.0660   36.5950 C.3    36  LYS36       0.0206
     40  CE        -7.7320  -24.5890   35.3770 C.3    36  LYS36       0.1093
     41  NZ        -8.5880  -25.4800   34.5380 N.3    36  LYS36      -0.1314
     42  N        -11.0770  -35.8460   39.9380 N.3    45  MET45      -0.1245
     43  CA        -9.9160  -35.7730   39.0570 C.3    45  MET45       0.1570
     44  C         -8.8410  -36.6860   39.6350 C.2    45  MET45       0.2261
     45  O         -7.7270  -36.7620   39.1160 O.2    45  MET45      -0.2867
     46  CB        -9.3660  -34.3440   38.9660 C.3    45  MET45       0.0387
     47  CG       -10.1930  -33.3440   38.1660 C.3    45  MET45       0.0595
     48  SD        -9.3660  -31.7340   38.0830 S.3    45  MET45      -0.1393
     49  CE       -10.6760  -30.6820   37.4550 C.3    45  MET45       0.0692
     50  N         -3.9580  -34.8010   31.6680 N.3    54  VAL54      -0.1231
     51  CA        -3.1850  -33.9540   32.5700 C.3    54  VAL54       0.1692
     52  C         -3.4890  -34.3760   34.0020 C.2    54  VAL54       0.2592
     53  O         -4.6350  -34.3000   34.4470 O.2    54  VAL54      -0.2718
     54  CB        -3.5200  -32.4650   32.3830 C.3    54  VAL54       0.0266
     55  CG1       -2.6140  -31.6020   33.2480 C.3    54  VAL54       0.0020
     56  CG2       -3.3650  -32.0800   30.9270 C.3    54  VAL54       0.0020
     57  N         -2.4630  -34.8330   34.7140 N.am   55  GLN55      -0.1966
     58  CA        -2.6410  -35.3880   36.0540 C.3    55  GLN55       0.1733
     59  C         -2.8490  -34.3050   37.1060 C.2    55  GLN55       0.2616
     60  O         -2.1620  -33.2810   37.0980 O.2    55  GLN55      -0.2715
     61  CB        -1.4390  -36.2630   36.4310 C.3    55  GLN55       0.0408
     62  CG        -0.0940  -35.5920   36.1750 C.3    55  GLN55       0.0908
     63  CD         1.0840  -36.5490   36.2640 C.2    55  GLN55       0.2608
     64  OE1        2.2440  -36.1300   36.2470 O.2    55  GLN55      -0.2717
     65  NE2        0.7920  -37.8420   36.3500 N.am   55  GLN55      -0.0878
     66  N         -3.8060  -34.5320   38.0020 N.am   56  LEU56      -0.1977
     67  CA        -4.0100  -33.6500   39.1460 C.3    56  LEU56       0.1596
     68  C         -3.0060  -33.9970   40.2430 C.2    56  LEU56       0.2287
     69  O         -2.8630  -35.1630   40.6110 O.2    56  LEU56      -0.2864
     70  CB        -5.4360  -33.7830   39.6860 C.3    56  LEU56       0.0297
     71  CG        -5.7950  -32.7540   40.7610 C.3    56  LEU56       0.0022
     72  CD1       -5.7580  -31.3740   40.1530 C.3    56  LEU56       0.0001
     73  CD2       -7.1550  -33.0200   41.3920 C.3    56  LEU56       0.0001
     74  N         -6.0390  -25.2840   42.5900 N.3    67  ILE67      -0.1245
     75  CA        -5.8970  -26.5680   41.9100 C.3    67  ILE67       0.1561
     76  C         -4.4960  -26.7120   41.3190 C.2    67  ILE67       0.2260
     77  O         -4.1110  -25.9630   40.4170 O.2    67  ILE67      -0.2867
     78  CB        -6.9610  -26.7470   40.8050 C.3    67  ILE67       0.0252
     79  CG1       -8.3510  -26.8750   41.4320 C.3    67  ILE67       0.0019
     80  CG2       -6.6680  -27.9750   39.9680 C.3    67  ILE67       0.0019
     81  CD1       -9.4240  -27.3030   40.4580 C.3    67  ILE67       0.0001
     82  N         -1.7280  -29.0280   39.3080 N.3    69  GLY69      -0.1210
     83  CA        -1.6350  -30.1470   38.3870 C.3    69  GLY69       0.1956
     84  C         -0.3480  -30.1600   37.5850 C.2    69  GLY69       0.2612
     85  O          0.5430  -29.3370   37.8060 O.2    69  GLY69      -0.2717
     86  N         -0.2580  -31.1030   36.6500 N.am   70  GLU70      -0.1965
     87  CA         0.9170  -31.2570   35.8000 C.3    70  GLU70       0.1733
     88  C          1.1100  -30.0370   34.9060 C.2    70  GLU70       0.2616
     89  O          0.1640  -29.5740   34.2580 O.2    70  GLU70      -0.2715
     90  CB         0.7600  -32.5060   34.9280 C.3    70  GLU70       0.0429
     91  CG         1.9810  -32.8820   34.1030 C.3    70  GLU70       0.1163
     92  CD         1.7710  -34.1580   33.2990 C.2    70  GLU70       0.3649
     93  OE1        0.6140  -34.6260   33.2030 O.co2  70  GLU70      -0.2457
     94  OE2        2.7630  -34.6960   32.7630 O.co2  70  GLU70      -0.2457
     95  N          2.3320  -29.5150   34.8670 N.am   71  TYR71      -0.1960
     96  CA         2.6290  -28.3770   34.0080 C.3    71  TYR71       0.1771
     97  C          3.0030  -28.8160   32.5960 C.2    71  TYR71       0.2619
     98  O          3.8460  -29.6960   32.4030 O.2    71  TYR71      -0.2715
     99  CB         3.7430  -27.5130   34.6010 C.3    71  TYR71       0.0574
    100  CG         4.0330  -26.2740   33.7860 C.ar   71  TYR71      -0.0198
    101  CD1        3.0820  -25.2710   33.6510 C.ar   71  TYR71      -0.0009
    102  CD2        5.2550  -26.1050   33.1550 C.ar   71  TYR71      -0.0009
    103  CE1        3.3400  -24.1380   32.9040 C.ar   71  TYR71       0.0417
    104  CE2        5.5230  -24.9720   32.4080 C.ar   71  TYR71       0.0417
    105  CZ         4.5630  -23.9930   32.2860 C.ar   71  TYR71       0.1957
    106  OH         4.8260  -22.8640   31.5470 O.3    71  TYR71      -0.2866
    107  N          2.3630  -28.1940   31.6120 N.am   72  MET72      -0.1977
    108  CA         2.6760  -28.4410   30.2110 C.3    72  MET72       0.1605
    109  C          3.3550  -27.1960   29.6390 C.2    72  MET72       0.2287
    110  O          2.7340  -26.1380   29.5160 O.2    72  MET72      -0.2864
    111  CB         1.4000  -28.7680   29.4320 C.3    72  MET72       0.0413
    112  CG         0.4650  -29.7350   30.1460 C.3    72  MET72       0.0598
    113  SD         1.1670  -31.3730   30.4730 S.3    72  MET72      -0.1393
    114  CE         1.3370  -32.0170   28.8050 C.3    72  MET72       0.0692
    115  N          1.7180  -24.7980   26.5850 N.3    75  GLY75      -0.1210
    116  CA         0.3670  -24.2620   26.5900 C.3    75  GLY75       0.1956
    117  C         -0.5610  -25.0700   25.6960 C.2    75  GLY75       0.2612
    118  O         -0.3560  -26.2710   25.5160 O.2    75  GLY75      -0.2717
    119  N         -1.5800  -24.4220   25.1340 N.am   76  SER76      -0.1952
    120  CA        -2.5340  -25.1120   24.2610 C.3    76  SER76       0.1924
    121  C         -1.9040  -25.5950   22.9510 C.2    76  SER76       0.2314
    122  O         -0.8930  -25.0540   22.4960 O.2    76  SER76      -0.2863
    123  CB        -3.7440  -24.2240   23.9580 C.3    76  SER76       0.2116
    124  OG        -3.4080  -23.1950   23.0430 O.3    76  SER76      -0.2180
    125  N         -1.9940  -22.7870   20.2400 N.3    79  ASP79      -0.1239
    126  CA        -0.9190  -21.7990   20.3090 C.3    79  ASP79       0.1674
    127  C          0.4010  -22.3900   19.8090 C.2    79  ASP79       0.2266
    128  O          1.2120  -21.6990   19.1980 O.2    79  ASP79      -0.2867
    129  CB        -0.7510  -21.2770   21.7400 C.3    79  ASP79       0.1410
    130  CG        -2.0000  -20.5920   22.2660 C.2    79  ASP79       0.3668
    131  OD1       -2.7610  -20.0160   21.4580 O.co2  79  ASP79      -0.2456
    132  OD2       -2.2150  -20.6290   23.4960 O.co2  79  ASP79      -0.2456
    133  N         -3.2200  -29.7720   25.6010 N.3   124  LEU124     -0.1245
    134  CA        -1.9930  -29.1670   26.1220 C.3   124  LEU124      0.1561
    135  C         -0.7490  -29.9170   25.6290 C.2   124  LEU124      0.2260
    136  O         -0.7630  -31.1450   25.5100 O.2   124  LEU124     -0.2867
    137  CB        -2.0360  -29.1220   27.6510 C.3   124  LEU124      0.0270
    138  CG        -3.2600  -28.4040   28.2300 C.3   124  LEU124      0.0019
    139  CD1       -3.4030  -28.6610   29.7220 C.3   124  LEU124      0.0001
    140  CD2       -3.1760  -26.9110   27.9600 C.3   124  LEU124      0.0001
    141  N         -6.9230  -32.0850   28.9240 N.3   134  ALA134     -0.1231
    142  CA        -6.8860  -31.3450   30.1850 C.3   134  ALA134      0.1694
    143  C         -8.0240  -31.7030   31.1380 C.2   134  ALA134      0.2592
    144  O         -8.5300  -32.8290   31.1400 O.2   134  ALA134     -0.2718
    145  CB        -6.8950  -29.8530   29.9120 C.3   134  ALA134      0.0304
    146  N         -8.4140  -30.7210   31.9470 N.am  135  ASP135     -0.1974
    147  CA        -9.5150  -30.8700   32.8910 C.3   135  ASP135      0.1709
    148  C        -10.8420  -30.4560   32.2560 C.2   135  ASP135      0.2293
    149  O        -11.3720  -29.3750   32.5290 O.2   135  ASP135     -0.2864
    150  CB        -9.2460  -30.0510   34.1590 C.3   135  ASP135      0.1436
    151  CG        -8.9570  -28.5900   33.8620 C.2   135  ASP135      0.3671
    152  OD1       -8.5700  -28.2780   32.7160 O.co2 135  ASP135     -0.2456
    153  OD2       -9.1260  -27.7540   34.7720 O.co2 135  ASP135     -0.2456
@<TRIPOS>BOND
     1   128   127    2
     2   127   126    1
     3   125   126    1
     4   126   129    1
     5   131   130   ar
     6   129   130    1
     7   130   132   ar
     8   122   121    2
     9   121   120    1
    10   124   123    1
    11   123   120    1
    12   120   119    1
    13   119   117   am
    14   136   135    2
    15   118   117    2
    16   133   134    1
    17   135   134    1
    18   117   116    1
    19   134   137    1
    20   115   116    1
    21   137   138    1
    22   140   138    1
    23   138   139    1
    24   114   113    1
    25   141   142    1
    26   111   112    1
    27   111   108    1
    28   110   109    2
    29   109   108    1
    30   145   142    1
    31   112   113    1
    32   142   143    1
    33   108   107    1
    34     4     3    2
    35    56    54    1
    36   143   144    2
    37   143   146   am
    38   106   105    1
    39   107    97   am
    40    50    51    1
    41     3     2    1
    42     3     9   am
    43     8     6    1
    44   146   147    1
    45    10     9    1
    46    10    11    1
    47   148   149    2
    48   148   147    1
    49   105   104   ar
    50   105   103   ar
    51    54    51    1
    52    54    55    1
    53    98    97    2
    54   104   102   ar
    55     2     5    1
    56     2     1    1
    57     5     6    1
    58    51    52    1
    59    97    96    1
    60   152   151   ar
    61    94    92   ar
    62     6     7    1
    63   147   150    1
    64   103   101   ar
    65   102   100   ar
    66    93    92   ar
    67    11    12    2
    68    92    91    1
    69   101   100   ar
    70   100    99    1
    71   151   150    1
    72   151   153   ar
    73    52    53    2
    74    52    57   am
    75    96    99    1
    76    96    95    1
    77    91    90    1
    78    89    88    2
    79    41    40    1
    80    18    17    1
    81    57    58    1
    82    19    17    1
    83    17    14    1
    84    95    88   am
    85    88    87    1
    86    90    87    1
    87    16    15    2
    88    40    39    1
    89    24    21    1
    90    87    86    1
    91    14    15    1
    92    14    13    1
    93    58    61    1
    94    58    59    1
    95    62    63    1
    96    62    61    1
    97    64    63    2
    98    63    65   am
    99    39    38    1
   100    86    84   am
   101    21    20    1
   102    21    22    1
   103    60    59    2
   104    59    66   am
   105    38    37    1
   106    49    48    1
   107    84    85    2
   108    84    83    1
   109    66    67    1
   110    22    25   am
   111    22    23    2
   112    37    34    1
   113    48    47    1
   114    47    46    1
   115    25    26    1
   116    83    82    1
   117    28    27    2
   118    34    33    1
   119    34    35    1
   120    46    43    1
   121    27    33   am
   122    27    26    1
   123    43    44    1
   124    43    42    1
   125    45    44    2
   126    67    70    1
   127    67    68    1
   128    26    29    1
   129    70    71    1
   130    80    78    1
   131    35    36    2
   132    72    71    1
   133    68    69    2
   134    77    76    2
   135    81    79    1
   136    29    30    1
   137    29    31    1
   138    71    73    1
   139    78    79    1
   140    78    75    1
   141    30    32    1
   142    76    75    1
   143    75    74    1
