@<TRIPOS>MOLECULE
tmp/4lgqA00.pdb
 93 87 0 0 0
SMALL
GASTEIGER

@<TRIPOS>ATOM
      1  N         56.6710   11.2050  117.0780 N.3    34  SER34      -0.1217
      2  CA        55.5760   12.0990  117.4360 C.3    34  SER34       0.1889
      3  C         56.0820   13.3640  118.1490 C.2    34  SER34       0.2288
      4  O         55.2780   14.1180  118.7020 O.2    34  SER34      -0.2866
      5  CB        54.5840   11.3610  118.3230 C.3    34  SER34       0.2089
      6  OG        53.9640   10.3300  117.5740 O.3    34  SER34      -0.2183
      7  N         60.2590   16.1590  127.7890 N.3    49  PHE49      -0.1241
      8  CA        58.8060   16.2220  127.7880 C.3    49  PHE49       0.1605
      9  C         58.2750   15.8790  129.1720 C.2    49  PHE49       0.2264
     10  O         57.3480   16.5390  129.6520 O.2    49  PHE49      -0.2867
     11  CB        58.2150   15.2810  126.7280 C.3    49  PHE49       0.0534
     12  CG        56.7270   15.0340  126.8730 C.ar   49  PHE49      -0.0203
     13  CD1       55.8010   15.9380  126.3620 C.ar   49  PHE49      -0.0042
     14  CD2       56.2540   13.9060  127.5320 C.ar   49  PHE49      -0.0042
     15  CE1       54.4330   15.7200  126.5150 C.ar   49  PHE49      -0.0003
     16  CE2       54.8850   13.6890  127.6800 C.ar   49  PHE49      -0.0003
     17  CZ        53.9870   14.5910  127.1660 C.ar   49  PHE49      -0.0000
     18  N         55.3660   17.3890  131.4210 N.3    53  LEU53      -0.1245
     19  CA        54.3470   16.5010  131.9860 C.3    53  LEU53       0.1561
     20  C         54.2880   16.5140  133.5130 C.2    53  LEU53       0.2260
     21  O         53.2100   16.7690  134.0560 O.2    53  LEU53      -0.2867
     22  CB        54.5130   15.0480  131.5260 C.3    53  LEU53       0.0270
     23  CG        53.2580   14.2170  131.7510 C.3    53  LEU53       0.0019
     24  CD1       52.2650   14.4440  130.6390 C.3    53  LEU53       0.0001
     25  CD2       53.5930   12.7510  131.9210 C.3    53  LEU53       0.0001
     26  N         45.6820    8.0150  131.0510 N.3    80  ILE80      -0.1245
     27  CA        46.4910    8.7160  132.0630 C.3    80  ILE80       0.1561
     28  C         45.5230    9.4880  132.9810 C.2    80  ILE80       0.2260
     29  O         44.7640   10.3400  132.5030 O.2    80  ILE80      -0.2867
     30  CB        47.5780    9.6430  131.4490 C.3    80  ILE80       0.0252
     31  CG1       48.4390    8.9010  130.3940 C.3    80  ILE80       0.0019
     32  CG2       48.4270   10.2680  132.5440 C.3    80  ILE80       0.0019
     33  CD1       49.3460    9.7880  129.5910 C.3    80  ILE80       0.0001
     34  N         49.4250   23.4860  131.9440 N.3    88  PHE88      -0.1227
     35  CA        49.1670   22.4280  130.9700 C.3    88  PHE88       0.1736
     36  C         48.4840   22.9830  129.7420 C.2    88  PHE88       0.2595
     37  O         47.3090   23.3500  129.7870 O.2    88  PHE88      -0.2718
     38  CB        48.3090   21.3320  131.6090 C.3    88  PHE88       0.0547
     39  CG        48.1210   20.0850  130.7900 C.ar   88  PHE88      -0.0202
     40  CD1       49.1570   19.1760  130.6290 C.ar   88  PHE88      -0.0042
     41  CD2       46.8840   19.7660  130.2570 C.ar   88  PHE88      -0.0042
     42  CE1       48.9720   18.0000  129.8930 C.ar   88  PHE88      -0.0003
     43  CE2       46.6930   18.5740  129.5380 C.ar   88  PHE88      -0.0003
     44  CZ        47.7370   17.7010  129.3610 C.ar   88  PHE88      -0.0000
     45  N         49.2480   23.0620  128.6410 N.am   89  PHE89      -0.1976
     46  CA        48.8280   23.5400  127.3220 C.3    89  PHE89       0.1639
     47  C         47.9910   24.8260  127.4170 C.2    89  PHE89       0.2290
     48  O         46.8780   24.9030  126.8810 O.2    89  PHE89      -0.2864
     49  CB        48.0620   22.4480  126.5720 C.3    89  PHE89       0.0560
     50  CG        48.9840   21.3330  126.1530 C.ar   89  PHE89      -0.0200
     51  CD1       49.7130   21.4210  124.9730 C.ar   89  PHE89      -0.0042
     52  CD2       49.1510   20.2090  126.9530 C.ar   89  PHE89      -0.0042
     53  CE1       50.5860   20.3980  124.5940 C.ar   89  PHE89      -0.0003
     54  CE2       50.0160   19.1810  126.5700 C.ar   89  PHE89      -0.0003
     55  CZ        50.7290   19.2800  125.3930 C.ar   89  PHE89      -0.0000
     56  N         43.2700   11.4870  130.6190 N.3   100  ILE100     -0.1245
     57  CA        43.7490   11.6820  129.2560 C.3   100  ILE100      0.1561
     58  C         43.7560   10.3290  128.5580 C.2   100  ILE100      0.2260
     59  O         44.4990    9.4360  128.9610 O.2   100  ILE100     -0.2867
     60  CB        45.1600   12.3540  129.2360 C.3   100  ILE100      0.0252
     61  CG1       45.1950   13.6640  130.0770 C.3   100  ILE100      0.0019
     62  CG2       45.6560   12.5740  127.7980 C.3   100  ILE100      0.0019
     63  CD1       46.6020   14.1710  130.4770 C.3   100  ILE100      0.0001
     64  N         44.9550    7.9370  125.7510 N.3   102  ALA102     -0.1245
     65  CA        46.0880    7.9090  124.8380 C.3   102  ALA102      0.1562
     66  C         46.3130    6.5260  124.2110 C.2   102  ALA102      0.2260
     67  O         45.7610    5.5080  124.6560 O.2   102  ALA102     -0.2867
     68  CB        47.3640    8.3390  125.5630 C.3   102  ALA102      0.0290
     69  N         52.9690    8.5160  119.3540 N.3   117  SER117     -0.1202
     70  CA        51.9580    8.7830  120.3600 C.3   117  SER117      0.2020
     71  C         50.7270    9.4550  119.7500 C.2   117  SER117      0.2619
     72  O         50.7940   10.1030  118.6960 O.2   117  SER117     -0.2717
     73  CB        52.5420    9.6730  121.4510 C.3   117  SER117      0.2103
     74  OG        51.6980    9.7410  122.5840 O.3   117  SER117     -0.2182
     75  N         49.5980    9.2660  120.4270 N.am  118  CYS118     -0.1955
     76  CA        48.3320    9.9070  120.1740 C.3   118  CYS118      0.1843
     77  C         47.6730   10.0920  121.4990 C.2   118  CYS118      0.2625
     78  O         47.6590    9.1600  122.2990 O.2   118  CYS118     -0.2714
     79  CB        47.4660    9.1180  119.1970 C.3   118  CYS118      0.0997
     80  SG        46.0390   10.0460  118.5640 S.3   118  CYS118     -0.0797
     81  N         47.2310   11.3160  121.7950 N.am  119  ALA119     -0.1977
     82  CA        46.5430   11.6050  123.0500 C.3   119  ALA119      0.1597
     83  C         45.4030   12.5770  122.8080 C.2   119  ALA119      0.2287
     84  O         45.4990   13.4320  121.9260 O.2   119  ALA119     -0.2864
     85  CB        47.5050   12.1540  124.0780 C.3   119  ALA119      0.0319
     86  N         44.2370   15.5220  123.8940 N.3   121  LEU121     -0.1245
     87  CA        44.4190   16.7900  124.6260 C.3   121  LEU121      0.1561
     88  C         43.1600   17.6380  124.5770 C.2   121  LEU121      0.2260
     89  O         42.8870   18.3750  125.5290 O.2   121  LEU121     -0.2867
     90  CB        45.5780   17.6430  124.0920 C.3   121  LEU121      0.0270
     91  CG        46.9560   17.0790  123.9550 C.3   121  LEU121      0.0019
     92  CD1       47.8500   18.1330  123.2980 C.3   121  LEU121      0.0001
     93  CD2       47.5250   16.6400  125.3100 C.3   121  LEU121      0.0001
@<TRIPOS>BOND
     1     1     2    1
     2     2     3    1
     3     2     5    1
     4     6     5    1
     5     3     4    2
     6    80    79    1
     7    72    71    2
     8    79    76    1
     9    69    70    1
    10    71    70    1
    11    71    75   am
    12    76    75    1
    13    76    77    1
    14    70    73    1
    15    73    74    1
    16    77    81   am
    17    77    78    2
    18    81    82    1
    19    84    83    2
    20    83    82    1
    21    82    85    1
    22    92    91    1
    23    86    87    1
    24    91    90    1
    25    91    93    1
    26    90    87    1
    27    66    67    2
    28    66    65    1
    29    88    87    1
    30    88    89    2
    31    53    51   ar
    32    53    55   ar
    33    65    68    1
    34    65    64    1
    35    51    50   ar
    36    55    54   ar
    37    50    49    1
    38    50    52   ar
    39    13    15   ar
    40    13    12   ar
    41    15    17   ar
    42    54    52   ar
    43    49    46    1
    44    11    12    1
    45    11     8    1
    46    12    14   ar
    47    48    47    2
    48    17    16   ar
    49    46    47    1
    50    46    45    1
    51    14    16   ar
    52     8     7    1
    53     8     9    1
    54    62    60    1
    55    58    59    2
    56    58    57    1
    57    45    36   am
    58     9    10    2
    59    60    57    1
    60    60    61    1
    61    57    56    1
    62    44    43   ar
    63    44    42   ar
    64    43    41   ar
    65    33    31    1
    66    36    37    2
    67    36    35    1
    68    42    40   ar
    69    61    63    1
    70    41    39   ar
    71    31    30    1
    72    40    39   ar
    73    24    23    1
    74    39    38    1
    75    35    38    1
    76    35    34    1
    77    26    27    1
    78    18    19    1
    79    30    27    1
    80    30    32    1
    81    22    23    1
    82    22    19    1
    83    23    25    1
    84    19    20    1
    85    27    28    1
    86    29    28    2
    87    20    21    2
