@<TRIPOS>MOLECULE
tmp/4lgqB00.pdb
 141 135 0 0 0
SMALL
GASTEIGER

@<TRIPOS>ATOM
      1  N         31.0250    1.1650  118.8360 N.3    32  ASN32      -0.1240
      2  CA        32.0730    2.1800  118.8060 C.3    32  ASN32       0.1653
      3  C         32.3440    2.5380  120.2490 C.2    32  ASN32       0.2266
      4  O         31.5700    3.2740  120.8650 O.2    32  ASN32      -0.2867
      5  CB        31.6840    3.3830  117.9370 C.3    32  ASN32       0.1155
      6  CG        32.6960    4.5200  117.9010 C.2    32  ASN32       0.2627
      7  OD1       33.8600    4.4010  118.3540 O.2    32  ASN32      -0.2716
      8  ND2       32.2530    5.6630  117.3470 N.am   32  ASN32      -0.0877
      9  N         34.6640    4.2530  121.4820 N.3    34  SER34      -0.1202
     10  CA        35.1650    5.6270  121.5510 C.3    34  SER34       0.2020
     11  C         34.0560    6.6490  121.3430 C.2    34  SER34       0.2619
     12  O         34.3410    7.8470  121.3420 O.2    34  SER34      -0.2717
     13  CB        36.2510    5.8440  120.5050 C.3    34  SER34       0.2103
     14  OG        37.3810    5.0880  120.8780 O.3    34  SER34      -0.2182
     15  N         32.8040    6.1960  121.1620 N.am   35  ALA35      -0.1965
     16  CA        31.6900    7.1040  120.9650 C.3    35  ALA35       0.1713
     17  C         31.4970    8.0040  122.2120 C.2    35  ALA35       0.2458
     18  O         31.5370    7.5120  123.3520 O.2    35  ALA35      -0.2730
     19  CB        30.4240    6.3260  120.6570 C.3    35  ALA35       0.0333
     20  N         31.3520    9.3380  121.9890 N.am   36  PRO36      -0.2727
     21  CA        31.1490   10.2760  123.1150 C.3    36  PRO36       0.1402
     22  C         29.9180    9.9280  123.9530 C.2    36  PRO36       0.2269
     23  O         29.0410    9.2000  123.4690 O.2    36  PRO36      -0.2865
     24  CB        30.9580   11.6240  122.4130 C.3    36  PRO36       0.0296
     25  CG        31.5660   11.4590  121.0620 C.3    36  PRO36       0.0237
     26  CD        31.3140   10.0450  120.6920 C.3    36  PRO36       0.0939
     27  N         26.4800   10.3040  122.0570 N.3    39  VAL39      -0.1245
     28  CA        26.3140    9.6150  120.7800 C.3    39  VAL39       0.1561
     29  C         26.0330    8.1090  120.9690 C.2    39  VAL39       0.2260
     30  O         26.5090    7.4910  121.9290 O.2    39  VAL39      -0.2867
     31  CB        27.5790    9.8200  119.9060 C.3    39  VAL39       0.0252
     32  CG1       27.3640    9.2960  118.4830 C.3    39  VAL39       0.0019
     33  CG2       27.9780   11.2910  119.8690 C.3    39  VAL39       0.0019
     34  N         27.6670    5.7990  114.3770 N.3    46  PHE46      -0.1241
     35  CA        28.9430    5.7890  113.6650 C.3    46  PHE46       0.1605
     36  C         28.7660    6.3770  112.2460 C.2    46  PHE46       0.2264
     37  O         29.5430    7.2350  111.8390 O.2    46  PHE46      -0.2867
     38  CB        29.4950    4.3490  113.6240 C.3    46  PHE46       0.0534
     39  CG        30.9380    4.2140  113.1840 C.ar   46  PHE46      -0.0203
     40  CD1       31.9540    4.9180  113.8310 C.ar   46  PHE46      -0.0042
     41  CD2       31.2960    3.3110  112.1930 C.ar   46  PHE46      -0.0042
     42  CE1       33.2830    4.7760  113.4430 C.ar   46  PHE46      -0.0003
     43  CE2       32.6310    3.1540  111.8310 C.ar   46  PHE46      -0.0003
     44  CZ        33.6100    3.9040  112.4490 C.ar   46  PHE46      -0.0000
     45  N         28.3110   10.1430  112.2510 N.3    49  PHE49      -0.1227
     46  CA        29.5470   10.9070  112.3810 C.3    49  PHE49       0.1736
     47  C         30.1060   11.2460  111.0020 C.2    49  PHE49       0.2595
     48  O         30.5660   12.3670  110.8090 O.2    49  PHE49      -0.2718
     49  CB        30.5860   10.1490  113.1980 C.3    49  PHE49       0.0547
     50  CG        31.9560   10.7640  113.1190 C.ar   49  PHE49      -0.0202
     51  CD1       32.2690   11.9030  113.8630 C.ar   49  PHE49      -0.0042
     52  CD2       32.9300   10.2270  112.2760 C.ar   49  PHE49      -0.0042
     53  CE1       33.5270   12.4900  113.7700 C.ar   49  PHE49      -0.0003
     54  CE2       34.1880   10.8150  112.1770 C.ar   49  PHE49      -0.0003
     55  CZ        34.4820   11.9330  112.9340 C.ar   49  PHE49      -0.0000
     56  N         30.0610   10.2890  110.0370 N.am   50  PHE50      -0.1976
     57  CA        30.5880   10.5350  108.7050 C.3    50  PHE50       0.1639
     58  C         29.6540   11.4450  107.8980 C.2    50  PHE50       0.2290
     59  O         30.0920   12.5150  107.4810 O.2    50  PHE50      -0.2864
     60  CB        30.8440    9.2160  107.9710 C.3    50  PHE50       0.0560
     61  CG        31.9010    8.3930  108.6560 C.ar   50  PHE50      -0.0200
     62  CD1       33.2460    8.7650  108.5990 C.ar   50  PHE50      -0.0042
     63  CD2       31.5550    7.2690  109.4090 C.ar   50  PHE50      -0.0042
     64  CE1       34.2310    8.0240  109.2980 C.ar   50  PHE50      -0.0003
     65  CE2       32.5390    6.5200  110.0840 C.ar   50  PHE50      -0.0003
     66  CZ        33.8690    6.9040  110.0330 C.ar   50  PHE50      -0.0000
     67  N         31.7660   14.5860  109.5090 N.3    53  LEU53      -0.1245
     68  CA        33.0410   14.5240  108.8160 C.3    53  LEU53       0.1561
     69  C         32.9580   15.0260  107.3800 C.2    53  LEU53       0.2260
     70  O         33.6490   15.9800  107.0590 O.2    53  LEU53      -0.2867
     71  CB        33.6500   13.1150  108.8260 C.3    53  LEU53       0.0270
     72  CG        35.1440   13.1000  108.5040 C.3    53  LEU53       0.0019
     73  CD1       35.9870   13.3140  109.7740 C.3    53  LEU53       0.0001
     74  CD2       35.5500   11.8140  107.8440 C.3    53  LEU53       0.0001
     75  N         44.5540   11.5400  108.1630 N.3    80  ILE80      -0.1245
     76  CA        43.4050   11.9810  107.3920 C.3    80  ILE80       0.1561
     77  C         43.7390   13.3460  106.8550 C.2    80  ILE80       0.2260
     78  O         43.7990   14.3020  107.6420 O.2    80  ILE80      -0.2867
     79  CB        42.0930   11.9720  108.1930 C.3    80  ILE80       0.0252
     80  CG1       41.7270   10.5420  108.6480 C.3    80  ILE80       0.0019
     81  CG2       40.9810   12.5840  107.3470 C.3    80  ILE80       0.0019
     82  CD1       40.6540   10.4590  109.7100 C.3    80  ILE80       0.0001
     83  N         34.1340   22.4860  111.6130 N.3    88  PHE88      -0.1227
     84  CA        34.7850   21.3280  112.2060 C.3    88  PHE88       0.1736
     85  C         35.1410   21.6460  113.6470 C.2    88  PHE88       0.2595
     86  O         35.9560   22.5370  113.8810 O.2    88  PHE88      -0.2718
     87  CB        36.0250   20.9930  111.3630 C.3    88  PHE88       0.0547
     88  CG        36.7880   19.7720  111.7890 C.ar   88  PHE88      -0.0202
     89  CD1       36.2750   18.4970  111.5690 C.ar   88  PHE88      -0.0042
     90  CD2       38.0550   19.8870  112.3480 C.ar   88  PHE88      -0.0042
     91  CE1       36.9880   17.3610  111.9760 C.ar   88  PHE88      -0.0003
     92  CE2       38.7800   18.7540  112.7150 C.ar   88  PHE88      -0.0003
     93  CZ        38.2410   17.4990  112.5280 C.ar   88  PHE88      -0.0000
     94  N         34.5010   20.9660  114.6050 N.am   89  PHE89      -0.1976
     95  CA        34.7050   21.1620  116.0480 C.3    89  PHE89       0.1639
     96  C         34.6320   22.6570  116.4380 C.2    89  PHE89       0.2290
     97  O         35.4640   23.1670  117.1840 O.2    89  PHE89      -0.2864
     98  CB        36.0220   20.5330  116.5150 C.3    89  PHE89       0.0560
     99  CG        35.8680   19.0410  116.6050 C.ar   89  PHE89      -0.0200
    100  CD1       35.4030   18.4430  117.7770 C.ar   89  PHE89      -0.0042
    101  CD2       36.1210   18.2300  115.5010 C.ar   89  PHE89      -0.0042
    102  CE1       35.2210   17.0510  117.8500 C.ar   89  PHE89      -0.0003
    103  CE2       35.9350   16.8400  115.5720 C.ar   89  PHE89      -0.0003
    104  CZ        35.4870   16.2580  116.7470 C.ar   89  PHE89      -0.0000
    105  N         45.1160   15.3240  109.8090 N.3   100  ILE100     -0.1245
    106  CA        44.7310   14.8600  111.1440 C.3   100  ILE100      0.1561
    107  C         45.4260   13.5410  111.4290 C.2   100  ILE100      0.2260
    108  O         45.2350   12.5700  110.7050 O.2   100  ILE100     -0.2867
    109  CB        43.1980   14.7430  111.2660 C.3   100  ILE100      0.0252
    110  CG1       42.4990   16.0530  110.7790 C.3   100  ILE100      0.0019
    111  CG2       42.8090   14.3980  112.6990 C.3   100  ILE100      0.0019
    112  CD1       41.0050   15.8890  110.3660 C.3   100  ILE100      0.0001
    113  N         35.2650   -0.9380  117.6380 N.3   115  HIS115     -0.1241
    114  CA        36.1300    0.1690  117.2300 C.3   115  HIS115      0.1621
    115  C         36.4570    1.0930  118.4030 C.2   115  HIS115      0.2264
    116  O         35.5990    1.3990  119.2290 O.2   115  HIS115     -0.2867
    117  CB        35.4120    0.9510  116.1050 C.3   115  HIS115      0.0745
    118  CG        35.9720    2.2900  115.7380 C.ar  115  HIS115      0.0817
    119  ND1       35.5670    3.4550  116.3950 N.ar  115  HIS115     -0.2268
    120  CD2       36.8050    2.6240  114.7340 C.ar  115  HIS115      0.1154
    121  CE1       36.2140    4.4420  115.8080 C.ar  115  HIS115      0.1986
    122  NE2       36.9780    3.9980  114.8100 N.ar  115  HIS115     -0.2212
    123  N         39.0060    4.7530  118.7300 N.3   117  SER117     -0.1217
    124  CA        39.6730    5.7800  117.9530 C.3   117  SER117      0.1889
    125  C         40.4130    6.7930  118.8600 C.2   117  SER117      0.2288
    126  O         40.0200    7.0410  119.9980 O.2   117  SER117     -0.2866
    127  CB        38.6630    6.5030  117.0700 C.3   117  SER117      0.2089
    128  OG        39.3130    7.4020  116.1790 O.3   117  SER117     -0.2183
    129  N         42.5900   10.6340  117.9630 N.3   119  ALA119     -0.1245
    130  CA        42.9450   11.6010  116.9380 C.3   119  ALA119      0.1562
    131  C         43.5370   12.8800  117.5440 C.2   119  ALA119      0.2260
    132  O         43.1850   13.2960  118.6580 O.2   119  ALA119     -0.2867
    133  CB        41.7210   11.9390  116.0960 C.3   119  ALA119      0.0290
    134  N         43.0190   16.1730  117.5450 N.3   121  LEU121     -0.1245
    135  CA        42.1880   17.3470  117.2730 C.3   121  LEU121      0.1561
    136  C         42.8610   18.5910  117.7420 C.2   121  LEU121      0.2260
    137  O         42.6910   19.6200  117.1050 O.2   121  LEU121     -0.2867
    138  CB        40.7960   17.3100  117.9010 C.3   121  LEU121      0.0270
    139  CG        39.8990   16.1510  117.6060 C.3   121  LEU121      0.0019
    140  CD1       38.7020   16.2130  118.4920 C.3   121  LEU121      0.0001
    141  CD2       39.5050   16.0880  116.1140 C.3   121  LEU121      0.0001
@<TRIPOS>BOND
     1    77    76    1
     2    77    78    2
     3    70    69    2
     4    81    79    1
     5    69    68    1
     6    76    75    1
     7    76    79    1
     8    59    58    2
     9    74    72    1
    10    58    57    1
    11    60    61    1
    12    60    57    1
    13    79    80    1
    14    72    71    1
    15    72    73    1
    16    62    61   ar
    17    62    64   ar
    18    80    82    1
    19    61    63   ar
    20    57    56    1
    21    68    71    1
    22    68    67    1
    23    64    66   ar
    24    63    65   ar
    25   105   106    1
    26    66    65   ar
    27    56    47   am
    28   112   110    1
    29   108   107    2
    30   110   109    1
    31    48    47    2
    32    47    46    1
    33   106   109    1
    34   106   107    1
    35   109   111    1
    36    87    88    1
    37    87    84    1
    38    89    88   ar
    39    89    91   ar
    40    83    84    1
    41    88    90   ar
    42    43    41   ar
    43    43    44   ar
    44    37    36    2
    45    91    93   ar
    46    54    52   ar
    47    54    55   ar
    48    41    39   ar
    49    84    85    1
    50    36    35    1
    51    45    46    1
    52    52    50   ar
    53    90    92   ar
    54    46    49    1
    55    44    42   ar
    56    93    92   ar
    57    55    53   ar
    58    50    49    1
    59    50    51   ar
    60    39    38    1
    61    39    40   ar
    62    42    40   ar
    63    38    35    1
    64    85    86    2
    65    85    94   am
    66    35    34    1
    67    53    51   ar
    68    94    95    1
    69   120   122   ar
    70   120   118   ar
    71   122   121   ar
    72   101   103   ar
    73   101    99   ar
    74   103   104   ar
    75   118   117    1
    76   118   119   ar
    77   121   119   ar
    78    95    96    1
    79    95    98    1
    80   133   130    1
    81   117   114    1
    82   141   139    1
    83   128   127    1
    84    96    97    2
    85    98    99    1
    86    99   100   ar
    87   104   102   ar
    88   130   131    1
    89   130   129    1
    90   127   124    1
    91   137   136    2
    92   114   113    1
    93   114   115    1
    94   135   134    1
    95   135   136    1
    96   135   138    1
    97     8     6   am
    98   131   132    2
    99   139   138    1
   100   139   140    1
   101   100   102   ar
   102     6     5    1
   103     6     7    2
   104     5     2    1
   105   124   123    1
   106   124   125    1
   107   115   116    2
   108    32    31    1
   109     2     1    1
   110     2     3    1
   111   125   126    2
   112    33    31    1
   113    31    28    1
   114     3     4    2
   115    13    14    1
   116    13    10    1
   117    19    16    1
   118    26    25    1
   119    26    20    1
   120    28    29    1
   121    28    27    1
   122    16    15    1
   123    16    17    1
   124    29    30    2
   125    25    24    1
   126    15    11   am
   127    12    11    2
   128    11    10    1
   129     9    10    1
   130    20    17   am
   131    20    21    1
   132    17    18    2
   133    24    21    1
   134    21    22    1
   135    23    22    2
