@<TRIPOS>MOLECULE
tmp/4lgqC01.pdb
 96 92 0 0 0
SMALL
GASTEIGER

@<TRIPOS>ATOM
      1  N         77.1300   11.2480   88.8990 N.3    32  ASN32      -0.1240
      2  CA        75.7320   11.0020   89.2030 C.3    32  ASN32       0.1653
      3  C         75.2260   12.2810   89.8830 C.2    32  ASN32       0.2266
      4  O         75.5210   12.5370   91.0590 O.2    32  ASN32      -0.2867
      5  CB        75.5260    9.7240   90.0380 C.3    32  ASN32       0.1155
      6  CG        74.0880    9.4170   90.4200 C.2    32  ASN32       0.2627
      7  OD1       73.1220    9.9800   89.9010 O.2    32  ASN32      -0.2716
      8  ND2       73.9110    8.5150   91.3580 N.am   32  ASN32      -0.0877
      9  N         72.2780   13.0180   90.6140 N.3    34  SER34      -0.1217
     10  CA        71.1730   12.6400   91.4850 C.3    34  SER34       0.1889
     11  C         71.6700   11.8880   92.7200 C.2    34  SER34       0.2288
     12  O         70.8630   11.3190   93.4550 O.2    34  SER34      -0.2866
     13  CB        70.1760   11.7810   90.7110 C.3    34  SER34       0.2089
     14  OG        69.5440   12.5530   89.7070 O.3    34  SER34      -0.2183
     15  N         72.6980   11.0830   96.4400 N.3    36  PRO36      -0.2116
     16  CA        72.3010   11.6900   97.7280 C.3    36  PRO36       0.1372
     17  C         73.4390   12.5080   98.3780 C.2    36  PRO36       0.2244
     18  O         74.6130   12.3520   97.9890 O.2    36  PRO36      -0.2868
     19  CB        71.9350   10.4790   98.5930 C.3    36  PRO36       0.0268
     20  CG        71.6290    9.4190   97.6470 C.3    36  PRO36       0.0207
     21  CD        72.5650    9.6180   96.4980 C.3    36  PRO36       0.0892
     22  N         76.5430   10.4210   99.6210 N.3    39  VAL39      -0.1245
     23  CA        77.1080    9.4780   98.6500 C.3    39  VAL39       0.1561
     24  C         78.0040   10.1940   97.6260 C.2    39  VAL39       0.2260
     25  O         77.7650   11.3520   97.2560 O.2    39  VAL39      -0.2867
     26  CB        75.9730    8.6950   97.9290 C.3    39  VAL39       0.0252
     27  CG1       76.5300    7.5810   97.0410 C.3    39  VAL39       0.0019
     28  CG2       74.9750    8.1170   98.9350 C.3    39  VAL39       0.0019
     29  N         78.0520    5.2340   92.5880 N.3    46  PHE46      -0.1241
     30  CA        76.9860    4.7500   91.7040 C.3    46  PHE46       0.1605
     31  C         76.9430    3.2170   91.7330 C.2    46  PHE46       0.2264
     32  O         75.8540    2.6510   91.8560 O.2    46  PHE46      -0.2867
     33  CB        77.1840    5.2860   90.2690 C.3    46  PHE46       0.0534
     34  CG        76.0400    5.0640   89.2920 C.ar   46  PHE46      -0.0203
     35  CD1       74.7720    5.5660   89.5540 C.ar   46  PHE46      -0.0042
     36  CD2       76.2640    4.4690   88.0540 C.ar   46  PHE46      -0.0042
     37  CE1       73.7260    5.3860   88.6420 C.ar   46  PHE46      -0.0003
     38  CE2       75.2200    4.3080   87.1330 C.ar   46  PHE46      -0.0003
     39  CZ        73.9580    4.7580   87.4390 C.ar   46  PHE46      -0.0000
     40  N         75.3790    1.8720   94.9100 N.3    49  PHE49      -0.1227
     41  CA        73.9190    1.9140   94.9380 C.3    49  PHE49       0.1736
     42  C         73.3600    0.5690   94.5200 C.2    49  PHE49       0.2595
     43  O         72.4140    0.0890   95.1420 O.2    49  PHE49      -0.2718
     44  CB        73.3780    3.0310   94.0300 C.3    49  PHE49       0.0547
     45  CG        71.8950    2.9440   93.7480 C.ar   49  PHE49      -0.0202
     46  CD1       70.9660    3.4160   94.6630 C.ar   49  PHE49      -0.0042
     47  CD2       71.4260    2.4000   92.5580 C.ar   49  PHE49      -0.0042
     48  CE1       69.5970    3.3240   94.4000 C.ar   49  PHE49      -0.0003
     49  CE2       70.0540    2.3050   92.3000 C.ar   49  PHE49      -0.0003
     50  CZ        69.1550    2.7660   93.2210 C.ar   49  PHE49      -0.0000
     51  N         73.9490   -0.0380   93.4730 N.am   50  PHE50      -0.1976
     52  CA        73.4850   -1.3170   92.9530 C.3    50  PHE50       0.1639
     53  C         73.8970   -2.4850   93.8680 C.2    50  PHE50       0.2290
     54  O         73.0260   -3.2220   94.3420 O.2    50  PHE50      -0.2864
     55  CB        74.0110   -1.5400   91.5290 C.3    50  PHE50       0.0560
     56  CG        73.4850   -0.5130   90.5620 C.ar   50  PHE50      -0.0200
     57  CD1       72.1500   -0.5290   90.1630 C.ar   50  PHE50      -0.0042
     58  CD2       74.3190    0.4770   90.0550 C.ar   50  PHE50      -0.0042
     59  CE1       71.6580    0.4300   89.2750 C.ar   50  PHE50      -0.0003
     60  CE2       73.8300    1.4360   89.1670 C.ar   50  PHE50      -0.0003
     61  CZ        72.5030    1.4020   88.7770 C.ar   50  PHE50      -0.0000
     62  N         64.2650    0.9150  101.8700 N.3    89  PHE89      -0.1241
     63  CA        63.9040    2.2330  102.3990 C.3    89  PHE89       0.1605
     64  C         63.0340    2.1190  103.6900 C.2    89  PHE89       0.2264
     65  O         61.9830    2.7660  103.8180 O.2    89  PHE89      -0.2867
     66  CB        63.1930    3.0610  101.3130 C.3    89  PHE89       0.0534
     67  CG        64.1390    3.4770  100.2150 C.ar   89  PHE89      -0.0203
     68  CD1       64.9020    4.6310  100.3320 C.ar   89  PHE89      -0.0042
     69  CD2       64.2890    2.7060   99.0730 C.ar   89  PHE89      -0.0042
     70  CE1       65.7900    5.0120   99.3140 C.ar   89  PHE89      -0.0003
     71  CE2       65.1820    3.0880   98.0550 C.ar   89  PHE89      -0.0003
     72  CZ        65.9320    4.2320   98.1890 C.ar   89  PHE89      -0.0000
     73  N         74.5760   11.4550   84.6750 N.3   115  HIS115     -0.1241
     74  CA        73.3190   10.7810   85.0050 C.3   115  HIS115      0.1621
     75  C         72.5000   11.5670   86.0070 C.2   115  HIS115      0.2264
     76  O         73.0260   12.0840   86.9870 O.2   115  HIS115     -0.2867
     77  CB        73.6390    9.3780   85.5760 C.3   115  HIS115      0.0745
     78  CG        72.5040    8.6250   86.2050 C.ar  115  HIS115      0.0817
     79  ND1       72.2150    8.7580   87.5630 N.ar  115  HIS115     -0.2268
     80  CD2       71.6920    7.6730   85.6800 C.ar  115  HIS115      0.1154
     81  CE1       71.2100    7.9260   87.8000 C.ar  115  HIS115      0.1986
     82  NE2       70.8590    7.2480   86.7020 N.ar  115  HIS115     -0.2212
     83  N         68.5010   10.8990   87.8380 N.3   117  SER117     -0.1217
     84  CA        67.4690    9.9010   88.0700 C.3   117  SER117      0.1889
     85  C         66.2990   10.4830   88.8510 C.2   117  SER117      0.2288
     86  O         66.4290   11.4730   89.5630 O.2   117  SER117     -0.2866
     87  CB        68.0390    8.7040   88.8200 C.3   117  SER117      0.2089
     88  OG        67.1100    7.6310   88.8670 O.3   117  SER117     -0.2183
     89  N         59.4980    6.2800   94.6320 N.3   121  LEU121     -0.1245
     90  CA        59.6820    5.4710   95.8420 C.3   121  LEU121      0.1561
     91  C         58.4560    5.5130   96.6810 C.2   121  LEU121      0.2260
     92  O         58.1050    4.5000   97.2800 O.2   121  LEU121     -0.2867
     93  CB        60.8780    5.9240   96.6990 C.3   121  LEU121      0.0270
     94  CG        62.2820    5.9890   96.0690 C.3   121  LEU121      0.0019
     95  CD1       63.2690    6.5740   97.0670 C.3   121  LEU121      0.0001
     96  CD2       62.7730    4.5960   95.5890 C.3   121  LEU121      0.0001
@<TRIPOS>BOND
     1    73    74    1
     2    74    77    1
     3    74    75    1
     4    77    78    1
     5    80    78   ar
     6    80    82   ar
     7    75    76    2
     8    78    79   ar
     9    82    81   ar
    10    38    39   ar
    11    38    36   ar
    12    39    37   ar
    13    79    81   ar
    14    83    84    1
    15    36    34   ar
    16    84    87    1
    17    84    85    1
    18    37    35   ar
    19    61    60   ar
    20    61    59   ar
    21    87    88    1
    22    85    86    2
    23     1     2    1
    24    60    58   ar
    25     2     3    1
    26     2     5    1
    27    59    57   ar
    28    34    35   ar
    29    34    33    1
    30    14    13    1
    31     3     4    2
    32     7     6    2
    33     5     6    1
    34    58    56   ar
    35    57    56   ar
    36    33    30    1
    37     6     8   am
    38    56    55    1
    39     9    10    1
    40    13    10    1
    41    10    11    1
    42    55    52    1
    43    30    31    1
    44    30    29    1
    45    31    32    2
    46    49    47   ar
    47    49    50   ar
    48    47    45   ar
    49    11    12    2
    50    52    51    1
    51    52    53    1
    52    50    48   ar
    53    51    42   am
    54    45    44    1
    55    45    46   ar
    56    53    54    2
    57    44    41    1
    58    48    46   ar
    59    42    41    1
    60    42    43    2
    61    89    90    1
    62    40    41    1
    63    96    94    1
    64    90    91    1
    65    90    93    1
    66    94    93    1
    67    94    95    1
    68    15    21    1
    69    15    16    1
    70    21    20    1
    71    91    92    2
    72    27    26    1
    73    25    24    2
    74    24    23    1
    75    20    19    1
    76    16    17    1
    77    16    19    1
    78    26    23    1
    79    26    28    1
    80    18    17    2
    81    71    72   ar
    82    71    69   ar
    83    72    70   ar
    84    23    22    1
    85    69    67   ar
    86    70    68   ar
    87    67    68   ar
    88    67    66    1
    89    66    63    1
    90    62    63    1
    91    63    64    1
    92    64    65    2
