@<TRIPOS>MOLECULE
tmp/4lguB00.pdb
 134 133 0 0 0
SMALL
GASTEIGER

@<TRIPOS>ATOM
      1  N          5.0910  -10.9970  -26.5260 N.3    40  VAL40      -0.1245
      2  CA         6.2970  -11.2340  -25.7350 C.3    40  VAL40       0.1561
      3  C          6.7170  -10.0880  -24.8100 C.2    40  VAL40       0.2260
      4  O          7.7290  -10.1780  -24.1220 O.2    40  VAL40      -0.2867
      5  CB         7.4900  -11.7250  -26.6080 C.3    40  VAL40       0.0252
      6  CG1        7.0360  -12.8700  -27.4950 C.3    40  VAL40       0.0019
      7  CG2        8.0650  -10.5890  -27.4410 C.3    40  VAL40       0.0019
      8  N          6.0050   -7.1520  -30.8750 N.3    45  ASP45      -0.1225
      9  CA         6.5400   -8.5150  -31.0940 C.3    45  ASP45       0.1805
     10  C          5.6340   -9.6230  -30.5240 C.2    45  ASP45       0.2598
     11  O          5.2580   -9.5920  -29.3430 O.2    45  ASP45      -0.2718
     12  CB         7.8970   -8.6790  -30.4030 C.3    45  ASP45       0.1424
     13  CG         9.0180   -7.8880  -31.0690 C.2    45  ASP45       0.3668
     14  OD1        8.7690   -7.1380  -32.0240 O.co2  45  ASP45      -0.2456
     15  OD2       10.1700   -8.0340  -30.6080 O.co2  45  ASP45      -0.2456
     16  N          5.2640  -10.5790  -31.3770 N.am   46  VAL46      -0.1966
     17  CA         4.4500  -11.7580  -30.9660 C.3    46  VAL46       0.1727
     18  C          5.1340  -13.0370  -31.4650 C.2    46  VAL46       0.2616
     19  O          5.9180  -12.9730  -32.4290 O.2    46  VAL46      -0.2715
     20  CB         2.9850  -11.7100  -31.4830 C.3    46  VAL46       0.0290
     21  CG1        2.2540  -10.4470  -30.9950 C.3    46  VAL46       0.0023
     22  CG2        2.9020  -11.8540  -33.0290 C.3    46  VAL46       0.0023
     23  N          4.8640  -14.1700  -30.7990 N.am   47  LYS47      -0.1977
     24  CA         5.4070  -15.4700  -31.1880 C.3    47  LYS47       0.1596
     25  C          4.3000  -16.5090  -31.1950 C.2    47  LYS47       0.2287
     26  O          3.3560  -16.3840  -30.4050 O.2    47  LYS47      -0.2864
     27  CB         6.4890  -15.9360  -30.1870 C.3    47  LYS47       0.0298
     28  CG         7.8290  -15.2490  -30.3360 C.3    47  LYS47       0.0038
     29  CD         8.7970  -15.8420  -29.3120 C.3    47  LYS47       0.0206
     30  CE        10.2070  -15.8970  -29.8670 C.3    47  LYS47       0.1093
     31  NZ        11.1180  -16.6380  -28.9460 N.3    47  LYS47      -0.1314
     32  N          8.2250  -15.8010  -34.8590 N.3    54  GLY54      -0.1210
     33  CA         7.9810  -14.4300  -34.3450 C.3    54  GLY54       0.1956
     34  C          7.6280  -13.4280  -35.4270 C.2    54  GLY54       0.2612
     35  O          8.2430  -13.4390  -36.5040 O.2    54  GLY54      -0.2717
     36  N          6.6530  -12.5600  -35.1410 N.am   55  LEU55      -0.1965
     37  CA         6.2220  -11.5340  -36.0820 C.3    55  LEU55       0.1728
     38  C          6.1210  -10.1550  -35.4140 C.2    55  LEU55       0.2616
     39  O          5.8640  -10.0610  -34.2050 O.2    55  LEU55      -0.2715
     40  CB         4.8800  -11.8980  -36.7240 C.3    55  LEU55       0.0311
     41  CG         4.7980  -13.1780  -37.5840 C.3    55  LEU55       0.0022
     42  CD1        3.3450  -13.3200  -38.0010 C.3    55  LEU55       0.0001
     43  CD2        5.7030  -13.1110  -38.8140 C.3    55  LEU55       0.0001
     44  N          6.3420   -9.1090  -36.2050 N.am   56  ARG56      -0.1963
     45  CA         6.3840   -7.7210  -35.6870 C.3    56  ARG56       0.1729
     46  C          6.0230   -6.7490  -36.7970 C.2    56  ARG56       0.2616
     47  O          5.8890   -7.1630  -37.9570 O.2    56  ARG56      -0.2715
     48  CB         7.7630   -7.3740  -35.0940 C.3    56  ARG56       0.0348
     49  CG         8.9480   -7.4560  -36.0520 C.3    56  ARG56       0.0492
     50  CD        10.1790   -6.7540  -35.4760 C.3    56  ARG56       0.2205
     51  NE        10.5680   -7.2780  -34.1590 N.pl3  56  ARG56      -0.0865
     52  CZ        11.7680   -7.7680  -33.8400 C.cat  56  ARG56       0.5346
     53  NH1       12.7430   -7.8070  -34.7370 N.pl3  56  ARG56       0.1354
     54  NH2       12.0040   -8.2170  -32.6090 N.pl3  56  ARG56       0.1354
     55  N          5.8660   -5.4720  -36.4420 N.am   57  CYS57      -0.1954
     56  CA         5.5920   -4.3940  -37.4170 C.3    57  CYS57       0.1843
     57  C          4.2560   -4.5970  -38.1150 C.2    57  CYS57       0.2625
     58  O          4.1520   -4.5110  -39.3510 O.2    57  CYS57      -0.2714
     59  CB         6.7480   -4.2420  -38.4110 C.3    57  CYS57       0.0997
     60  SG         8.3060   -3.8880  -37.5410 S.3    57  CYS57      -0.0797
     61  N          3.2430   -4.8500  -37.2830 N.am   58  TRP58      -0.1960
     62  CA         1.8910   -5.1330  -37.7370 C.3    58  TRP58       0.1771
     63  C          1.3110   -3.8840  -38.3730 C.2    58  TRP58       0.2619
     64  O          1.4920   -2.7840  -37.8730 O.2    58  TRP58      -0.2715
     65  CB         1.0270   -5.6090  -36.5710 C.3    58  TRP58       0.0590
     66  CG         1.4350   -6.9470  -36.1140 C.ar   58  TRP58       0.0006
     67  CD1        2.2810   -7.2590  -35.0740 C.ar   58  TRP58       0.0946
     68  CD2        1.0550   -8.1770  -36.7050 C.ar   58  TRP58       0.0152
     69  NE1        2.4220   -8.6180  -34.9750 N.ar   58  TRP58      -0.2442
     70  CE2        1.6900   -9.2080  -35.9720 C.ar   58  TRP58       0.0810
     71  CE3        0.2230   -8.5180  -37.7770 C.ar   58  TRP58       0.0012
     72  CZ2        1.5180  -10.5440  -36.2760 C.ar   58  TRP58       0.0191
     73  CZ3        0.0580   -9.8700  -38.0850 C.ar   58  TRP58       0.0001
     74  CH2        0.6870  -10.8560  -37.3330 C.ar   58  TRP58       0.0015
     75  N          0.6390   -4.0730  -39.4970 N.am   59  GLU59      -0.1977
     76  CA         0.0970   -2.9660  -40.2630 C.3    59  GLU59       0.1602
     77  C         -1.3910   -3.1520  -40.4590 C.2    59  GLU59       0.2287
     78  O         -1.9100   -4.2710  -40.4080 O.2    59  GLU59      -0.2864
     79  CB         0.7720   -2.8750  -41.6300 C.3    59  GLU59       0.0415
     80  CG         2.2680   -2.6300  -41.5800 C.3    59  GLU59       0.1163
     81  CD         2.9040   -2.5910  -42.9560 C.2    59  GLU59       0.3649
     82  OE1        2.3660   -3.2200  -43.8980 O.co2  59  GLU59      -0.2457
     83  OE2        3.9540   -1.9280  -43.0930 O.co2  59  GLU59      -0.2457
     84  N         -3.3830   -6.2130  -41.9810 N.3    62  ASP62      -0.1239
     85  CA        -2.6700   -7.5010  -41.8640 C.3    62  ASP62       0.1674
     86  C         -3.6220   -8.5220  -41.2490 C.2    62  ASP62       0.2266
     87  O         -4.3790   -8.1920  -40.3280 O.2    62  ASP62      -0.2867
     88  CB        -1.4120   -7.4260  -40.9780 C.3    62  ASP62       0.1410
     89  CG        -0.2120   -6.7500  -41.6570 C.2    62  ASP62       0.3668
     90  OD1       -0.2130   -6.5170  -42.8820 O.co2  62  ASP62      -0.2456
     91  OD2        0.7600   -6.4270  -40.9310 O.co2  62  ASP62      -0.2456
     92  N         -0.3060  -14.1990  -42.3770 N.3    67  GLU67      -0.1245
     93  CA         1.0960  -14.0000  -42.0640 C.3    67  GLU67       0.1567
     94  C          1.6950  -15.2960  -41.4980 C.2    67  GLU67       0.2260
     95  O          2.8140  -15.6350  -41.8080 O.2    67  GLU67      -0.2867
     96  CB         1.2930  -12.8240  -41.0730 C.3    67  GLU67       0.0388
     97  CG         0.8580  -11.4600  -41.6220 C.3    67  GLU67       0.1160
     98  CD         1.6200  -11.0650  -42.8810 C.2    67  GLU67       0.3649
     99  OE1        2.8550  -11.3030  -42.9370 O.co2  67  GLU67      -0.2457
    100  OE2        0.9800  -10.5320  -43.8190 O.co2  67  GLU67      -0.2457
    101  N          2.3580  -17.4190  -44.5060 N.3    70  LYS70      -0.1231
    102  CA         3.3900  -16.8280  -45.3740 C.3    70  LYS70       0.1693
    103  C          4.7970  -17.1780  -44.8720 C.2    70  LYS70       0.2592
    104  O          5.6600  -17.5860  -45.6480 O.2    70  LYS70      -0.2718
    105  CB         3.1980  -15.3060  -45.4750 C.3    70  LYS70       0.0285
    106  CG         4.2320  -14.5590  -46.3200 C.3    70  LYS70       0.0035
    107  CD         3.9420  -13.0560  -46.3300 C.3    70  LYS70       0.0206
    108  CE         4.9180  -12.2750  -47.2080 C.3    70  LYS70       0.1093
    109  NZ         4.7230  -10.8020  -47.0840 N.3    70  LYS70      -0.1314
    110  N          5.0230  -17.0390  -43.5700 N.am   71  TRP71      -0.1962
    111  CA         6.3790  -17.1840  -43.0350 C.3    71  TRP71       0.1771
    112  C          6.6540  -18.5330  -42.3590 C.2    71  TRP71       0.2619
    113  O          7.8000  -18.9900  -42.3270 O.2    71  TRP71      -0.2715
    114  CB         6.6800  -16.0660  -42.0280 C.3    71  TRP71       0.0590
    115  CG         6.6290  -14.6880  -42.6300 C.ar   71  TRP71       0.0006
    116  CD1        5.7170  -13.7080  -42.3500 C.ar   71  TRP71       0.0946
    117  CD2        7.5000  -14.1540  -43.6370 C.ar   71  TRP71       0.0152
    118  NE1        5.9800  -12.5960  -43.1030 N.ar   71  TRP71      -0.2442
    119  CE2        7.0710  -12.8380  -43.8980 C.ar   71  TRP71       0.0810
    120  CE3        8.6140  -14.6550  -44.3270 C.ar   71  TRP71       0.0012
    121  CZ2        7.7220  -12.0020  -44.8150 C.ar   71  TRP71       0.0191
    122  CZ3        9.2530  -13.8320  -45.2560 C.ar   71  TRP71       0.0001
    123  CH2        8.7990  -12.5180  -45.4910 C.ar   71  TRP71       0.0015
    124  N          5.6240  -19.1630  -41.8070 N.am   72  PHE72      -0.1974
    125  CA         5.8470  -20.3920  -41.0050 C.3    72  PHE72       0.1639
    126  C          4.9290  -21.5350  -41.4780 C.2    72  PHE72       0.2290
    127  O          4.1880  -22.0980  -40.6800 O.2    72  PHE72      -0.2864
    128  CB         5.6250  -20.0880  -39.5070 C.3    72  PHE72       0.0560
    129  CG         6.2810  -18.8020  -39.0500 C.ar   72  PHE72      -0.0200
    130  CD1        7.6620  -18.6260  -39.1700 C.ar   72  PHE72      -0.0042
    131  CD2        5.5200  -17.7740  -38.5000 C.ar   72  PHE72      -0.0042
    132  CE1        8.2730  -17.4240  -38.7850 C.ar   72  PHE72      -0.0003
    133  CE2        6.1310  -16.5750  -38.0870 C.ar   72  PHE72      -0.0003
    134  CZ         7.5010  -16.4050  -38.2490 C.ar   72  PHE72      -0.0000
@<TRIPOS>BOND
     1   108   109    1
     2   108   107    1
     3   107   106    1
     4   106   105    1
     5   104   103    2
     6   123   122   ar
     7   123   121   ar
     8   105   102    1
     9   102   103    1
    10   102   101    1
    11   122   120   ar
    12   103   110   am
    13   121   119   ar
    14   120   117   ar
    15   119   117   ar
    16   119   118   ar
    17    82    81   ar
    18   100    98   ar
    19   117   115   ar
    20   110   111    1
    21   118   116   ar
    22    83    81   ar
    23   111   112    1
    24   111   114    1
    25    81    80    1
    26    99    98   ar
    27    90    89   ar
    28    98    97    1
    29   115   116   ar
    30   115   114    1
    31    92    93    1
    32   112   113    2
    33   112   124   am
    34    93    94    1
    35    93    96    1
    36    84    85    1
    37    85    86    1
    38    85    88    1
    39    95    94    2
    40   124   125    1
    41    89    88    1
    42    89    91   ar
    43    79    80    1
    44    79    76    1
    45    97    96    1
    46   126   125    1
    47   126   127    2
    48    86    87    2
    49   125   128    1
    50    77    78    2
    51    77    76    1
    52    76    75    1
    53   128   129    1
    54    75    63   am
    55    58    57    2
    56   130   129   ar
    57   130   132   ar
    58   129   131   ar
    59    43    41    1
    60   132   134   ar
    61   131   133   ar
    62    59    60    1
    63    59    56    1
    64    63    64    2
    65    63    62    1
    66   134   133   ar
    67    57    56    1
    68    57    61   am
    69    73    71   ar
    70    73    74   ar
    71    42    41    1
    72    47    46    2
    73    71    68   ar
    74    62    61    1
    75    62    65    1
    76    41    40    1
    77    56    55    1
    78    74    72   ar
    79    46    55   am
    80    46    45    1
    81    40    37    1
    82    68    66   ar
    83    68    70   ar
    84    65    66    1
    85    35    34    2
    86    72    70   ar
    87    44    45    1
    88    44    38   am
    89    66    67   ar
    90    37    38    1
    91    37    36    1
    92    49    50    1
    93    49    48    1
    94    70    69   ar
    95    45    48    1
    96    50    51    1
    97    34    36   am
    98    34    33    1
    99    38    39    2
   100    67    69   ar
   101    32    33    1
   102    53    52    1
   103    51    52    2
   104    52    54    1
   105    22    20    1
   106    19    18    2
   107    14    13   ar
   108    20    21    1
   109    20    17    1
   110    18    17    1
   111    18    23   am
   112    16    17    1
   113    16    10   am
   114    25    24    1
   115    25    26    2
   116    24    23    1
   117    24    27    1
   118     9     8    1
   119     9    10    1
   120     9    12    1
   121    13    15   ar
   122    13    12    1
   123    10    11    2
   124    28    27    1
   125    28    29    1
   126    30    29    1
   127    30    31    1
   128     6     5    1
   129     7     5    1
   130     5     2    1
   131     1     2    1
   132     2     3    1
   133     3     4    2
