@<TRIPOS>MOLECULE
tmp/4lh1B00.pdb
 103 99 0 0 0
SMALL
GASTEIGER

@<TRIPOS>ATOM
      1  N        -18.0370   15.9020   14.9650 N.3   147  GLU147     -0.1245
      2  CA       -16.7840   15.1640   14.8080 C.3   147  GLU147      0.1567
      3  C        -16.7370   14.3470   13.5290 C.2   147  GLU147      0.2260
      4  O        -15.7260   14.3370   12.8290 O.2   147  GLU147     -0.2867
      5  CB       -16.4900   14.2810   16.0140 C.3   147  GLU147      0.0388
      6  CG       -15.0970   13.6930   15.9610 C.3   147  GLU147      0.1160
      7  CD       -14.7140   12.9600   17.2280 C.2   147  GLU147      0.3649
      8  OE1      -15.4510   12.0430   17.6320 O.co2 147  GLU147     -0.2457
      9  OE2      -13.6720   13.3050   17.8210 O.co2 147  GLU147     -0.2457
     10  N        -18.9430    3.7890   21.5950 N.3   193  ASN193     -0.1225
     11  CA       -19.1440    5.0620   22.2940 C.3   193  ASN193      0.1785
     12  C        -19.1080    6.3510   21.4590 C.2   193  ASN193      0.2597
     13  O        -19.5450    7.3990   21.9390 O.2   193  ASN193     -0.2718
     14  CB       -18.2260    5.1770   23.5230 C.3   193  ASN193      0.1169
     15  CG       -16.7630    5.2770   23.1450 C.2   193  ASN193      0.2627
     16  OD1      -16.3460    4.7840   22.0970 O.2   193  ASN193     -0.2716
     17  ND2      -15.9740    5.9230   23.9960 N.am  193  ASN193     -0.0877
     18  N        -18.5960    6.2800   20.2290 N.am  194  PHE194     -0.1976
     19  CA       -18.6790    7.4070   19.3060 C.3   194  PHE194      0.1639
     20  C        -19.1040    6.9360   17.9160 C.2   194  PHE194      0.2290
     21  O        -18.4400    6.1210   17.3000 O.2   194  PHE194     -0.2864
     22  CB       -17.3430    8.1720   19.2110 C.3   194  PHE194      0.0560
     23  CG       -17.0360    9.0070   20.4090 C.ar  194  PHE194     -0.0200
     24  CD1      -16.3460    8.4690   21.4860 C.ar  194  PHE194     -0.0042
     25  CD2      -17.4120   10.3430   20.4530 C.ar  194  PHE194     -0.0042
     26  CE1      -16.0610    9.2440   22.6000 C.ar  194  PHE194     -0.0003
     27  CE2      -17.1350   11.1200   21.5560 C.ar  194  PHE194     -0.0003
     28  CZ       -16.4590   10.5690   22.6370 C.ar  194  PHE194     -0.0000
     29  N        -16.3630    7.7090   15.3380 N.3   197  ILE197     -0.1245
     30  CA       -15.1760    6.8660   15.2750 C.3   197  ILE197      0.1561
     31  C        -15.3190    5.7690   14.2210 C.2   197  ILE197      0.2260
     32  O        -14.3930    5.5270   13.4450 O.2   197  ILE197     -0.2867
     33  CB       -14.8230    6.2850   16.6520 C.3   197  ILE197      0.0252
     34  CG1      -14.3350    7.4140   17.5520 C.3   197  ILE197      0.0019
     35  CG2      -13.7640    5.1740   16.5150 C.3   197  ILE197      0.0019
     36  CD1      -13.8400    6.9570   18.9250 C.3   197  ILE197      0.0001
     37  N        -16.0540    7.5500   27.9000 N.3   329  LYS329     -0.1231
     38  CA       -15.1370    8.1020   26.9100 C.3   329  LYS329      0.1693
     39  C        -13.7220    7.6690   27.2560 C.2   329  LYS329      0.2592
     40  O        -13.3390    7.6470   28.4240 O.2   329  LYS329     -0.2718
     41  CB       -15.1980    9.6380   26.8960 C.3   329  LYS329      0.0285
     42  CG       -16.5810   10.2340   26.5630 C.3   329  LYS329      0.0035
     43  CD       -16.5010   11.7490   26.3950 C.3   329  LYS329      0.0206
     44  CE       -17.8710   12.3390   26.0710 C.3   329  LYS329      0.1093
     45  NZ       -17.7760   13.8110   25.8700 N.3   329  LYS329     -0.1314
     46  N        -12.9390    7.3240   26.2400 N.am  330  CYS330     -0.1956
     47  CA       -11.5520    6.9630   26.4860 C.3   330  CYS330      0.1843
     48  C        -10.7750    8.1120   27.1120 C.2   330  CYS330      0.2626
     49  O         -9.7100    7.8950   27.6920 O.2   330  CYS330     -0.2714
     50  CB       -10.8960    6.4870   25.1920 C.3   330  CYS330      0.0997
     51  SG       -11.5780    4.8740   24.7070 S.3   330  CYS330     -0.0797
     52  N        -11.3260    9.3210   27.0000 N.am  331  SER331     -0.1950
     53  CA       -10.7040   10.5480   27.5090 C.3   331  SER331      0.1924
     54  C        -11.2730   11.0360   28.8470 C.2   331  SER331      0.2314
     55  O        -10.7900   12.0190   29.4080 O.2   331  SER331     -0.2863
     56  CB       -10.8870   11.6690   26.4900 C.3   331  SER331      0.2116
     57  OG       -12.2770   11.9190   26.2770 O.3   331  SER331     -0.2180
     58  N         -4.1620   19.0660   28.7500 N.3   487  TYR487     -0.1241
     59  CA        -4.9980   20.2450   28.8440 C.3   487  TYR487      0.1605
     60  C         -4.5940   21.1520   29.9850 C.2   487  TYR487      0.2264
     61  O         -4.3970   20.7000   31.1140 O.2   487  TYR487     -0.2867
     62  CB        -6.4560   19.8330   29.0190 C.3   487  TYR487      0.0534
     63  CG        -6.9960   19.1140   27.8150 C.ar  487  TYR487     -0.0201
     64  CD1       -6.9230   17.7270   27.7160 C.ar  487  TYR487     -0.0009
     65  CD2       -7.5610   19.8210   26.7670 C.ar  487  TYR487     -0.0009
     66  CE1       -7.4110   17.0640   26.6050 C.ar  487  TYR487      0.0417
     67  CE2       -8.0600   19.1650   25.6490 C.ar  487  TYR487      0.0417
     68  CZ        -7.9760   17.7890   25.5770 C.ar  487  TYR487      0.1957
     69  OH        -8.4670   17.1410   24.4680 O.3   487  TYR487     -0.2866
     70  N        -10.5980   17.2520   30.3060 N.3   492  SER492     -0.1202
     71  CA        -9.7860   16.2690   29.5900 C.3   492  SER492      0.2020
     72  C        -10.4790   15.5920   28.4060 C.2   492  SER492      0.2619
     73  O         -9.8530   14.7930   27.7100 O.2   492  SER492     -0.2717
     74  CB        -9.2970   15.1930   30.5550 C.3   492  SER492      0.2103
     75  OG       -10.3850   14.4060   31.0240 O.3   492  SER492     -0.2182
     76  N        -11.7640   15.8910   28.1990 N.am  493  THR493     -0.1938
     77  CA       -12.5360   15.3190   27.0950 C.3   493  THR493      0.2028
     78  C        -12.8310   16.3600   26.0240 C.2   493  THR493      0.2643
     79  O        -12.6040   17.5560   26.2240 O.2   493  THR493     -0.2714
     80  CB       -13.9090   14.8080   27.5700 C.3   493  THR493      0.1808
     81  OG1      -14.6350   15.9000   28.1420 O.3   493  THR493     -0.2208
     82  CG2      -13.7620   13.7260   28.6040 C.3   493  THR493      0.0379
     83  N        -13.3610   15.9030   24.8910 N.am  494  GLY494     -0.1939
     84  CA       -13.8780   16.8100   23.8800 C.3   494  GLY494      0.2014
     85  C        -12.8640   17.3600   22.8900 C.2   494  GLY494      0.2639
     86  O        -12.9720   18.5080   22.4410 O.2   494  GLY494     -0.2714
     87  N        -11.8670   16.5540   22.5510 N.am  495  SER495     -0.1949
     88  CA       -10.9710   16.9140   21.4570 C.3   495  SER495      0.1924
     89  C        -11.7450   17.2290   20.1670 C.2   495  SER495      0.2314
     90  O        -12.7330   16.5650   19.8290 O.2   495  SER495     -0.2863
     91  CB        -9.9450   15.8040   21.2050 C.3   495  SER495      0.2116
     92  OG       -10.5750   14.5900   20.8280 O.3   495  SER495     -0.2180
     93  N         -6.2190   13.5240   18.3190 N.3   502  PHE502     -0.1241
     94  CA        -6.4670   12.7290   19.5180 C.3   502  PHE502      0.1605
     95  C         -5.6890   11.4130   19.5580 C.2   502  PHE502      0.2264
     96  O         -5.6370   10.6820   18.5760 O.2   502  PHE502     -0.2867
     97  CB        -7.9610   12.4270   19.6190 C.3   502  PHE502      0.0534
     98  CG        -8.3450   11.7110   20.8720 C.ar  502  PHE502     -0.0203
     99  CD1       -8.7070   10.3750   20.8340 C.ar  502  PHE502     -0.0042
    100  CD2       -8.3290   12.3660   22.0930 C.ar  502  PHE502     -0.0042
    101  CE1       -9.0650    9.7030   21.9890 C.ar  502  PHE502     -0.0003
    102  CE2       -8.6800   11.7030   23.2530 C.ar  502  PHE502     -0.0003
    103  CZ        -9.0460   10.3600   23.2000 C.ar  502  PHE502     -0.0000
@<TRIPOS>BOND
     1     4     3    2
     2    32    31    2
     3     3     2    1
     4    31    30    1
     5     2     1    1
     6     2     5    1
     7    30    29    1
     8    30    33    1
     9     6     5    1
    10     6     7    1
    11    35    33    1
    12    33    34    1
    13     7     8   ar
    14     7     9   ar
    15    21    20    2
    16    34    36    1
    17    20    19    1
    18    93    94    1
    19    96    95    2
    20    22    19    1
    21    22    23    1
    22    19    18    1
    23    94    95    1
    24    94    97    1
    25    97    98    1
    26    90    89    2
    27    89    88    1
    28    18    12   am
    29    23    25   ar
    30    23    24   ar
    31    25    27   ar
    32    92    91    1
    33    99    98   ar
    34    99   101   ar
    35    98   100   ar
    36    91    88    1
    37    88    87    1
    38    12    13    2
    39    12    11    1
    40    24    26   ar
    41    27    28   ar
    42    10    11    1
    43   101   103   ar
    44   100   102   ar
    45    16    15    2
    46    11    14    1
    47    86    85    2
    48    87    85   am
    49    26    28   ar
    50    85    84    1
    51    15    14    1
    52    15    17   am
    53   103   102   ar
    54    84    83    1
    55    69    68    1
    56    51    50    1
    57    83    78   am
    58    50    47    1
    59    68    67   ar
    60    68    66   ar
    61    67    65   ar
    62    45    44    1
    63    78    79    2
    64    78    77    1
    65    44    43    1
    66    46    47    1
    67    46    39   am
    68    57    56    1
    69    43    42    1
    70    47    48    1
    71    56    53    1
    72    42    41    1
    73    66    64   ar
    74    65    63   ar
    75    41    38    1
    76    38    39    1
    77    38    37    1
    78    52    48   am
    79    52    53    1
    80    77    80    1
    81    77    76    1
    82    48    49    2
    83    39    40    2
    84    53    54    1
    85    80    81    1
    86    80    82    1
    87    73    72    2
    88    64    63   ar
    89    63    62    1
    90    76    72   am
    91    72    71    1
    92    58    59    1
    93    59    62    1
    94    59    60    1
    95    54    55    2
    96    71    70    1
    97    71    74    1
    98    60    61    2
    99    74    75    1
