@<TRIPOS>MOLECULE
tmp/4lh2A01.pdb
 97 93 0 0 0
SMALL
GASTEIGER

@<TRIPOS>ATOM
      1  N         25.0970   10.1600    0.3770 N.3   136  GLU136     -0.1245
      2  CA        23.8280    9.7130    0.9480 C.3   136  GLU136      0.1567
      3  C         23.7210    9.9980    2.4490 C.2   136  GLU136      0.2260
      4  O         22.6790   10.4310    2.9410 O.2   136  GLU136     -0.2867
      5  CB        23.5510    8.2350    0.6730 C.3   136  GLU136      0.0388
      6  CG        22.1300    7.8780    1.0890 C.3   136  GLU136      0.1160
      7  CD        21.7300    6.4780    0.7040 C.2   136  GLU136      0.3649
      8  OE1       22.5230    5.5440    0.9290 O.co2 136  GLU136     -0.2457
      9  OE2       20.6180    6.3190    0.1660 O.co2 136  GLU136     -0.2457
     10  N         25.7640   -3.2380    3.6630 N.3   182  ASN182     -0.1225
     11  CA        25.9460   -2.7650    2.2830 C.3   182  ASN182      0.1785
     12  C         26.0030   -1.2530    2.0610 C.2   182  ASN182      0.2597
     13  O         26.5120   -0.8110    1.0390 O.2   182  ASN182     -0.2718
     14  CB        24.9740   -3.4450    1.3050 C.3   182  ASN182      0.1169
     15  CG        23.5250   -3.0750    1.5510 C.2   182  ASN182      0.2627
     16  OD1       23.1130   -2.7910    2.6780 O.2   182  ASN182     -0.2716
     17  ND2       22.7430   -3.0700    0.4860 N.am  182  ASN182     -0.0877
     18  N         25.4970   -0.4780    3.0180 N.am  183  PHE183     -0.1976
     19  CA        25.6250    0.9790    2.9690 C.3   183  PHE183      0.1639
     20  C         25.9990    1.5640    4.3160 C.2   183  PHE183      0.2290
     21  O         25.2800    1.4050    5.3040 O.2   183  PHE183     -0.2864
     22  CB        24.3190    1.6340    2.4860 C.3   183  PHE183      0.0560
     23  CG        24.0970    1.5020    1.0090 C.ar  183  PHE183     -0.0200
     24  CD1       23.4740    0.3850    0.4980 C.ar  183  PHE183     -0.0042
     25  CD2       24.5200    2.4860    0.1390 C.ar  183  PHE183     -0.0042
     26  CE1       23.2800    0.2470   -0.8680 C.ar  183  PHE183     -0.0003
     27  CE2       24.3260    2.3560   -1.2280 C.ar  183  PHE183     -0.0003
     28  CZ        23.7040    1.2360   -1.7270 C.ar  183  PHE183     -0.0000
     29  N         23.2160    3.8880    5.5970 N.3   186  ILE186     -0.1245
     30  CA        22.0080    3.3210    6.1920 C.3   186  ILE186      0.1561
     31  C         22.1450    3.1700    7.7050 C.2   186  ILE186      0.2260
     32  O         21.2040    3.4440    8.4460 O.2   186  ILE186     -0.2867
     33  CB        21.6010    2.0040    5.5170 C.3   186  ILE186      0.0252
     34  CG1       21.0580    2.3040    4.1170 C.3   186  ILE186      0.0019
     35  CG2       20.5460    1.2720    6.3410 C.3   186  ILE186      0.0019
     36  CD1       20.6660    1.0740    3.3190 C.3   186  ILE186      0.0001
     37  N         22.9770   -4.9190   -3.5060 N.3   318  LYS318     -0.1231
     38  CA        22.0500   -3.8440   -3.2150 C.3   318  LYS318      0.1693
     39  C         20.6510   -4.4210   -3.1570 C.2   318  LYS318      0.2592
     40  O         20.2980   -5.2990   -3.9560 O.2   318  LYS318     -0.2718
     41  CB        22.1240   -2.7610   -4.2890 C.3   318  LYS318      0.0285
     42  CG        23.5060   -2.1030   -4.3930 C.3   318  LYS318      0.0035
     43  CD        23.4500   -0.8430   -5.2410 C.3   318  LYS318      0.0206
     44  CE        24.8330   -0.2550   -5.4210 C.3   318  LYS318      0.1093
     45  NZ        24.7580    1.0610   -6.1240 N.3   318  LYS318     -0.1314
     46  N         19.8630   -3.9270   -2.2070 N.am  319  CYS319     -0.1956
     47  CA        18.4610   -4.3110   -2.1250 C.3   319  CYS319      0.1843
     48  C         17.6980   -3.9750   -3.3950 C.2   319  CYS319      0.2626
     49  O         16.6660   -4.5750   -3.6620 O.2   319  CYS319     -0.2714
     50  CB        17.7980   -3.6260   -0.9430 C.3   319  CYS319      0.0997
     51  SG        18.6250   -4.0240    0.5850 S.3   319  CYS319     -0.0797
     52  N         18.2160   -3.0180   -4.1610 N.am  320  SER320     -0.1950
     53  CA        17.5660   -2.5180   -5.3670 C.3   320  SER320      0.1924
     54  C         18.1820   -3.0290   -6.6710 C.2   320  SER320      0.2314
     55  O         17.7140   -2.6900   -7.7570 O.2   320  SER320     -0.2863
     56  CB        17.6260   -0.9870   -5.3710 C.3   320  SER320      0.2116
     57  OG        18.9770   -0.5550   -5.4220 O.3   320  SER320     -0.2180
     58  N         11.2030    3.0030  -12.1330 N.3   476  TYR476     -0.1241
     59  CA        12.0610    3.8020  -12.9870 C.3   476  TYR476      0.1605
     60  C         11.6780    3.6670  -14.4530 C.2   476  TYR476      0.2264
     61  O         11.4050    2.5740  -14.9420 O.2   476  TYR476     -0.2867
     62  CB        13.5150    3.3850  -12.7870 C.3   476  TYR476      0.0534
     63  CG        14.0150    3.6480  -11.3930 C.ar  476  TYR476     -0.0201
     64  CD1       13.9370    2.6770  -10.4060 C.ar  476  TYR476     -0.0009
     65  CD2       14.5600    4.8850  -11.0640 C.ar  476  TYR476     -0.0009
     66  CE1       14.4090    2.9250   -9.1260 C.ar  476  TYR476      0.0417
     67  CE2       15.0270    5.1480   -9.7930 C.ar  476  TYR476      0.0417
     68  CZ        14.9440    4.1750   -8.8270 C.ar  476  TYR476      0.1957
     69  OH        15.4150    4.4590   -7.5630 O.3   476  TYR476     -0.2866
     70  N         18.7410    1.0370   -9.4520 N.3   482  THR482     -0.1203
     71  CA        19.5110    1.3420   -8.2460 C.3   482  THR482      0.1994
     72  C         19.8300    2.8340   -8.1520 C.2   482  THR482      0.2618
     73  O         19.6450    3.5760   -9.1090 O.2   482  THR482     -0.2717
     74  CB        20.8660    0.6080   -8.2370 C.3   482  THR482      0.1784
     75  OG1       21.6570    1.0450   -9.3540 O.3   482  THR482     -0.2211
     76  CG2       20.6690   -0.8870   -8.3040 C.3   482  THR482      0.0376
     77  N         20.3220    3.2650   -6.9940 N.am  483  GLY483     -0.1942
     78  CA        20.8710    4.6030   -6.8710 C.3   483  GLY483      0.2014
     79  C         19.8900    5.6920   -6.4910 C.2   483  GLY483      0.2639
     80  O         20.0250    6.8360   -6.9310 O.2   483  GLY483     -0.2714
     81  N         18.9010    5.3510   -5.6720 N.am  484  SER484     -0.1949
     82  CA        17.9540    6.3540   -5.1920 C.3   484  SER484      0.1924
     83  C         18.7010    7.4650   -4.4660 C.2   484  SER484      0.2314
     84  O         19.7020    7.2090   -3.7820 O.2   484  SER484     -0.2863
     85  CB        16.9060    5.7110   -4.2760 C.3   484  SER484      0.2116
     86  OG        17.4890    5.1290   -3.1250 O.3   484  SER484     -0.2180
     87  N         13.0690    6.0950   -0.6560 N.3   491  PHE491     -0.1241
     88  CA        13.3020    4.6960   -0.9640 C.3   491  PHE491      0.1605
     89  C         12.5260    3.7030   -0.1170 C.2   491  PHE491      0.2264
     90  O         12.4620    3.8230    1.1090 O.2   491  PHE491     -0.2867
     91  CB        14.7930    4.3760   -0.8620 C.3   491  PHE491      0.0534
     92  CG        15.1320    2.9980   -1.3180 C.ar  491  PHE491     -0.0203
     93  CD1       15.3730    1.9840   -0.4030 C.ar  491  PHE491     -0.0042
     94  CD2       15.1980    2.7060   -2.6780 C.ar  491  PHE491     -0.0042
     95  CE1       15.6850    0.6960   -0.8360 C.ar  491  PHE491     -0.0003
     96  CE2       15.5000    1.4230   -3.1140 C.ar  491  PHE491     -0.0003
     97  CZ        15.7480    0.4230   -2.2060 C.ar  491  PHE491     -0.0000
@<TRIPOS>BOND
     1    61    60    2
     2    60    59    1
     3    59    62    1
     4    59    58    1
     5    62    63    1
     6    63    65   ar
     7    63    64   ar
     8    65    67   ar
     9    64    66   ar
    10    67    68   ar
    11    70    71    1
    12    75    74    1
    13    66    68   ar
    14    73    72    2
    15    68    69    1
    16    76    74    1
    17    71    74    1
    18    71    72    1
    19    72    77   am
    20    55    54    2
    21    77    78    1
    22    80    79    2
    23    78    79    1
    24    54    53    1
    25    79    81   am
    26    45    44    1
    27    81    82    1
    28    57    56    1
    29    44    43    1
    30    56    53    1
    31    53    52    1
    32    43    42    1
    33    82    83    1
    34    82    85    1
    35    83    84    2
    36    42    41    1
    37    41    38    1
    38    85    86    1
    39    52    48   am
    40    40    39    2
    41    49    48    2
    42    37    38    1
    43    48    47    1
    44    38    39    1
    45    39    46   am
    46    96    94   ar
    47    96    97   ar
    48    94    92   ar
    49    46    47    1
    50    97    95   ar
    51    47    50    1
    52    28    27   ar
    53    28    26   ar
    54    92    91    1
    55    92    93   ar
    56    27    25   ar
    57    88    91    1
    58    88    87    1
    59    88    89    1
    60    50    51    1
    61    26    24   ar
    62    95    93   ar
    63    89    90    2
    64    25    23   ar
    65     9     7   ar
    66     1     2    1
    67    17    15   am
    68    24    23   ar
    69     5     2    1
    70     5     6    1
    71     7     8   ar
    72     7     6    1
    73     2     3    1
    74    23    22    1
    75    13    12    2
    76    14    15    1
    77    14    11    1
    78    15    16    2
    79    12    11    1
    80    12    18   am
    81    11    10    1
    82     3     4    2
    83    22    19    1
    84    19    18    1
    85    19    20    1
    86    36    34    1
    87    34    33    1
    88    20    21    2
    89    33    30    1
    90    33    35    1
    91    29    30    1
    92    30    31    1
    93    31    32    2
