@<TRIPOS>MOLECULE
tmp/4lh3A01.pdb
 119 113 0 0 0
SMALL
GASTEIGER

@<TRIPOS>ATOM
      1  N         25.0640   10.1750    0.3670 N.3   135  GLU135     -0.1245
      2  CA        23.7810    9.7310    0.8990 C.3   135  GLU135      0.1567
      3  C         23.6690   10.0000    2.3940 C.2   135  GLU135      0.2260
      4  O         22.6160   10.4090    2.8760 O.2   135  GLU135     -0.2867
      5  CB        23.5190    8.2500    0.6170 C.3   135  GLU135      0.0388
      6  CG        22.0980    7.8670    1.0080 C.3   135  GLU135      0.1160
      7  CD        21.6980    6.4940    0.5190 C.2   135  GLU135      0.3649
      8  OE1       22.4290    5.5200    0.7860 O.co2 135  GLU135     -0.2457
      9  OE2       20.6410    6.3880   -0.1340 O.co2 135  GLU135     -0.2457
     10  N         25.8420   -3.2910    3.6650 N.3   181  ASN181     -0.1225
     11  CA        26.0490   -2.8300    2.2930 C.3   181  ASN181      0.1785
     12  C         26.0400   -1.3210    2.0670 C.2   181  ASN181      0.2597
     13  O         26.4960   -0.8540    1.0250 O.2   181  ASN181     -0.2718
     14  CB        25.0880   -3.5360    1.3290 C.3   181  ASN181      0.1169
     15  CG        23.6430   -3.1720    1.5710 C.2   181  ASN181      0.2627
     16  OD1       23.2350   -2.8590    2.6970 O.2   181  ASN181     -0.2716
     17  ND2       22.8560   -3.1980    0.5120 N.am  181  ASN181     -0.0877
     18  N         25.5360   -0.5620    3.0370 N.am  182  PHE182     -0.1976
     19  CA        25.5760    0.8920    2.9450 C.3   182  PHE182      0.1639
     20  C         25.9770    1.5050    4.2730 C.2   182  PHE182      0.2290
     21  O         25.2810    1.3580    5.2810 O.2   182  PHE182     -0.2864
     22  CB        24.2180    1.4770    2.5000 C.3   182  PHE182      0.0560
     23  CG        23.9650    1.3740    1.0160 C.ar  182  PHE182     -0.0200
     24  CD1       23.3500    0.2580    0.4840 C.ar  182  PHE182     -0.0042
     25  CD2       24.3670    2.3840    0.1580 C.ar  182  PHE182     -0.0042
     26  CE1       23.1270    0.1500   -0.8810 C.ar  182  PHE182     -0.0003
     27  CE2       24.1470    2.2870   -1.2100 C.ar  182  PHE182     -0.0003
     28  CZ        23.5240    1.1650   -1.7290 C.ar  182  PHE182     -0.0000
     29  N         23.2030    3.8470    5.5370 N.3   185  ILE185     -0.1245
     30  CA        21.9840    3.2990    6.1420 C.3   185  ILE185      0.1561
     31  C         22.1290    3.1660    7.6570 C.2   185  ILE185      0.2260
     32  O         21.1930    3.4420    8.4080 O.2   185  ILE185     -0.2867
     33  CB        21.5830    1.9620    5.5160 C.3   185  ILE185      0.0252
     34  CG1       21.0790    2.1910    4.0910 C.3   185  ILE185      0.0019
     35  CG2       20.4950    1.2850    6.3240 C.3   185  ILE185      0.0019
     36  CD1       20.6140    0.9230    3.3970 C.3   185  ILE185      0.0001
     37  N         17.1590   -2.9310    8.9080 N.3   255  THR255     -0.1218
     38  CA        17.3330   -3.1880    7.4830 C.3   255  THR255      0.1862
     39  C         18.1600   -4.4550    7.3570 C.2   255  THR255      0.2287
     40  O         19.2640   -4.5340    7.8970 O.2   255  THR255     -0.2866
     41  CB        17.9990   -2.0130    6.7520 C.3   255  THR255      0.1770
     42  OG1       17.1580   -0.8600    6.8380 O.3   255  THR255     -0.2211
     43  CG2       18.2430   -2.3570    5.2630 C.3   255  THR255      0.0375
     44  N         13.2720   -2.5760    6.2380 N.3   284  GLU284     -0.1245
     45  CA        13.5350   -2.6170    4.7990 C.3   284  GLU284      0.1567
     46  C         14.2330   -3.9480    4.5160 C.2   284  GLU284      0.2260
     47  O         15.3010   -4.2020    5.0790 O.2   284  GLU284     -0.2867
     48  CB        14.4330   -1.4420    4.4040 C.3   284  GLU284      0.0388
     49  CG        13.8160   -0.0890    4.6570 C.3   284  GLU284      0.1160
     50  CD        12.6190    0.2320    3.8210 C.2   284  GLU284      0.3649
     51  OE1       12.3650   -0.4390    2.7860 O.co2 284  GLU284     -0.2457
     52  OE2       11.9900    1.2470    4.1550 O.co2 284  GLU284     -0.2457
     53  N         22.9920   -4.9390   -3.5040 N.3   317  LYS317     -0.1231
     54  CA        22.0430   -3.8750   -3.1970 C.3   317  LYS317      0.1693
     55  C         20.6430   -4.4570   -3.1480 C.2   317  LYS317      0.2592
     56  O         20.2920   -5.3160   -3.9690 O.2   317  LYS317     -0.2718
     57  CB        22.1000   -2.7700   -4.2580 C.3   317  LYS317      0.0285
     58  CG        23.4720   -2.1350   -4.4080 C.3   317  LYS317      0.0035
     59  CD        23.4020   -0.8940   -5.2790 C.3   317  LYS317      0.0206
     60  CE        24.7610   -0.2160   -5.3240 C.3   317  LYS317      0.1093
     61  NZ        24.7390    0.9650   -6.2080 N.3   317  LYS317     -0.1314
     62  N         19.8380   -4.0010   -2.1880 N.am  318  CYS318     -0.1956
     63  CA        18.4390   -4.4050   -2.1480 C.3   318  CYS318      0.1843
     64  C         17.6780   -3.9410   -3.3910 C.2   318  CYS318      0.2626
     65  O         16.5650   -4.3940   -3.6380 O.2   318  CYS318     -0.2714
     66  CB        17.7590   -3.8690   -0.8840 C.3   318  CYS318      0.0997
     67  SG        18.4450   -4.6180    0.6220 S.3   318  CYS318     -0.0797
     68  N         18.2900   -3.0310   -4.1460 N.am  319  SER319     -0.1950
     69  CA        17.6840   -2.4120   -5.3290 C.3   319  SER319      0.1924
     70  C         18.2400   -2.9480   -6.6590 C.2   319  SER319      0.2314
     71  O         17.7390   -2.5940   -7.7300 O.2   319  SER319     -0.2863
     72  CB        17.9320   -0.9030   -5.2890 C.3   319  SER319      0.2116
     73  OG        19.3350   -0.6460   -5.2190 O.3   319  SER319     -0.2180
     74  N         11.2180    3.0790  -12.1780 N.3   475  TYR475     -0.1241
     75  CA        12.0450    3.9020  -13.0380 C.3   475  TYR475      0.1605
     76  C         11.6530    3.7330  -14.4950 C.2   475  TYR475      0.2264
     77  O         11.4230    2.6240  -14.9620 O.2   475  TYR475     -0.2867
     78  CB        13.5190    3.5360  -12.8640 C.3   475  TYR475      0.0534
     79  CG        14.0350    3.8020  -11.4800 C.ar  475  TYR475     -0.0201
     80  CD1       13.9640    2.8350  -10.4870 C.ar  475  TYR475     -0.0009
     81  CD2       14.5850    5.0320  -11.1600 C.ar  475  TYR475     -0.0009
     82  CE1       14.4290    3.0940   -9.2060 C.ar  475  TYR475      0.0417
     83  CE2       15.0530    5.2970   -9.8860 C.ar  475  TYR475      0.0417
     84  CZ        14.9710    4.3320   -8.9180 C.ar  475  TYR475      0.1957
     85  OH        15.4350    4.6230   -7.6590 O.3   475  TYR475     -0.2866
     86  N         17.5770    0.6390  -11.9720 N.3   480  SER480     -0.1202
     87  CA        16.7790    0.3970  -10.7640 C.3   480  SER480      0.2020
     88  C         17.4960    0.7180   -9.4460 C.2   480  SER480      0.2619
     89  O         16.8910    0.6230   -8.3730 O.2   480  SER480     -0.2717
     90  CB        16.2810   -1.0510  -10.7330 C.3   480  SER480      0.2103
     91  OG        17.3570   -1.9600  -10.5250 O.3   480  SER480     -0.2182
     92  N         18.7700    1.0930   -9.5200 N.am  481  THR481     -0.1938
     93  CA        19.5430    1.4060   -8.3200 C.3   481  THR481      0.2028
     94  C         19.8250    2.9020   -8.2370 C.2   481  THR481      0.2643
     95  O         19.6180    3.6310   -9.2010 O.2   481  THR481     -0.2714
     96  CB        20.9190    0.6900   -8.3200 C.3   481  THR481      0.1808
     97  OG1       21.6880    1.1460   -9.4420 O.3   481  THR481     -0.2208
     98  CG2       20.7690   -0.8200   -8.3840 C.3   481  THR481      0.0379
     99  N         20.3100    3.3520   -7.0810 N.am  482  GLY482     -0.1939
    100  CA        20.8290    4.7020   -6.9570 C.3   482  GLY482      0.2014
    101  C         19.8380    5.7880   -6.5740 C.2   482  GLY482      0.2639
    102  O         20.0120    6.9460   -6.9690 O.2   482  GLY482     -0.2714
    103  N         18.7990    5.4300   -5.8210 N.am  483  SER483     -0.1949
    104  CA        17.8620    6.4270   -5.2910 C.3   483  SER483      0.1924
    105  C         18.6400    7.5240   -4.5830 C.2   483  SER483      0.2314
    106  O         19.6590    7.2490   -3.9430 O.2   483  SER483     -0.2863
    107  CB        16.8760    5.7830   -4.3060 C.3   483  SER483      0.2116
    108  OG        17.5490    5.2440   -3.1680 O.3   483  SER483     -0.2180
    109  N         13.0550    6.0750   -0.6940 N.3   490  PHE490     -0.1241
    110  CA        13.3340    4.6890   -1.0200 C.3   490  PHE490      0.1605
    111  C         12.5980    3.6990   -0.1390 C.2   490  PHE490      0.2264
    112  O         12.5160    3.8700    1.0840 O.2   490  PHE490     -0.2867
    113  CB        14.8390    4.4290   -0.9480 C.3   490  PHE490      0.0534
    114  CG        15.2240    3.0530   -1.3760 C.ar  490  PHE490     -0.0203
    115  CD1       15.5310    2.0840   -0.4430 C.ar  490  PHE490     -0.0042
    116  CD2       15.2460    2.7210   -2.7180 C.ar  490  PHE490     -0.0042
    117  CE1       15.8750    0.8000   -0.8420 C.ar  490  PHE490     -0.0003
    118  CE2       15.5900    1.4420   -3.1290 C.ar  490  PHE490     -0.0003
    119  CZ        15.8970    0.4830   -2.1920 C.ar  490  PHE490     -0.0000
@<TRIPOS>BOND
     1    77    76    2
     2    76    75    1
     3    75    78    1
     4    75    74    1
     5    78    79    1
     6    86    87    1
     7    79    81   ar
     8    79    80   ar
     9    81    83   ar
    10    87    90    1
    11    87    88    1
    12    90    91    1
    13    80    82   ar
    14    83    84   ar
    15    92    88   am
    16    92    93    1
    17    88    89    2
    18    97    96    1
    19    82    84   ar
    20    95    94    2
    21    84    85    1
    22    98    96    1
    23    93    96    1
    24    93    94    1
    25    94    99   am
    26    71    70    2
    27    99   100    1
    28   102   101    2
    29   100   101    1
    30    70    69    1
    31   101   103   am
    32    61    60    1
    33   103   104    1
    34    69    72    1
    35    69    68    1
    36    60    59    1
    37   104   105    1
    38   104   107    1
    39    72    73    1
    40    59    58    1
    41   105   106    2
    42    58    57    1
    43   107   108    1
    44    57    54    1
    45    68    64   am
    46    56    55    2
    47    65    64    2
    48    53    54    1
    49    64    63    1
    50    54    55    1
    51    55    62   am
    52   118   116   ar
    53   118   119   ar
    54   116   114   ar
    55   119   117   ar
    56    62    63    1
    57    63    66    1
    58    28    27   ar
    59    28    26   ar
    60   114   113    1
    61   114   115   ar
    62    27    25   ar
    63   110   113    1
    64   110   109    1
    65   110   111    1
    66    66    67    1
    67    26    24   ar
    68   117   115   ar
    69   111   112    2
    70     9     7   ar
    71    25    23   ar
    72     1     2    1
    73    24    23   ar
    74    17    15   am
    75     7     8   ar
    76     7     6    1
    77     5     2    1
    78     5     6    1
    79     2     3    1
    80    23    22    1
    81    13    12    2
    82    14    15    1
    83    14    11    1
    84    15    16    2
    85    12    11    1
    86    12    18   am
    87    11    10    1
    88     3     4    2
    89    22    19    1
    90    51    50   ar
    91    19    18    1
    92    19    20    1
    93    36    34    1
    94    50    52   ar
    95    50    49    1
    96    34    33    1
    97    20    21    2
    98    48    49    1
    99    48    45    1
   100    46    45    1
   101    46    47    2
   102    45    44    1
   103    43    41    1
   104    33    30    1
   105    33    35    1
   106    29    30    1
   107    30    31    1
   108    41    42    1
   109    41    38    1
   110    39    38    1
   111    39    40    2
   112    38    37    1
   113    31    32    2
