@<TRIPOS>MOLECULE
tmp/4lh6A00.pdb
 97 93 0 0 0
SMALL
GASTEIGER

@<TRIPOS>ATOM
      1  N         21.4470   34.7950   28.4560 N.3    86  TYR86      -0.1227
      2  CA        22.7890   34.2190   28.2910 C.3    86  TYR86       0.1736
      3  C         23.3300   34.3810   26.8690 C.2    86  TYR86       0.2596
      4  O         22.5730   34.5830   25.9300 O.2    86  TYR86      -0.2718
      5  CB        22.7750   32.7300   28.6620 C.3    86  TYR86       0.0548
      6  CG        21.7490   31.9260   27.8930 C.ar   86  TYR86      -0.0200
      7  CD1       22.0210   31.4570   26.6120 C.ar   86  TYR86      -0.0009
      8  CD2       20.4970   31.6490   28.4420 C.ar   86  TYR86      -0.0009
      9  CE1       21.0810   30.7340   25.9000 C.ar   86  TYR86       0.0417
     10  CE2       19.5520   30.9250   27.7350 C.ar   86  TYR86       0.0417
     11  CZ        19.8510   30.4700   26.4650 C.ar   86  TYR86       0.1957
     12  OH        18.9270   29.7490   25.7510 O.3    86  TYR86      -0.2866
     13  N         24.6500   34.2960   26.7330 N.am   87  SER87      -0.1938
     14  CA        25.2980   34.2620   25.4240 C.3    87  SER87       0.2055
     15  C         25.8740   32.8720   25.2180 C.2    87  SER87       0.2642
     16  O         26.1690   32.1680   26.1790 O.2    87  SER87      -0.2714
     17  CB        26.4040   35.3120   25.3250 C.3    87  SER87       0.2130
     18  OG        27.4400   35.0560   26.2560 O.3    87  SER87      -0.2179
     19  N         26.0290   32.4850   23.9590 N.am   88  LEU88      -0.1977
     20  CA        26.4990   31.1480   23.6210 C.3    88  LEU88       0.1596
     21  C         28.0170   31.1110   23.5170 C.2    88  LEU88       0.2287
     22  O         28.6490   32.1130   23.1870 O.2    88  LEU88      -0.2864
     23  CB        25.8960   30.7010   22.2830 C.3    88  LEU88       0.0297
     24  CG        24.3740   30.7340   22.1460 C.3    88  LEU88       0.0022
     25  CD1       23.9420   30.2670   20.7610 C.3    88  LEU88       0.0001
     26  CD2       23.7220   29.8920   23.2290 C.3    88  LEU88       0.0001
     27  N         19.7180   26.8930   13.4080 N.3   117  GLU117     -0.1231
     28  CA        19.0440   28.1430   13.1180 C.3   117  GLU117      0.1699
     29  C         20.0650   29.1840   12.6890 C.2   117  GLU117      0.2592
     30  O         21.2350   29.0850   13.0310 O.2   117  GLU117     -0.2718
     31  CB        18.2980   28.6290   14.3670 C.3   117  GLU117      0.0402
     32  CG        17.2890   27.6270   14.9090 C.3   117  GLU117      0.1161
     33  CD        16.7200   28.0170   16.2580 C.2   117  GLU117      0.3649
     34  OE1       16.6290   27.1360   17.1340 O.co2 117  GLU117     -0.2457
     35  OE2       16.3600   29.1950   16.4420 O.co2 117  GLU117     -0.2457
     36  N         19.6110   30.1900   11.9520 N.am  118  LEU118     -0.1966
     37  CA        20.4660   31.3190   11.6020 C.3   118  LEU118      0.1728
     38  C         20.6570   32.2350   12.8140 C.2   118  LEU118      0.2616
     39  O         19.7120   32.4880   13.5720 O.2   118  LEU118     -0.2715
     40  CB        19.8660   32.0950   10.4240 C.3   118  LEU118      0.0311
     41  CG        19.6000   31.2720    9.1620 C.3   118  LEU118      0.0022
     42  CD1       19.1670   32.1700    8.0090 C.3   118  LEU118      0.0001
     43  CD2       20.8340   30.4650    8.7850 C.3   118  LEU118      0.0001
     44  N         21.8830   32.7030   13.0100 N.am  119  LYS119     -0.1963
     45  CA        22.1760   33.6590   14.0680 C.3   119  LYS119      0.1728
     46  C         21.9310   35.0580   13.5140 C.2   119  LYS119      0.2616
     47  O         22.7110   35.5650   12.7210 O.2   119  LYS119     -0.2715
     48  CB        23.6040   33.5050   14.5870 C.3   119  LYS119      0.0311
     49  CG        23.8290   34.2170   15.9120 C.3   119  LYS119      0.0038
     50  CD        25.2410   34.0140   16.4350 C.3   119  LYS119      0.0206
     51  CE        25.3870   34.6080   17.8220 C.3   119  LYS119      0.1093
     52  NZ        25.0880   36.0680   17.8300 N.3   119  LYS119     -0.1314
     53  N         20.8180   35.6580   13.9180 N.am  120  ILE120     -0.1977
     54  CA        20.3740   36.9340   13.3630 C.3   120  ILE120      0.1596
     55  C         21.1860   38.0580   13.9960 C.2   120  ILE120      0.2287
     56  O         21.2830   38.1450   15.2200 O.2   120  ILE120     -0.2864
     57  CB        18.8780   37.1810   13.6530 C.3   120  ILE120      0.0276
     58  CG1       18.0220   35.9760   13.2350 C.3   120  ILE120      0.0022
     59  CG2       18.4120   38.4580   12.9720 C.3   120  ILE120      0.0022
     60  CD1       18.1380   35.6030   11.7670 C.3   120  ILE120      0.0001
     61  N         15.5690   38.5550   18.1610 N.3   174  GLU174     -0.1245
     62  CA        16.2780   39.7250   17.6580 C.3   174  GLU174      0.1567
     63  C         15.3430   40.6550   16.9210 C.2   174  GLU174      0.2260
     64  O         14.3810   40.2150   16.2890 O.2   174  GLU174     -0.2867
     65  CB        17.4070   39.3330   16.7050 C.3   174  GLU174      0.0388
     66  CG        18.7940   39.5080   17.2900 C.3   174  GLU174      0.1160
     67  CD        19.1450   38.3930   18.2400 C.2   174  GLU174      0.3649
     68  OE1       20.0160   38.5880   19.1140 O.co2 174  GLU174     -0.2457
     69  OE2       18.5450   37.3130   18.1010 O.co2 174  GLU174     -0.2457
     70  N         12.9660   33.1360   18.8520 N.3   226  TYR226     -0.1241
     71  CA        13.4480   31.7510   18.8040 C.3   226  TYR226      0.1605
     72  C         13.4590   30.9810   20.1310 C.2   226  TYR226      0.2264
     73  O         13.7350   29.7840   20.1270 O.2   226  TYR226     -0.2867
     74  CB        14.8500   31.7170   18.1870 C.3   226  TYR226      0.0534
     75  CG        15.8180   32.6570   18.8610 C.ar  226  TYR226     -0.0201
     76  CD1       16.3160   32.3860   20.1320 C.ar  226  TYR226     -0.0009
     77  CD2       16.2200   33.8280   18.2370 C.ar  226  TYR226     -0.0009
     78  CE1       17.1920   33.2530   20.7580 C.ar  226  TYR226      0.0417
     79  CE2       17.1020   34.6970   18.8520 C.ar  226  TYR226      0.0417
     80  CZ        17.5790   34.4080   20.1160 C.ar  226  TYR226      0.1957
     81  OH        18.4540   35.2650   20.7470 O.3   226  TYR226     -0.2866
     82  N         23.3930   29.0090   14.7810 N.3   288  VAL288     -0.1245
     83  CA        23.2370   28.4840   16.1330 C.3   288  VAL288      0.1561
     84  C         22.8390   27.0140   16.0470 C.2   288  VAL288      0.2260
     85  O         21.9510   26.6480   15.2800 O.2   288  VAL288     -0.2867
     86  CB        22.2030   29.2880   16.9410 C.3   288  VAL288      0.0252
     87  CG1       22.1300   28.7730   18.3640 C.3   288  VAL288      0.0019
     88  CG2       22.5840   30.7620   16.9630 C.3   288  VAL288      0.0019
     89  N         21.7380   23.8410   18.3960 N.3   290  LYS290     -0.1245
     90  CA        21.1870   23.5190   19.7110 C.3   290  LYS290      0.1561
     91  C         20.7840   22.0520   19.7640 C.2   290  LYS290      0.2260
     92  O         20.1460   21.5630   18.8390 O.2   290  LYS290     -0.2867
     93  CB        19.9400   24.3620   19.9690 C.3   290  LYS290      0.0271
     94  CG        20.1910   25.8600   20.0320 C.3   290  LYS290      0.0035
     95  CD        18.8760   26.6240   20.0420 C.3   290  LYS290      0.0206
     96  CE        19.0750   28.0920   19.6990 C.3   290  LYS290      0.1093
     97  NZ        17.7780   28.8220   19.5760 N.3   290  LYS290     -0.1314
@<TRIPOS>BOND
     1    42    41    1
     2    43    41    1
     3    41    40    1
     4    40    37    1
     5    37    36    1
     6    37    38    1
     7    60    58    1
     8    36    29   am
     9    29    30    2
    10    29    28    1
    11    47    46    2
    12    38    44   am
    13    38    39    2
    14    59    57    1
    15    44    45    1
    16    28    27    1
    17    28    31    1
    18    58    57    1
    19    54    57    1
    20    54    53    1
    21    54    55    1
    22    46    53   am
    23    46    45    1
    24    55    56    2
    25    45    48    1
    26    31    32    1
    27    48    49    1
    28    82    83    1
    29    32    33    1
    30    85    84    2
    31    49    50    1
    32    84    83    1
    33    83    86    1
    34    33    35   ar
    35    33    34   ar
    36    64    63    2
    37    50    51    1
    38    65    66    1
    39    65    62    1
    40    63    62    1
    41    86    88    1
    42    86    87    1
    43    66    67    1
    44    62    61    1
    45    51    52    1
    46    69    67   ar
    47    74    71    1
    48    74    75    1
    49    77    79   ar
    50    77    75   ar
    51    67    68   ar
    52    89    90    1
    53    71    70    1
    54    71    72    1
    55    92    91    2
    56    79    80   ar
    57    75    76   ar
    58    97    96    1
    59    96    95    1
    60    90    91    1
    61    90    93    1
    62    93    94    1
    63    94    95    1
    64    80    81    1
    65    80    78   ar
    66    73    72    2
    67    76    78   ar
    68    25    24    1
    69    24    23    1
    70    24    26    1
    71    23    20    1
    72    22    21    2
    73    21    20    1
    74    20    19    1
    75    19    15   am
    76    15    14    1
    77    15    16    2
    78    17    14    1
    79    17    18    1
    80    14    13    1
    81    12    11    1
    82     9    11   ar
    83     9     7   ar
    84     4     3    2
    85    11    10   ar
    86     7     6   ar
    87    13     3   am
    88     3     2    1
    89    10     8   ar
    90     6     8   ar
    91     6     5    1
    92     2     1    1
    93     2     5    1
