@<TRIPOS>MOLECULE
tmp/4lh6A01.pdb
 150 148 0 0 0
SMALL
GASTEIGER

@<TRIPOS>ATOM
      1  N         -5.6880   40.2940   11.3680 N.3    24  TYR24      -0.1227
      2  CA        -5.3930   40.8060   10.0340 C.3    24  TYR24       0.1736
      3  C         -3.9650   41.3400    9.9390 C.2    24  TYR24       0.2596
      4  O         -3.2810   41.1160    8.9390 O.2    24  TYR24      -0.2718
      5  CB        -6.3810   41.9070    9.6370 C.3    24  TYR24       0.0548
      6  CG        -7.7960   41.4360    9.3550 C.ar   24  TYR24      -0.0200
      7  CD1       -8.0680   40.1260    8.9560 C.ar   24  TYR24      -0.0009
      8  CD2       -8.8620   42.3240    9.4450 C.ar   24  TYR24      -0.0009
      9  CE1       -9.3610   39.7120    8.6860 C.ar   24  TYR24       0.0417
     10  CE2      -10.1560   41.9200    9.1740 C.ar   24  TYR24       0.0417
     11  CZ       -10.4030   40.6160    8.7980 C.ar   24  TYR24       0.1957
     12  OH       -11.6940   40.2140    8.5230 O.3    24  TYR24      -0.2866
     13  N         -3.5210   42.0470   10.9750 N.am   25  SER25      -0.1952
     14  CA        -2.1600   42.5770   11.0070 C.3    25  SER25       0.1924
     15  C         -1.1370   41.4480   11.0080 C.2    25  SER25       0.2314
     16  O         -0.1300   41.5160   10.2960 O.2    25  SER25      -0.2863
     17  CB        -1.9610   43.4780   12.2240 C.3    25  SER25       0.2116
     18  OG        -2.5660   44.7380   12.0100 O.3    25  SER25      -0.2180
     19  N         -1.5510   38.4300    9.7540 N.3    27  GLU27      -0.1231
     20  CA        -1.5700   37.8850    8.3920 C.3    27  GLU27       0.1699
     21  C         -0.7800   38.7630    7.4240 C.2    27  GLU27       0.2592
     22  O          0.0140   38.2700    6.6200 O.2    27  GLU27      -0.2718
     23  CB        -3.0100   37.7610    7.8820 C.3    27  GLU27       0.0402
     24  CG        -3.8570   36.7190    8.5930 C.3    27  GLU27       0.1161
     25  CD        -5.3360   36.8240    8.2500 C.2    27  GLU27       0.3649
     26  OE1       -5.7300   37.7530    7.5130 O.co2  27  GLU27      -0.2457
     27  OE2       -6.1100   35.9690    8.7200 O.co2  27  GLU27      -0.2457
     28  N         -1.0050   40.0680    7.5160 N.am   28  TYR28      -0.1962
     29  CA        -0.4150   41.0460    6.6010 C.3    28  TYR28       0.1771
     30  C          1.0990   41.1850    6.7830 C.2    28  TYR28       0.2619
     31  O          1.8430   41.1650    5.8020 O.2    28  TYR28      -0.2715
     32  CB        -1.0950   42.3940    6.8330 C.3    28  TYR28       0.0574
     33  CG        -0.6740   43.5360    5.9340 C.ar   28  TYR28      -0.0198
     34  CD1        0.1240   44.5640    6.4260 C.ar   28  TYR28      -0.0009
     35  CD2       -1.1160   43.6220    4.6170 C.ar   28  TYR28      -0.0009
     36  CE1        0.4890   45.6340    5.6330 C.ar   28  TYR28       0.0417
     37  CE2       -0.7530   44.6920    3.8100 C.ar   28  TYR28       0.0417
     38  CZ         0.0520   45.6930    4.3240 C.ar   28  TYR28       0.1957
     39  OH         0.4230   46.7640    3.5470 O.3    28  TYR28      -0.2866
     40  N          1.5410   41.3030    8.0330 N.am   29  TYR29      -0.1974
     41  CA         2.9470   41.5900    8.3470 C.3    29  TYR29       0.1639
     42  C          3.8060   40.3440    8.5520 C.2    29  TYR29       0.2290
     43  O          4.9560   40.3120    8.1170 O.2    29  TYR29      -0.2864
     44  CB         3.0480   42.4750    9.5940 C.3    29  TYR29       0.0560
     45  CG         2.5670   43.8920    9.3800 C.ar   29  TYR29      -0.0198
     46  CD1        3.2680   44.7680    8.5580 C.ar   29  TYR29      -0.0009
     47  CD2        1.4080   44.3600    9.9950 C.ar   29  TYR29      -0.0009
     48  CE1        2.8360   46.0680    8.3570 C.ar   29  TYR29       0.0417
     49  CE2        0.9700   45.6620    9.8070 C.ar   29  TYR29       0.0417
     50  CZ         1.6830   46.5100    8.9820 C.ar   29  TYR29       0.1957
     51  OH         1.2590   47.8030    8.7820 O.3    29  TYR29      -0.2866
     52  N         -2.2670   38.3460    3.5510 N.3    34  PRO34      -0.2116
     53  CA        -3.4890   38.9460    4.0870 C.3    34  PRO34       0.1372
     54  C         -4.7400   38.2620    3.5430 C.2    34  PRO34       0.2244
     55  O         -4.8250   38.0030    2.3410 O.2    34  PRO34      -0.2868
     56  CB        -3.4160   40.4040    3.6090 C.3    34  PRO34       0.0268
     57  CG        -2.5140   40.3810    2.4310 C.3    34  PRO34       0.0207
     58  CD        -1.5310   39.2760    2.6750 C.3    34  PRO34       0.0892
     59  N         -7.7000   39.7050    3.8880 N.3    36  VAL36      -0.1231
     60  CA        -8.5830   40.7960    3.4630 C.3    36  VAL36       0.1692
     61  C         -7.8060   41.9280    2.7980 C.2    36  VAL36       0.2592
     62  O         -6.6200   42.1350    3.0810 O.2    36  VAL36      -0.2718
     63  CB        -9.4250   41.3490    4.6360 C.3    36  VAL36       0.0266
     64  CG1      -10.2130   40.2200    5.2920 C.3    36  VAL36       0.0020
     65  CG2       -8.5520   42.0710    5.6610 C.3    36  VAL36       0.0020
     66  N         -8.4850   42.6530    1.9100 N.am   37  GLU37      -0.1966
     67  CA        -7.9040   43.8310    1.2690 C.3    37  GLU37       0.1733
     68  C         -7.7700   44.9670    2.2790 C.2    37  GLU37       0.2616
     69  O         -8.4750   45.0030    3.2870 O.2    37  GLU37      -0.2715
     70  CB        -8.7550   44.2900    0.0810 C.3    37  GLU37       0.0429
     71  CG        -8.7610   43.3250   -1.0950 C.3    37  GLU37       0.1163
     72  CD        -9.4520   43.9030   -2.3190 C.2    37  GLU37       0.3649
     73  OE1      -10.5770   43.4600   -2.6380 O.co2  37  GLU37      -0.2457
     74  OE2       -8.8760   44.8110   -2.9570 O.co2  37  GLU37      -0.2457
     75  N         -6.8630   45.8940    1.9970 N.am   38  ASP38      -0.1971
     76  CA        -6.5730   46.9950    2.9140 C.3    38  ASP38       0.1709
     77  C         -7.8220   47.7990    3.2910 C.2    38  ASP38       0.2293
     78  O         -7.9400   48.2410    4.4310 O.2    38  ASP38      -0.2864
     79  CB        -5.5080   47.9230    2.3170 C.3    38  ASP38       0.1436
     80  CG        -4.1450   47.2510    2.1800 C.2    38  ASP38       0.3671
     81  OD1       -3.9110   46.1930    2.8060 O.co2  38  ASP38      -0.2456
     82  OD2       -3.2930   47.7900    1.4410 O.co2  38  ASP38      -0.2456
     83  N         -9.5660   46.1700    6.2980 N.3    41  TYR41      -0.1227
     84  CA        -8.7990   46.4750    7.5050 C.3    41  TYR41       0.1736
     85  C         -9.0110   47.9240    7.9400 C.2    41  TYR41       0.2595
     86  O         -9.3030   48.1920    9.1030 O.2    41  TYR41      -0.2718
     87  CB        -7.3110   46.2090    7.2750 C.3    41  TYR41       0.0548
     88  CG        -6.4270   46.5840    8.4510 C.ar   41  TYR41      -0.0200
     89  CD1       -6.1760   45.6750    9.4760 C.ar   41  TYR41      -0.0009
     90  CD2       -5.8610   47.8470    8.5430 C.ar   41  TYR41      -0.0009
     91  CE1       -5.3720   46.0130   10.5510 C.ar   41  TYR41       0.0417
     92  CE2       -5.0590   48.1980    9.6160 C.ar   41  TYR41       0.0417
     93  CZ        -4.8210   47.2770   10.6170 C.ar   41  TYR41       0.1957
     94  OH        -4.0240   47.6250   11.6860 O.3    41  TYR41      -0.2866
     95  N         -8.8660   48.8560    7.0000 N.am   42  ASP42      -0.1974
     96  CA        -8.9850   50.2810    7.3060 C.3    42  ASP42       0.1709
     97  C        -10.3700   50.6270    7.8640 C.2    42  ASP42       0.2293
     98  O        -10.4930   51.4580    8.7650 O.2    42  ASP42      -0.2864
     99  CB        -8.7000   51.1300    6.0630 C.3    42  ASP42       0.1436
    100  CG        -7.2530   51.0380    5.6010 C.2    42  ASP42       0.3671
    101  OD1       -6.3960   50.5740    6.3810 O.co2  42  ASP42      -0.2456
    102  OD2       -6.9710   51.4300    4.4460 O.co2  42  ASP42      -0.2456
    103  N        -10.6430   49.3400   11.4330 N.3    45  TYR45      -0.1241
    104  CA        -9.7340   50.1550   12.2380 C.3    45  TYR45       0.1605
    105  C        -10.3810   51.4960   12.6130 C.2    45  TYR45       0.2264
    106  O        -10.3410   51.9090   13.7710 O.2    45  TYR45      -0.2867
    107  CB        -8.4190   50.3770   11.4800 C.3    45  TYR45       0.0534
    108  CG        -7.3550   51.0890   12.2780 C.ar   45  TYR45      -0.0201
    109  CD1       -6.4290   50.3750   13.0360 C.ar   45  TYR45      -0.0009
    110  CD2       -7.2740   52.4780   12.2790 C.ar   45  TYR45      -0.0009
    111  CE1       -5.4530   51.0300   13.7750 C.ar   45  TYR45       0.0417
    112  CE2       -6.3070   53.1380   13.0110 C.ar   45  TYR45       0.0417
    113  CZ        -5.4000   52.4110   13.7570 C.ar   45  TYR45       0.1957
    114  OH        -4.4360   53.0790   14.4800 O.3    45  TYR45      -0.2866
    115  N         -4.6420   48.0180   18.7890 N.3    64  PRO64      -0.2116
    116  CA        -3.9950   48.3630   17.5150 C.3    64  PRO64       0.1372
    117  C         -3.7220   49.8590   17.3270 C.2    64  PRO64       0.2244
    118  O         -2.7570   50.2260   16.6570 O.2    64  PRO64      -0.2868
    119  CB        -5.0040   47.8750   16.4750 C.3    64  PRO64       0.0268
    120  CG        -5.6630   46.7130   17.1290 C.3    64  PRO64       0.0207
    121  CD        -5.7670   47.0860   18.5830 C.3    64  PRO64       0.0892
    122  N         -0.2580   51.3830   18.3640 N.3    67  ARG67      -0.1231
    123  CA         0.9120   51.0450   17.5370 C.3    67  ARG67       0.1694
    124  C          1.5640   52.2500   16.8560 C.2    67  ARG67       0.2591
    125  O          2.7870   52.3160   16.7410 O.2    67  ARG67      -0.2718
    126  CB         0.5070   50.0820   16.4130 C.3    67  ARG67       0.0321
    127  CG        -0.0050   48.7210   16.8540 C.3    67  ARG67       0.0489
    128  CD         1.1120   47.7030   16.9010 C.3    67  ARG67       0.2205
    129  NE         0.6840   46.3550   16.5490 N.pl3  67  ARG67      -0.0865
    130  CZ         1.5050   45.3120   16.5010 C.cat  67  ARG67       0.5346
    131  NH1        1.0330   44.1140   16.1820 N.pl3  67  ARG67       0.1354
    132  NH2        2.8020   45.4640   16.7760 N.pl3  67  ARG67       0.1354
    133  N          0.7410   53.1860   16.3840 N.am   68  VAL68      -0.1980
    134  CA         1.1910   54.2200   15.4380 C.3    68  VAL68       0.1595
    135  C          2.2100   55.2140   16.0000 C.2    68  VAL68       0.2287
    136  O          2.8250   55.9590   15.2420 O.2    68  VAL68      -0.2864
    137  CB         0.0020   55.0200   14.8550 C.3    68  VAL68       0.0276
    138  CG1       -0.9360   54.0950   14.0910 C.3    68  VAL68       0.0022
    139  CG2       -0.7390   55.7670   15.9570 C.3    68  VAL68       0.0022
    140  N          5.6660   46.2130   13.7780 N.3   157  ARG157     -0.1245
    141  CA         4.4010   45.5490   13.4430 C.3   157  ARG157      0.1563
    142  C          4.4070   44.0200   13.5730 C.2   157  ARG157      0.2260
    143  O          3.3580   43.4260   13.7940 O.2   157  ARG157     -0.2867
    144  CB         3.9360   45.9750   12.0480 C.3   157  ARG157      0.0307
    145  CG         3.6060   47.4570   11.9310 C.3   157  ARG157      0.0489
    146  CD         2.4560   47.8380   12.8490 C.3   157  ARG157      0.2205
    147  NE         1.8230   49.1000   12.4670 N.pl3 157  ARG157     -0.0865
    148  CZ         2.1910   50.3080   12.8970 C.cat 157  ARG157      0.5346
    149  NH1        1.5230   51.3780   12.4810 N.pl3 157  ARG157      0.1354
    150  NH2        3.2200   50.4690   13.7310 N.pl3 157  ARG157      0.1354
@<TRIPOS>BOND
     1    74    72   ar
     2    73    72   ar
     3    72    71    1
     4    71    70    1
     5    70    67    1
     6    67    66    1
     7    67    68    1
     8    82    80   ar
     9    66    61   am
    10    75    68   am
    11    75    76    1
    12    80    79    1
    13    80    81   ar
    14    68    69    2
    15    79    76    1
    16    55    54    2
    17    57    58    1
    18    57    56    1
    19    58    52    1
    20    61    62    2
    21    61    60    1
    22    76    77    1
    23    77    78    2
    24    60    59    1
    25    60    63    1
    26    54    53    1
    27    39    38    1
    28    52    53    1
    29    56    53    1
    30    37    38   ar
    31    37    35   ar
    32    38    36   ar
    33   102   100   ar
    34    35    33   ar
    35    63    64    1
    36    63    65    1
    37   100    99    1
    38   100   101   ar
    39    36    34   ar
    40    31    30    2
    41    33    34   ar
    42    33    32    1
    43    99    96    1
    44    83    84    1
    45    29    30    1
    46    29    32    1
    47    29    28    1
    48    22    21    2
    49    30    40   am
    50    95    96    1
    51    95    85   am
    52    87    84    1
    53    87    88    1
    54    96    97    1
    55    21    28   am
    56    21    20    1
    57    84    85    1
    58    26    25   ar
    59    97    98    2
    60    23    20    1
    61    23    24    1
    62    85    86    2
    63    40    41    1
    64    43    42    2
    65    25    24    1
    66    25    27   ar
    67    41    42    1
    68    41    44    1
    69    48    46   ar
    70    48    50   ar
    71    20    19    1
    72    88    90   ar
    73    88    89   ar
    74    12    11    1
    75    90    92   ar
    76    46    45   ar
    77     9    11   ar
    78     9     7   ar
    79    51    50    1
    80    11    10   ar
    81     4     3    2
    82     7     6   ar
    83    50    49   ar
    84    10     8   ar
    85     6     8   ar
    86     6     5    1
    87    45    44    1
    88    45    47   ar
    89    89    91   ar
    90    92    93   ar
    91     5     2    1
    92    49    47   ar
    93     3     2    1
    94     3    13   am
    95     2     1    1
    96    16    15    2
    97    91    93   ar
    98    93    94    1
    99    13    14    1
   100    14    15    1
   101    14    17    1
   102   103   104    1
   103   107   104    1
   104   107   108    1
   105   145   144    1
   106   145   146    1
   107    18    17    1
   108   144   141    1
   109   104   105    1
   110   108   110   ar
   111   108   109   ar
   112   110   112   ar
   113   147   146    1
   114   147   148    2
   115   149   148    1
   116   105   106    2
   117   148   150    1
   118   112   113   ar
   119   109   111   ar
   120   141   142    1
   121   141   140    1
   122   142   143    2
   123   113   111   ar
   124   113   114    1
   125   138   137    1
   126   137   134    1
   127   137   139    1
   128   136   135    2
   129   134   135    1
   130   134   133    1
   131   131   130    1
   132   133   124   am
   133   126   127    1
   134   126   123    1
   135   119   120    1
   136   119   116    1
   137   130   129    2
   138   130   132    1
   139   129   128    1
   140   118   117    2
   141   125   124    2
   142   127   128    1
   143   124   123    1
   144   120   121    1
   145   117   116    1
   146   116   115    1
   147   123   122    1
   148   121   115    1
