@<TRIPOS>MOLECULE
tmp/4lh7A00.pdb
 105 100 0 0 0
SMALL
GASTEIGER

@<TRIPOS>ATOM
      1  N         21.8450   35.2930   28.1140 N.3    86  TYR86      -0.1227
      2  CA        23.2210   34.8090   27.9930 C.3    86  TYR86       0.1736
      3  C         23.7570   34.8630   26.5540 C.2    86  TYR86       0.2596
      4  O         22.9940   34.9540   25.5910 O.2    86  TYR86      -0.2718
      5  CB        23.3140   33.3710   28.5190 C.3    86  TYR86       0.0548
      6  CG        22.3720   32.4280   27.8080 C.ar   86  TYR86      -0.0200
      7  CD1       22.7180   31.8640   26.5830 C.ar   86  TYR86      -0.0009
      8  CD2       21.1220   32.1250   28.3420 C.ar   86  TYR86      -0.0009
      9  CE1       21.8490   31.0200   25.9160 C.ar   86  TYR86       0.0417
     10  CE2       20.2450   31.2750   27.6800 C.ar   86  TYR86       0.0417
     11  CZ        20.6200   30.7250   26.4660 C.ar   86  TYR86       0.1957
     12  OH        19.7770   29.8760   25.7840 O.3    86  TYR86      -0.2866
     13  N         25.0800   34.8090   26.4230 N.am   87  SER87      -0.1938
     14  CA        25.7150   34.6490   25.1190 C.3    87  SER87       0.2055
     15  C         26.2120   33.2140   24.9830 C.2    87  SER87       0.2642
     16  O         26.5810   32.5700   25.9710 O.2    87  SER87      -0.2714
     17  CB        26.8540   35.6450   24.9180 C.3    87  SER87       0.2130
     18  OG        27.9050   35.3950   25.8140 O.3    87  SER87      -0.2179
     19  N         26.2100   32.7170   23.7540 N.am   88  LEU88      -0.1977
     20  CA        26.5780   31.3380   23.4930 C.3    88  LEU88       0.1596
     21  C         28.0870   31.1590   23.4330 C.2    88  LEU88       0.2287
     22  O         28.8170   32.0900   23.1010 O.2    88  LEU88      -0.2864
     23  CB        25.9840   30.8820   22.1620 C.3    88  LEU88       0.0297
     24  CG        24.4630   30.9490   22.0300 C.3    88  LEU88       0.0022
     25  CD1       24.0560   31.0150   20.5600 C.3    88  LEU88       0.0001
     26  CD2       23.8340   29.7390   22.6990 C.3    88  LEU88       0.0001
     27  N         19.7460   27.1250   13.1920 N.3   117  GLU117     -0.1231
     28  CA        19.0910   28.4040   12.9380 C.3   117  GLU117      0.1699
     29  C         20.1250   29.4520   12.5490 C.2   117  GLU117      0.2592
     30  O         21.3100   29.2950   12.8360 O.2   117  GLU117     -0.2718
     31  CB        18.3400   28.8560   14.1900 C.3   117  GLU117      0.0402
     32  CG        17.3560   27.8220   14.7270 C.3   117  GLU117      0.1161
     33  CD        16.7380   28.2320   16.0400 C.2   117  GLU117      0.3649
     34  OE1       16.8940   27.4860   17.0290 O.co2 117  GLU117     -0.2457
     35  OE2       16.1100   29.3020   16.0840 O.co2 117  GLU117     -0.2457
     36  N         19.6790   30.5230   11.8980 N.am  118  LEU118     -0.1966
     37  CA        20.5810   31.6190   11.5350 C.3   118  LEU118      0.1728
     38  C         20.7640   32.5450   12.7350 C.2   118  LEU118      0.2616
     39  O         19.7980   32.8570   13.4160 O.2   118  LEU118     -0.2715
     40  CB        20.0270   32.4010   10.3390 C.3   118  LEU118      0.0311
     41  CG        19.7060   31.5750    9.0850 C.3   118  LEU118      0.0022
     42  CD1       19.2100   32.4770    7.9590 C.3   118  LEU118      0.0001
     43  CD2       20.9150   30.7720    8.6390 C.3   118  LEU118      0.0001
     44  N         21.9980   32.9720   12.9990 N.am  119  LYS119     -0.1963
     45  CA        22.2470   33.9300   14.0700 C.3   119  LYS119      0.1728
     46  C         22.0520   35.3190   13.4850 C.2   119  LYS119      0.2616
     47  O         22.8300   35.7740   12.6400 O.2   119  LYS119     -0.2715
     48  CB        23.6400   33.7700   14.6940 C.3   119  LYS119      0.0311
     49  CG        23.7410   34.3920   16.0850 C.3   119  LYS119      0.0038
     50  CD        25.0980   34.1510   16.7390 C.3   119  LYS119      0.0206
     51  CE        25.1530   34.7090   18.1610 C.3   119  LYS119      0.1093
     52  NZ        24.8870   36.1720   18.2580 N.3   119  LYS119     -0.1314
     53  N         20.9790   35.9670   13.9120 N.am  120  ILE120     -0.1977
     54  CA        20.5610   37.2300   13.3260 C.3   120  ILE120      0.1596
     55  C         21.3800   38.3460   13.9560 C.2   120  ILE120      0.2287
     56  O         21.5100   38.4180   15.1730 O.2   120  ILE120     -0.2864
     57  CB        19.0600   37.4840   13.5520 C.3   120  ILE120      0.0276
     58  CG1       18.2110   36.3140   13.0280 C.3   120  ILE120      0.0022
     59  CG2       18.6440   38.8170   12.9330 C.3   120  ILE120      0.0022
     60  CD1       18.4630   35.9290   11.5870 C.3   120  ILE120      0.0001
     61  N         15.5930   39.0800   18.0520 N.3   174  GLU174     -0.1245
     62  CA        16.4120   40.1590   17.5350 C.3   174  GLU174      0.1567
     63  C         15.5390   41.1290   16.7490 C.2   174  GLU174      0.2260
     64  O         14.6040   40.7140   16.0630 O.2   174  GLU174     -0.2867
     65  CB        17.5030   39.5870   16.6330 C.3   174  GLU174      0.0388
     66  CG        18.8990   40.0970   16.9340 C.3   174  GLU174      0.1160
     67  CD        19.6130   39.2650   17.9870 C.2   174  GLU174      0.3649
     68  OE1       18.9700   38.3800   18.5970 O.co2 174  GLU174     -0.2457
     69  OE2       20.8280   39.4830   18.1950 O.co2 174  GLU174     -0.2457
     70  N         12.8570   33.6670   18.5910 N.3   226  TYR226     -0.1241
     71  CA        13.3220   32.2810   18.5160 C.3   226  TYR226      0.1605
     72  C         13.1710   31.4660   19.7940 C.2   226  TYR226      0.2264
     73  O         13.2150   30.2520   19.7240 O.2   226  TYR226     -0.2867
     74  CB        14.7850   32.2340   18.0430 C.3   226  TYR226      0.0534
     75  CG        15.7520   32.9200   18.9800 C.ar  226  TYR226     -0.0201
     76  CD1       16.1990   32.2860   20.1350 C.ar  226  TYR226     -0.0009
     77  CD2       16.2180   34.1960   18.7140 C.ar  226  TYR226     -0.0009
     78  CE1       17.0750   32.9150   21.0000 C.ar  226  TYR226      0.0417
     79  CE2       17.1020   34.8300   19.5710 C.ar  226  TYR226      0.0417
     80  CZ        17.5210   34.1820   20.7130 C.ar  226  TYR226      0.1957
     81  OH        18.3970   34.7980   21.5750 O.3   226  TYR226     -0.2866
     82  N         12.1500   32.9830   11.9990 N.3   254  ASN254     -0.1240
     83  CA        12.9920   32.8640   10.8080 C.3   254  ASN254      0.1653
     84  C         12.7140   31.5520   10.0680 C.2   254  ASN254      0.2266
     85  O         12.7900   30.4700   10.6700 O.2   254  ASN254     -0.2867
     86  CB        14.4760   32.9700   11.1740 C.3   254  ASN254      0.1155
     87  CG        15.3770   32.9740    9.9520 C.2   254  ASN254      0.2627
     88  OD1       15.7290   31.9150    9.4190 O.2   254  ASN254     -0.2716
     89  ND2       15.7600   34.1650    9.4990 N.am  254  ASN254     -0.0877
     90  N         23.4380   29.1820   14.6420 N.3   288  VAL288     -0.1245
     91  CA        23.2820   28.6330   15.9830 C.3   288  VAL288      0.1561
     92  C         22.8410   27.1880   15.8610 C.2   288  VAL288      0.2260
     93  O         21.9560   26.8750   15.0730 O.2   288  VAL288     -0.2867
     94  CB        22.2720   29.4270   16.8330 C.3   288  VAL288      0.0252
     95  CG1       22.2590   28.8960   18.2640 C.3   288  VAL288      0.0019
     96  CG2       22.6110   30.9120   16.8160 C.3   288  VAL288      0.0019
     97  N         21.6600   23.9410   18.1590 N.3   290  LYS290     -0.1245
     98  CA        21.0940   23.5970   19.4590 C.3   290  LYS290      0.1561
     99  C         20.6360   22.1460   19.5140 C.2   290  LYS290      0.2260
    100  O         20.0140   21.6620   18.5790 O.2   290  LYS290     -0.2867
    101  CB        19.8730   24.4660   19.7460 C.3   290  LYS290      0.0271
    102  CG        20.1380   25.9610   19.6940 C.3   290  LYS290      0.0035
    103  CD        18.8360   26.7360   19.8020 C.3   290  LYS290      0.0206
    104  CE        19.0560   28.2320   19.6860 C.3   290  LYS290      0.1093
    105  NZ        17.7490   28.9460   19.5730 N.3   290  LYS290     -0.1314
@<TRIPOS>BOND
     1    42    41    1
     2    43    41    1
     3    41    40    1
     4    88    87    2
     5    89    87   am
     6    87    86    1
     7    84    85    2
     8    84    83    1
     9    40    37    1
    10    83    86    1
    11    83    82    1
    12    37    36    1
    13    37    38    1
    14    60    58    1
    15    36    29   am
    16    29    30    2
    17    29    28    1
    18    47    46    2
    19    38    44   am
    20    38    39    2
    21    59    57    1
    22    28    27    1
    23    28    31    1
    24    44    45    1
    25    58    57    1
    26    54    57    1
    27    54    53    1
    28    54    55    1
    29    46    53   am
    30    46    45    1
    31    55    56    2
    32    45    48    1
    33    31    32    1
    34    90    91    1
    35    48    49    1
    36    32    33    1
    37    93    92    2
    38    92    91    1
    39    91    94    1
    40    33    35   ar
    41    33    34   ar
    42    64    63    2
    43    49    50    1
    44    65    66    1
    45    65    62    1
    46    50    51    1
    47    63    62    1
    48    96    94    1
    49    94    95    1
    50    66    67    1
    51    62    61    1
    52    67    69   ar
    53    67    68   ar
    54    74    71    1
    55    74    75    1
    56    97    98    1
    57    51    52    1
    58    71    70    1
    59    71    72    1
    60   100    99    2
    61    77    75   ar
    62    77    79   ar
    63    75    76   ar
    64    98    99    1
    65    98   101    1
    66    79    80   ar
    67   105   104    1
    68   104   103    1
    69   102   101    1
    70   102   103    1
    71    73    72    2
    72    76    78   ar
    73    25    24    1
    74    80    78   ar
    75    80    81    1
    76    24    23    1
    77    24    26    1
    78    23    20    1
    79    22    21    2
    80    21    20    1
    81    20    19    1
    82    19    15   am
    83    17    14    1
    84    17    18    1
    85    15    14    1
    86    15    16    2
    87    14    13    1
    88     4     3    2
    89    12    11    1
    90     9    11   ar
    91     9     7   ar
    92    13     3   am
    93    11    10   ar
    94     3     2    1
    95     7     6   ar
    96    10     8   ar
    97     6     8   ar
    98     6     5    1
    99     2     1    1
   100     2     5    1
