@<TRIPOS>MOLECULE
tmp/4lhhA00.pdb
 162 149 0 0 0
SMALL
GASTEIGER

@<TRIPOS>ATOM
      1  N         24.0550   -3.7190   53.4420 N.3    16  ALA16      -0.1245
      2  CA        25.2170   -3.7760   54.3230 C.3    16  ALA16       0.1562
      3  C         25.8910   -5.1280   54.1510 C.2    16  ALA16       0.2260
      4  O         25.3700   -5.9990   53.4590 O.2    16  ALA16      -0.2867
      5  CB        24.8090   -3.5580   55.7870 C.3    16  ALA16       0.0290
      6  N         29.1390   -5.8620   61.2950 N.3    33  ASP33      -0.1239
      7  CA        29.2550   -4.9340   60.1890 C.3    33  ASP33       0.1674
      8  C         30.5720   -4.1820   60.3480 C.2    33  ASP33       0.2266
      9  O         30.6890   -3.3140   61.2140 O.2    33  ASP33      -0.2867
     10  CB        28.0740   -3.9630   60.2720 C.3    33  ASP33       0.1410
     11  CG        27.9570   -3.0660   59.0670 C.2    33  ASP33       0.3668
     12  OD1       28.9390   -2.9440   58.3080 O.co2  33  ASP33      -0.2456
     13  OD2       26.8670   -2.4790   58.8840 O.co2  33  ASP33      -0.2456
     14  N         33.0500   -1.4640   59.8600 N.3    35  ASP35      -0.1239
     15  CA        32.6890   -0.0780   59.5830 C.3    35  ASP35       0.1674
     16  C         33.9140    0.8330   59.6170 C.2    35  ASP35       0.2266
     17  O         34.3670    1.2320   60.6960 O.2    35  ASP35      -0.2867
     18  CB        31.6490    0.3790   60.6190 C.3    35  ASP35       0.1410
     19  CG        31.2100    1.8160   60.4310 C.2    35  ASP35       0.3668
     20  OD1       31.4110    2.3830   59.3310 O.co2  35  ASP35      -0.2456
     21  OD2       30.6450    2.3740   61.3990 O.co2  35  ASP35      -0.2456
     22  N         34.0230    3.7940   59.0690 N.3    37  GLY37      -0.1225
     23  CA        33.5980    5.1190   59.4690 C.3    37  GLY37       0.1811
     24  C         33.3730    5.3140   60.9630 C.2    37  GLY37       0.2280
     25  O         32.9370    6.3870   61.3840 O.2    37  GLY37      -0.2866
     26  N         25.5300    7.8140   65.5070 N.3    79  TYR79      -0.1227
     27  CA        25.9590    7.8260   64.1140 C.3    79  TYR79       0.1736
     28  C         25.2510    8.9440   63.3520 C.2    79  TYR79       0.2596
     29  O         24.1360    9.3300   63.6960 O.2    79  TYR79      -0.2718
     30  CB        25.6900    6.4740   63.4600 C.3    79  TYR79       0.0548
     31  CG        26.3990    5.3220   64.1420 C.ar   79  TYR79      -0.0200
     32  CD1       27.7170    5.0120   63.8310 C.ar   79  TYR79      -0.0009
     33  CD2       25.7490    4.5430   65.0910 C.ar   79  TYR79      -0.0009
     34  CE1       28.3740    3.9590   64.4500 C.ar   79  TYR79       0.0417
     35  CE2       26.3990    3.4880   65.7190 C.ar   79  TYR79       0.0417
     36  CZ        27.7100    3.2020   65.3930 C.ar   79  TYR79       0.1957
     37  OH        28.3490    2.1560   66.0130 O.3    79  TYR79      -0.2866
     38  N         25.9030    9.4600   62.3150 N.am   80  GLY80      -0.1942
     39  CA        25.3850   10.6010   61.5770 C.3    80  GLY80       0.2014
     40  C         24.0150   10.4250   60.9390 C.2    80  GLY80       0.2638
     41  O         23.3540   11.4090   60.5990 O.2    80  GLY80      -0.2714
     42  N         23.5850    9.1780   60.7720 N.am   81  ASP81      -0.1971
     43  CA        22.2750    8.8880   60.1820 C.3    81  ASP81       0.1709
     44  C         21.1490    8.9800   61.2130 C.2    81  ASP81       0.2293
     45  O         19.9730    8.9450   60.8610 O.2    81  ASP81      -0.2864
     46  CB        22.2660    7.4870   59.5740 C.3    81  ASP81       0.1436
     47  CG        22.3310    6.4040   60.6330 C.2    81  ASP81       0.3671
     48  OD1       23.0270    6.6210   61.6430 O.co2  81  ASP81      -0.2456
     49  OD2       21.6720    5.3550   60.4710 O.co2  81  ASP81      -0.2456
     50  N         21.2000    6.8980   64.0180 N.3    83  SER83      -0.1217
     51  CA        21.2310    5.6510   64.7730 C.3    83  SER83       0.1889
     52  C         22.1140    5.8120   66.0030 C.2    83  SER83       0.2288
     53  O         22.9720    6.6930   66.0480 O.2    83  SER83      -0.2866
     54  CB        21.7580    4.5040   63.9080 C.3    83  SER83       0.2089
     55  OG        20.9480    4.3170   62.7630 O.3    83  SER83      -0.2183
     56  N         16.6850    1.2280   64.4080 N.3   115  SER115     -0.1202
     57  CA        17.3140    0.8040   63.1600 C.3   115  SER115      0.2020
     58  C         18.1710   -0.4470   63.3570 C.2   115  SER115      0.2618
     59  O         18.1820   -1.3370   62.5120 O.2   115  SER115     -0.2717
     60  CB        18.1530    1.9340   62.5640 C.3   115  SER115      0.2103
     61  OG        19.1270    2.3750   63.4920 O.3   115  SER115     -0.2182
     62  N         18.8820   -0.5160   64.4780 N.am  116  PHE116     -0.1975
     63  CA        19.6860   -1.6990   64.7690 C.3   116  PHE116      0.1639
     64  C         18.7920   -2.8800   65.1650 C.2   116  PHE116      0.2290
     65  O         19.0170   -4.0090   64.7260 O.2   116  PHE116     -0.2864
     66  CB        20.7400   -1.4010   65.8480 C.3   116  PHE116      0.0560
     67  CG        21.8440   -0.4850   65.3880 C.ar  116  PHE116     -0.0200
     68  CD1       22.6680   -0.8430   64.3320 C.ar  116  PHE116     -0.0042
     69  CD2       22.0770    0.7220   66.0310 C.ar  116  PHE116     -0.0042
     70  CE1       23.6870   -0.0040   63.9050 C.ar  116  PHE116     -0.0003
     71  CE2       23.0970    1.5640   65.6130 C.ar  116  PHE116     -0.0003
     72  CZ        23.9010    1.2040   64.5460 C.ar  116  PHE116     -0.0000
     73  N         17.3820   -4.4960   62.1190 N.3   119  ASP119     -0.1239
     74  CA        18.3590   -5.2150   61.3000 C.3   119  ASP119      0.1674
     75  C         18.7440   -6.5350   61.9790 C.2   119  ASP119      0.2266
     76  O         19.7820   -6.6120   62.6360 O.2   119  ASP119     -0.2867
     77  CB        19.6360   -4.3920   61.0970 C.3   119  ASP119      0.1410
     78  CG        19.4530   -3.2180   60.1470 C.2   119  ASP119      0.3668
     79  OD1       18.4080   -3.1370   59.4720 O.co2 119  ASP119     -0.2456
     80  OD2       20.3770   -2.3760   60.0670 O.co2 119  ASP119     -0.2456
     81  N         22.3880   -8.1190   61.5880 N.3   122  ILE122     -0.1245
     82  CA        23.5910   -7.4440   62.0760 C.3   122  ILE122      0.1561
     83  C         23.6960   -7.5580   63.5960 C.2   122  ILE122      0.2260
     84  O         22.8660   -7.0170   64.3200 O.2   122  ILE122     -0.2867
     85  CB        23.6270   -5.9700   61.6130 C.3   122  ILE122      0.0252
     86  CG1       23.7790   -5.9130   60.0880 C.3   122  ILE122      0.0019
     87  CG2       24.7920   -5.2220   62.2870 C.3   122  ILE122      0.0019
     88  CD1       23.6750   -4.5170   59.5090 C.3   122  ILE122      0.0001
     89  N         28.6800   -3.8920   65.3790 N.3   125  LEU125     -0.1245
     90  CA        29.6020   -3.2230   64.4630 C.3   125  LEU125      0.1561
     91  C         31.0500   -3.4350   64.9000 C.2   125  LEU125      0.2260
     92  O         31.3410   -3.5140   66.0910 O.2   125  LEU125     -0.2867
     93  CB        29.3020   -1.7160   64.3910 C.3   125  LEU125      0.0270
     94  CG        28.3680   -1.2410   63.2620 C.3   125  LEU125      0.0019
     95  CD1       26.9660   -1.8310   63.4180 C.3   125  LEU125      0.0001
     96  CD2       28.3030    0.2850   63.2390 C.3   125  LEU125      0.0001
     97  N         34.0510    4.8240   53.6450 N.3   219  ASP219     -0.1239
     98  CA        33.2170    4.3190   54.7370 C.3   219  ASP219      0.1674
     99  C         32.4700    3.0320   54.3520 C.2   219  ASP219      0.2266
    100  O         31.4110    3.0700   53.7200 O.2   219  ASP219     -0.2867
    101  CB        32.2220    5.4040   55.1850 C.3   219  ASP219      0.1410
    102  CG        31.4140    4.9960   56.4040 C.2   219  ASP219      0.3668
    103  OD1       31.5840    3.8640   56.9050 O.co2 219  ASP219     -0.2456
    104  OD2       30.5950    5.8150   56.8630 O.co2 219  ASP219     -0.2456
    105  N         30.8160    1.2100   56.2030 N.3   221  GLY221     -0.1210
    106  CA        29.5820    1.0790   56.9590 C.3   221  GLY221      0.1956
    107  C         28.4220    1.9180   56.4420 C.2   221  GLY221      0.2613
    108  O         27.3610    1.9480   57.0630 O.2   221  GLY221     -0.2717
    109  N         28.6350    2.6170   55.3330 N.am  222  THR222     -0.1938
    110  CA        27.5780    3.4150   54.7080 C.3   222  THR222      0.2028
    111  C         27.2240    2.7790   53.3740 C.2   222  THR222      0.2642
    112  O         28.1080    2.4180   52.5980 O.2   222  THR222     -0.2714
    113  CB        28.0090    4.8800   54.5120 C.3   222  THR222      0.1808
    114  OG1       28.1000    5.5190   55.7910 O.3   222  THR222     -0.2208
    115  CG2       26.9810    5.6460   53.6450 C.3   222  THR222      0.0379
    116  N         25.9280    2.6240   53.1180 N.am  223  THR223     -0.1950
    117  CA        25.4670    1.8930   51.9380 C.3   223  THR223      0.1897
    118  C         25.7500    2.6130   50.6340 C.2   223  THR223      0.2313
    119  O         26.2490    2.0150   49.6780 O.2   223  THR223     -0.2863
    120  CB        23.9600    1.6400   51.9890 C.3   223  THR223      0.1794
    121  OG1       23.6120    1.0980   53.2610 O.3   223  THR223     -0.2208
    122  CG2       23.5420    0.6450   50.8920 C.3   223  THR223      0.0378
    123  N         27.5770    9.3880   48.7490 N.3   226  TYR226     -0.1241
    124  CA        27.0620   10.7330   49.0290 C.3   226  TYR226      0.1605
    125  C         28.0580   11.7940   48.5800 C.2   226  TYR226      0.2264
    126  O         29.1880   11.8380   49.0710 O.2   226  TYR226     -0.2867
    127  CB        26.7680   10.8970   50.5270 C.3   226  TYR226      0.0534
    128  CG        25.6470   10.0090   51.0110 C.ar  226  TYR226     -0.0201
    129  CD1       24.3240   10.4410   50.9580 C.ar  226  TYR226     -0.0009
    130  CD2       25.9050    8.7290   51.4900 C.ar  226  TYR226     -0.0009
    131  CE1       23.2900    9.6300   51.3850 C.ar  226  TYR226      0.0417
    132  CE2       24.8800    7.9070   51.9140 C.ar  226  TYR226      0.0417
    133  CZ        23.5730    8.3640   51.8630 C.ar  226  TYR226      0.1957
    134  OH        22.5390    7.5540   52.2890 O.3   226  TYR226     -0.2866
    135  N         24.0600   18.8350   53.8470 N.3   299  GLY299     -0.1210
    136  CA        23.4110   18.6180   55.1260 C.3   299  GLY299      0.1956
    137  C         23.9660   17.4480   55.9240 C.2   299  GLY299      0.2611
    138  O         23.6460   17.3030   57.1000 O.2   299  GLY299     -0.2717
    139  N         24.7780   16.6000   55.2960 N.am  300  ILE300     -0.1979
    140  CA        25.5560   15.6190   56.0530 C.3   300  ILE300      0.1595
    141  C         26.7730   16.3080   56.6350 C.2   300  ILE300      0.2287
    142  O         27.1350   16.0840   57.7910 O.2   300  ILE300     -0.2864
    143  CB        26.0340   14.4270   55.1930 C.3   300  ILE300      0.0276
    144  CG1       24.8550   13.5550   54.7810 C.3   300  ILE300      0.0022
    145  CG2       27.0470   13.5860   55.9640 C.3   300  ILE300      0.0022
    146  CD1       25.2590   12.3590   53.9330 C.3   300  ILE300      0.0001
    147  N         29.7960   16.1260   55.1580 N.3   302  ILE302     -0.1245
    148  CA        30.9890   15.4640   54.6400 C.3   302  ILE302      0.1561
    149  C         30.5510   14.5800   53.4800 C.2   302  ILE302      0.2260
    150  O         29.4140   14.1120   53.4630 O.2   302  ILE302     -0.2867
    151  CB        31.7120   14.6480   55.7450 C.3   302  ILE302      0.0252
    152  CG1       33.1090   14.1720   55.3000 C.3   302  ILE302      0.0019
    153  CG2       30.8560   13.4610   56.2350 C.3   302  ILE302      0.0019
    154  CD1       34.1000   15.3190   55.3370 C.3   302  ILE302      0.0001
    155  N         30.6830   11.0900   51.4270 N.3   304  ILE304     -0.1245
    156  CA        30.8960    9.7120   51.8770 C.3   304  ILE304      0.1561
    157  C         30.9980    8.7390   50.7190 C.2   304  ILE304      0.2260
    158  O         30.0250    8.4980   49.9970 O.2   304  ILE304     -0.2867
    159  CB        29.7850    9.2330   52.8450 C.3   304  ILE304      0.0252
    160  CG1       29.6480   10.1980   54.0210 C.3   304  ILE304      0.0019
    161  CG2       30.0900    7.8080   53.3580 C.3   304  ILE304      0.0019
    162  CD1       28.4600    9.8870   54.9260 C.3   304  ILE304      0.0001
@<TRIPOS>BOND
     1   125   124    1
     2   125   126    2
     3   123   124    1
     4   124   127    1
     5   119   118    2
     6   158   157    2
     7   127   128    1
     8   118   117    1
     9   157   156    1
    10   122   120    1
    11   129   128   ar
    12   129   131   ar
    13   128   130   ar
    14   131   133   ar
    15   155   156    1
    16   130   132   ar
    17   133   132   ar
    18   133   134    1
    19   156   159    1
    20   117   120    1
    21   117   116    1
    22   120   121    1
    23   112   111    2
    24   159   161    1
    25   159   160    1
    26   116   111   am
    27   111   110    1
    28     1     2    1
    29     4     3    2
    30   150   149    2
    31   149   148    1
    32    97    98    1
    33   115   113    1
    34   100    99    2
    35   135   136    1
    36   146   144    1
    37   160   162    1
    38     3     2    1
    39     2     5    1
    40    99    98    1
    41   113   110    1
    42   113   114    1
    43   148   147    1
    44   148   151    1
    45   110   109    1
    46    98   101    1
    47   144   143    1
    48   136   137    1
    49   101   102    1
    50   143   145    1
    51   143   140    1
    52   139   137   am
    53   139   140    1
    54   152   154    1
    55   152   151    1
    56   109   107   am
    57   151   153    1
    58   137   138    2
    59   140   141    1
    60   105   106    1
    61   102   104   ar
    62   102   103   ar
    63   107   106    1
    64   107   108    2
    65   141   142    2
    66    12    11   ar
    67    13    11   ar
    68    11    10    1
    69    22    23    1
    70    20    19   ar
    71    23    24    1
    72    79    78   ar
    73    88    86    1
    74    46    43    1
    75    46    47    1
    76    15    16    1
    77    15    14    1
    78    15    18    1
    79    16    17    2
    80    80    78   ar
    81    86    85    1
    82    78    77    1
    83    43    42    1
    84    43    44    1
    85     7    10    1
    86     7     8    1
    87     7     6    1
    88     8     9    2
    89    19    18    1
    90    19    21   ar
    91    49    47   ar
    92    41    40    2
    93    47    48   ar
    94    42    40   am
    95    45    44    2
    96    40    39    1
    97    24    25    2
    98    77    74    1
    99    74    75    1
   100    74    73    1
   101    39    38    1
   102    81    82    1
   103    85    82    1
   104    85    87    1
   105    75    76    2
   106    82    83    1
   107    38    28   am
   108    59    58    2
   109    60    57    1
   110    60    61    1
   111    55    54    1
   112    57    58    1
   113    57    56    1
   114    96    94    1
   115    94    95    1
   116    94    93    1
   117    28    29    2
   118    28    27    1
   119    58    62   am
   120    30    27    1
   121    30    31    1
   122    83    84    2
   123    32    31   ar
   124    32    34   ar
   125    70    68   ar
   126    70    72   ar
   127    54    51    1
   128    50    51    1
   129    27    26    1
   130    31    33   ar
   131    68    67   ar
   132    93    90    1
   133    34    36   ar
   134    90    91    1
   135    90    89    1
   136    62    63    1
   137    72    71   ar
   138    65    64    2
   139    63    64    1
   140    63    66    1
   141    51    52    1
   142    91    92    2
   143    33    35   ar
   144    67    66    1
   145    67    69   ar
   146    36    35   ar
   147    36    37    1
   148    71    69   ar
   149    52    53    2
