@<TRIPOS>MOLECULE
tmp/4lhiA00.pdb
 161 155 0 0 0
SMALL
GASTEIGER

@<TRIPOS>ATOM
      1  N         12.7530    2.1630    5.6680 N.3    64  ASN64      -0.1240
      2  CA        12.0130    3.1010    6.4660 C.3    64  ASN64       0.1653
      3  C         10.8340    3.6130    5.6710 C.2    64  ASN64       0.2266
      4  O         11.0370    4.0610    4.4840 O.2    64  ASN64      -0.2867
      5  CB        12.8740    4.3500    6.8070 C.3    64  ASN64       0.1155
      6  CG        14.0260    4.1100    7.7580 C.2    64  ASN64       0.2627
      7  OD1       14.1150    3.1340    8.5090 O.2    64  ASN64      -0.2716
      8  ND2       14.9380    5.1010    7.7670 N.am   64  ASN64      -0.0877
      9  N          8.4480    8.0960   11.1880 N.3    89  GLN89      -0.1245
     10  CA         8.8280    6.9650   10.2690 C.3    89  GLN89       0.1566
     11  C          8.5650    5.6840   11.0240 C.2    89  GLN89       0.2260
     12  O          8.4170    5.6960   12.2320 O.2    89  GLN89      -0.2867
     13  CB        10.3020    6.9760    9.7960 C.3    89  GLN89       0.0367
     14  CG        11.2950    6.9520   10.9560 C.3    89  GLN89       0.0905
     15  CD        12.0390    5.6320   11.0020 C.2    89  GLN89       0.2608
     16  OE1       11.4560    4.6260   11.2080 O.2    89  GLN89      -0.2717
     17  NE2       13.3290    5.6810   10.9550 N.am   89  GLN89      -0.0878
     18  N          9.9760    1.3080   10.7830 N.3    91  HIS91      -0.1241
     19  CA        10.8880    0.3460   10.1910 C.3    91  HIS91       0.1621
     20  C         10.8210   -0.8880   11.0460 C.2    91  HIS91       0.2264
     21  O         10.1020   -0.9080   12.0610 O.2    91  HIS91      -0.2867
     22  CB        12.3120    0.8680   10.1730 C.3    91  HIS91       0.0745
     23  CG        12.8400    1.1370   11.5560 C.ar   91  HIS91       0.0817
     24  ND1       12.7140    2.3620   12.2040 N.ar   91  HIS91      -0.2268
     25  CD2       13.3950    0.2770   12.4500 C.ar   91  HIS91       0.1154
     26  CE1       13.1970    2.2600   13.4240 C.ar   91  HIS91       0.1986
     27  NE2       13.6600    0.9870   13.6020 N.ar   91  HIS91      -0.2212
     28  N         13.0250   -4.6060   12.3060 N.3    93  HIS93      -0.1241
     29  CA        14.2060   -5.4720   12.4680 C.3    93  HIS93       0.1621
     30  C         13.8220   -6.9170   12.3580 C.2    93  HIS93       0.2264
     31  O         12.8020   -7.2640   12.8770 O.2    93  HIS93      -0.2867
     32  CB        14.8730   -5.2220   13.8410 C.3    93  HIS93       0.0745
     33  CG        15.2130   -3.7650   14.1090 C.ar   93  HIS93       0.0817
     34  ND1       16.4670   -3.2780   13.9460 N.ar   93  HIS93      -0.2268
     35  CD2       14.4230   -2.7260   14.5180 C.ar   93  HIS93       0.1154
     36  CE1       16.4750   -1.9400   14.2800 C.ar   93  HIS93       0.1986
     37  NE2       15.1990   -1.6080   14.5960 N.ar   93  HIS93      -0.2212
     38  N          9.0960   -0.7880   14.7050 N.3   116  HIS116     -0.1241
     39  CA         9.3710    0.4280   15.4600 C.3   116  HIS116      0.1621
     40  C          8.6760    1.5660   14.7970 C.2   116  HIS116      0.2264
     41  O          8.9990    1.8530   13.6170 O.2   116  HIS116     -0.2867
     42  CB        10.8970    0.6930   15.5160 C.3   116  HIS116      0.0745
     43  CG        11.5710   -0.3190   16.4740 C.ar  116  HIS116      0.0817
     44  ND1       12.8870   -0.6470   16.4660 N.ar  116  HIS116     -0.2268
     45  CD2       10.9730   -1.0740   17.4660 C.ar  116  HIS116      0.1154
     46  CE1       13.1330   -1.5510   17.4400 C.ar  116  HIS116      0.1986
     47  NE2       11.9490   -1.8980   17.9900 N.ar  116  HIS116     -0.2212
     48  N          8.3540    5.4420   15.0770 N.3   118  VAL118     -0.1245
     49  CA         9.2260    6.4420   15.7460 C.3   118  VAL118      0.1561
     50  C          8.4910    7.7850   15.7760 C.2   118  VAL118      0.2260
     51  O          8.1400    8.2400   14.7210 O.2   118  VAL118     -0.2867
     52  CB        10.5560    6.5670   14.9580 C.3   118  VAL118      0.0252
     53  CG1       11.5360    7.5410   15.6430 C.3   118  VAL118      0.0019
     54  CG2       11.2530    5.1860   14.7810 C.3   118  VAL118      0.0019
     55  N         12.1900   16.8310   14.5510 N.3   127  PHE127     -0.1241
     56  CA        12.8740   15.6190   14.8970 C.3   127  PHE127      0.1605
     57  C         14.3500   15.8390   15.2310 C.2   127  PHE127      0.2264
     58  O         14.9100   15.2420   16.1810 O.2   127  PHE127     -0.2867
     59  CB        12.7660   14.6330   13.7000 C.3   127  PHE127      0.0534
     60  CG        13.5670   13.3650   13.8800 C.ar  127  PHE127     -0.0203
     61  CD1       13.0060   12.2850   14.5230 C.ar  127  PHE127     -0.0042
     62  CD2       14.8650   13.2890   13.4130 C.ar  127  PHE127     -0.0042
     63  CE1       13.7410   11.1210   14.7180 C.ar  127  PHE127     -0.0003
     64  CE2       15.6240   12.1160   13.5700 C.ar  127  PHE127     -0.0003
     65  CZ        15.0470   11.0580   14.2350 C.ar  127  PHE127     -0.0000
     66  N         15.9560   14.6500   18.9530 N.3   131  VAL131     -0.1231
     67  CA        16.8700   13.5230   19.2390 C.3   131  VAL131      0.1692
     68  C         18.0430   13.9210   20.1410 C.2   131  VAL131      0.2591
     69  O         18.7570   13.0660   20.6400 O.2   131  VAL131     -0.2718
     70  CB        17.4090   12.7910   17.9690 C.3   131  VAL131      0.0266
     71  CG1       16.2280   12.2790   17.1810 C.3   131  VAL131      0.0020
     72  CG2       18.3830   13.6500   17.1370 C.3   131  VAL131      0.0020
     73  N         18.2270   15.2200   20.3550 N.am  132  GLN132     -0.1979
     74  CA        19.3090   15.6370   21.2320 C.3   132  GLN132      0.1601
     75  C         18.7620   15.9440   22.6600 C.2   132  GLN132      0.2287
     76  O         19.4120   16.6320   23.4680 O.2   132  GLN132     -0.2864
     77  CB        20.1740   16.7720   20.6010 C.3   132  GLN132      0.0394
     78  CG        20.7390   16.5620   19.1650 C.3   132  GLN132      0.0908
     79  CD        21.7390   15.3910   18.9250 C.2   132  GLN132      0.2608
     80  OE1       22.6510   15.1200   19.7190 O.2   132  GLN132     -0.2717
     81  NE2       21.5840   14.7210   17.7860 N.am  132  GLN132     -0.0878
     82  N         12.2590   11.3520   21.9560 N.3   137  LEU137     -0.1245
     83  CA        11.5420   10.4010   21.1170 C.3   137  LEU137      0.1561
     84  C         10.6650    9.4460   21.9510 C.2   137  LEU137      0.2260
     85  O         10.9470    9.1430   23.1170 O.2   137  LEU137     -0.2867
     86  CB        12.5310    9.4980   20.3310 C.3   137  LEU137      0.0270
     87  CG        13.3970   10.1800   19.3220 C.3   137  LEU137      0.0019
     88  CD1       14.1010    9.1310   18.4280 C.3   137  LEU137      0.0001
     89  CD2       12.6650   11.1420   18.3710 C.3   137  LEU137      0.0001
     90  N          9.3130    5.6130   20.9890 N.3   139  VAL139     -0.1245
     91  CA         9.2640    4.5770   19.9630 C.3   139  VAL139      0.1561
     92  C          8.2840    3.4850   20.3990 C.2   139  VAL139      0.2260
     93  O          8.4140    2.9210   21.4890 O.2   139  VAL139     -0.2867
     94  CB        10.6540    4.0090   19.6200 C.3   139  VAL139      0.0252
     95  CG1       10.5440    2.9550   18.4860 C.3   139  VAL139      0.0019
     96  CG2       11.5250    5.1610   19.1380 C.3   139  VAL139      0.0019
     97  N         18.1640    4.8640   21.0920 N.3   194  LEU194     -0.1231
     98  CA        18.1240    4.2850   19.7440 C.3   194  LEU194      0.1693
     99  C         18.8380    2.9680   19.8250 C.2   194  LEU194      0.2593
    100  O         19.8560    2.8040   20.5280 O.2   194  LEU194     -0.2718
    101  CB        18.8680    5.1610   18.7030 C.3   194  LEU194      0.0284
    102  CG        18.4380    6.6070   18.7230 C.3   194  LEU194      0.0019
    103  CD1       19.3280    7.3900   17.7550 C.3   194  LEU194      0.0001
    104  CD2       17.0150    6.8290   18.3330 C.3   194  LEU194      0.0001
    105  N         18.3470    2.0010   19.0650 N.am  195  THR195     -0.1939
    106  CA        19.0430    0.7220   19.0130 C.3   195  THR195      0.2028
    107  C         20.0630    0.6310   17.8540 C.2   195  THR195      0.2643
    108  O         20.6250   -0.4760   17.6240 O.2   195  THR195     -0.2714
    109  CB        17.9990   -0.4210   18.8420 C.3   195  THR195      0.1808
    110  OG1       17.4800   -0.4230   17.5030 O.3   195  THR195     -0.2208
    111  CG2       16.9340   -0.3300   19.9510 C.3   195  THR195      0.0379
    112  N         20.2500    1.7030   17.0830 N.am  196  THR196     -0.1937
    113  CA        21.3660    1.7240   16.1190 C.3   196  THR196      0.2013
    114  C         22.1880    2.9570   16.4310 C.2   196  THR196      0.2484
    115  O         21.6480    3.9180   17.0330 O.2   196  THR196     -0.2729
    116  CB        20.9280    1.8740   14.6410 C.3   196  THR196      0.1807
    117  OG1       20.2800    3.1630   14.4340 O.3   196  THR196     -0.2208
    118  CG2       19.9630    0.7790   14.2040 C.3   196  THR196      0.0379
    119  N         23.4620    2.9430   15.9890 N.am  197  PRO197     -0.2715
    120  CA        24.1960    4.2400   15.9350 C.3   197  PRO197      0.1521
    121  C         23.2500    5.3400   15.4090 C.2   197  PRO197      0.2440
    122  O         22.5740    5.1430   14.3870 O.2   197  PRO197     -0.2731
    123  CB        25.3050    3.9210   14.9220 C.3   197  PRO197      0.0310
    124  CG        25.6200    2.4910   15.1710 C.3   197  PRO197      0.0237
    125  CD        24.2150    1.8520   15.2770 C.3   197  PRO197      0.0939
    126  N         23.2900    6.5670   16.0050 N.am  198  PRO198     -0.2727
    127  CA        24.2020    7.0390   17.0490 C.3   198  PRO198      0.1402
    128  C         23.8680    6.6490   18.4840 C.2   198  PRO198      0.2269
    129  O         24.5040    7.0790   19.4510 O.2   198  PRO198     -0.2865
    130  CB        24.2660    8.5570   16.7700 C.3   198  PRO198      0.0296
    131  CG        22.8430    8.8500   16.3740 C.3   198  PRO198      0.0237
    132  CD        22.4630    7.6590   15.4610 C.3   198  PRO198      0.0939
    133  N         21.7050    7.2660   20.6720 N.3   200  LEU200     -0.1245
    134  CA        21.3050    8.3860   21.5740 C.3   200  LEU200      0.1561
    135  C         20.3070    7.9830   22.6240 C.2   200  LEU200      0.2260
    136  O         19.3240    7.2480   22.3390 O.2   200  LEU200     -0.2867
    137  CB        20.7480    9.5240   20.6980 C.3   200  LEU200      0.0270
    138  CG        21.8110   10.1440   19.7680 C.3   200  LEU200      0.0019
    139  CD1       21.1940   11.1170   18.7850 C.3   200  LEU200      0.0001
    140  CD2       22.9940   10.7860   20.5680 C.3   200  LEU200      0.0001
    141  N         15.1090    8.0260   24.0600 N.3   203  VAL203     -0.1245
    142  CA        13.8340    7.3020   23.7380 C.3   203  VAL203      0.1561
    143  C         13.0540    6.8580   24.9710 C.2   203  VAL203      0.2260
    144  O         13.5890    6.2280   25.9180 O.2   203  VAL203     -0.2867
    145  CB        14.1550    6.0330   22.8660 C.3   203  VAL203      0.0252
    146  CG1       12.7840    5.3510   22.5970 C.3   203  VAL203      0.0019
    147  CG2       14.9390    6.3810   21.5650 C.3   203  VAL203      0.0019
    148  N         10.6260    4.0720   25.5510 N.3   205  TRP205     -0.1241
    149  CA        10.1940    2.8840   24.8050 C.3   205  TRP205      0.1605
    150  C          8.8410    2.4110   25.2960 C.2   205  TRP205      0.2264
    151  O          8.6340    2.3800   26.5070 O.2   205  TRP205     -0.2867
    152  CB        11.2180    1.7030   24.9860 C.3   205  TRP205      0.0550
    153  CG        12.3320    1.8330   24.0480 C.ar  205  TRP205      0.0003
    154  CD1       13.6260    2.3610   24.2400 C.ar  205  TRP205      0.0946
    155  CD2       12.2770    1.4410   22.6510 C.ar  205  TRP205      0.0152
    156  NE1       14.2920    2.3890   23.0610 N.ar  205  TRP205     -0.2442
    157  CE2       13.5750    1.7640   22.0840 C.ar  205  TRP205      0.0810
    158  CE3       11.2870    0.8000   21.8440 C.ar  205  TRP205      0.0012
    159  CZ2       13.8530    1.5730   20.7430 C.ar  205  TRP205      0.0191
    160  CZ3       11.5800    0.5600   20.5240 C.ar  205  TRP205      0.0001
    161  CH2       12.8650    0.8960   19.9760 C.ar  205  TRP205      0.0015
@<TRIPOS>BOND
     1     4     3    2
     2     1     2    1
     3     3     2    1
     4     2     5    1
     5     5     6    1
     6     6     8   am
     7     6     7    2
     8    13    10    1
     9    13    14    1
    10    22    19    1
    11    22    23    1
    12    19    18    1
    13    19    20    1
    14    10    11    1
    15    10     9    1
    16    17    15   am
    17    14    15    1
    18    15    16    2
    19    11    12    2
    20    20    21    2
    21    23    24   ar
    22    23    25   ar
    23    24    26   ar
    24    28    29    1
    25    30    29    1
    26    30    31    2
    27    25    27   ar
    28    29    32    1
    29    62    64   ar
    30    62    60   ar
    31    26    27   ar
    32    64    65   ar
    33    41    40    2
    34    59    60    1
    35    59    56    1
    36    32    33    1
    37    60    61   ar
    38    34    33   ar
    39    34    36   ar
    40    33    35   ar
    41   118   116    1
    42    65    63   ar
    43    36    37   ar
    44   122   121    2
    45   117   116    1
    46    35    37   ar
    47    61    63   ar
    48    55    56    1
    49   116   113    1
    50    38    39    1
    51    51    50    2
    52    54    52    1
    53    40    39    1
    54    56    57    1
    55   123   124    1
    56   123   120    1
    57    52    53    1
    58    52    49    1
    59    48    49    1
    60   124   125    1
    61    57    58    2
    62   125   119    1
    63   121   120    1
    64   121   126   am
    65    39    42    1
    66   132   126    1
    67   132   131    1
    68    42    43    1
    69    49    50    1
    70   120   119    1
    71   119   114   am
    72   126   127    1
    73   113   114    1
    74   113   112    1
    75   131   130    1
    76   114   115    2
    77    44    43   ar
    78    44    46   ar
    79    43    45   ar
    80   130   127    1
    81   127   128    1
    82   112   107   am
    83    72    70    1
    84    71    70    1
    85    46    47   ar
    86    45    47   ar
    87   110   109    1
    88   108   107    2
    89   103   102    1
    90    81    79   am
    91   107   106    1
    92    70    67    1
    93   104   102    1
    94    89    87    1
    95    88    87    1
    96   128   129    2
    97    95    94    1
    98   101   102    1
    99   101    98    1
   100   139   138    1
   101   109   106    1
   102   109   111    1
   103    79    78    1
   104    79    80    2
   105    66    67    1
   106   106   105    1
   107   105    99   am
   108    96    94    1
   109    78    77    1
   110    67    68    1
   111    87    86    1
   112    94    91    1
   113    98    99    1
   114    98    97    1
   115   138   140    1
   116   138   137    1
   117    99   100    2
   118    91    92    1
   119    91    90    1
   120   161   160   ar
   121   161   159   ar
   122    68    73   am
   123    68    69    2
   124    86    83    1
   125    73    74    1
   126    92    93    2
   127   160   158   ar
   128    77    74    1
   129   133   134    1
   130   137   134    1
   131   159   157   ar
   132    83    84    1
   133    83    82    1
   134    74    75    1
   135   147   145    1
   136   134   135    1
   137   158   155   ar
   138    84    85    2
   139   157   155   ar
   140   157   156   ar
   141   136   135    2
   142   146   145    1
   143   155   153   ar
   144    75    76    2
   145   145   142    1
   146   156   154   ar
   147   142   141    1
   148   142   143    1
   149   153   154   ar
   150   153   152    1
   151   149   152    1
   152   149   150    1
   153   149   148    1
   154   143   144    2
   155   150   151    2
