@<TRIPOS>MOLECULE
tmp/4lhkB00.pdb
 112 112 0 0 0
SMALL
GASTEIGER

@<TRIPOS>ATOM
      1  N         54.0170   71.9760   56.5600 N.3    65  TRP65      -0.1241
      2  CA        53.2200   70.7760   56.1450 C.3    65  TRP65       0.1605
      3  C         52.1970   70.2530   57.1370 C.2    65  TRP65       0.2264
      4  O         51.2310   69.5240   56.7920 O.2    65  TRP65      -0.2867
      5  CB        54.1340   69.6450   55.7430 C.3    65  TRP65       0.0550
      6  CG        54.6080   69.7300   54.3780 C.ar   65  TRP65       0.0003
      7  CD1       54.6780   70.8460   53.5700 C.ar   65  TRP65       0.0946
      8  CD2       55.1430   68.6600   53.6430 C.ar   65  TRP65       0.0152
      9  NE1       55.2640   70.5150   52.3630 N.ar   65  TRP65      -0.2442
     10  CE2       55.5320   69.1770   52.3720 C.ar   65  TRP65       0.0810
     11  CE3       55.3460   67.2830   53.9270 C.ar   65  TRP65       0.0012
     12  CZ2       56.0920   68.3860   51.3960 C.ar   65  TRP65       0.0191
     13  CZ3       55.8770   66.4890   52.9190 C.ar   65  TRP65       0.0001
     14  CH2       56.2660   67.0520   51.6850 C.ar   65  TRP65       0.0015
     15  N         47.6070   62.1560   45.5310 N.3   108  ASP108     -0.1225
     16  CA        47.9120   62.6090   46.8710 C.3   108  ASP108      0.1805
     17  C         46.8050   63.6490   47.1820 C.2   108  ASP108      0.2597
     18  O         46.8350   64.7700   46.6370 O.2   108  ASP108     -0.2718
     19  CB        49.3380   63.2010   46.8970 C.3   108  ASP108      0.1424
     20  CG        49.7270   63.7820   48.2680 C.2   108  ASP108      0.3668
     21  OD1       48.7930   63.9360   49.0470 O.co2 108  ASP108     -0.2456
     22  OD2       50.9330   64.0760   48.5580 O.co2 108  ASP108     -0.2456
     23  N         45.7970   63.2970   47.9910 N.am  109  ASP109     -0.1974
     24  CA        45.7130   62.0730   48.8430 C.3   109  ASP109      0.1709
     25  C         44.7560   61.0110   48.3210 C.2   109  ASP109      0.2293
     26  O         45.0480   59.8190   48.4260 O.2   109  ASP109     -0.2864
     27  CB        45.3220   62.4740   50.2880 C.3   109  ASP109      0.1436
     28  CG        46.4620   63.1260   51.0480 C.2   109  ASP109      0.3671
     29  OD1       47.3230   62.3690   51.5650 O.co2 109  ASP109     -0.2456
     30  OD2       46.4770   64.3900   51.1900 O.co2 109  ASP109     -0.2456
     31  N         46.2680   57.2350   48.3680 N.3   142  LYS142     -0.1231
     32  CA        47.6170   57.2880   48.8700 C.3   142  LYS142      0.1678
     33  C         47.5680   56.8090   50.3090 C.2   142  LYS142      0.2434
     34  O         46.8980   57.4370   51.1610 O.2   142  LYS142     -0.2733
     35  CB        48.1580   58.7250   48.7940 C.3   142  LYS142      0.0284
     36  CG        49.5670   58.9050   49.3720 C.3   142  LYS142      0.0035
     37  CD        50.1010   60.3640   49.3270 C.3   142  LYS142      0.0206
     38  CE        51.5850   60.4270   49.7150 C.3   142  LYS142      0.1093
     39  NZ        51.9130   59.8600   51.0460 N.3   142  LYS142     -0.1314
     40  N         48.2690   55.7100   50.6100 N.am  143  PRO143     -0.2718
     41  CA        48.2910   55.3250   52.0130 C.3   143  PRO143      0.1535
     42  C         48.8650   56.4240   52.9340 C.2   143  PRO143      0.2599
     43  O         49.8180   57.1080   52.5610 O.2   143  PRO143     -0.2715
     44  CB        49.1610   54.0740   52.0350 C.3   143  PRO143      0.0310
     45  CG        49.5760   53.7960   50.6830 C.3   143  PRO143      0.0237
     46  CD        49.2150   54.9390   49.8010 C.3   143  PRO143      0.0939
     47  N         48.2870   56.6150   54.1230 N.am  144  TRP144     -0.1960
     48  CA        48.8230   57.6440   55.0320 C.3   144  TRP144      0.1771
     49  C         50.3440   57.5090   55.3150 C.2   144  TRP144      0.2620
     50  O         50.8150   56.5200   55.8930 O.2   144  TRP144     -0.2715
     51  CB        48.0390   57.6710   56.3250 C.3   144  TRP144      0.0590
     52  CG        48.2070   58.9420   57.0370 C.ar  144  TRP144      0.0006
     53  CD1       48.9830   59.1680   58.1140 C.ar  144  TRP144      0.0946
     54  CD2       47.6110   60.1760   56.6850 C.ar  144  TRP144      0.0152
     55  NE1       48.8910   60.4900   58.4790 N.ar  144  TRP144     -0.2442
     56  CE2       48.0500   61.1330   57.6090 C.ar  144  TRP144      0.0810
     57  CE3       46.7020   60.5650   55.6930 C.ar  144  TRP144      0.0012
     58  CZ2       47.6560   62.4840   57.5390 C.ar  144  TRP144      0.0191
     59  CZ3       46.3250   61.8930   55.6300 C.ar  144  TRP144      0.0001
     60  CH2       46.7720   62.8260   56.5660 C.ar  144  TRP144      0.0015
     61  N         51.0990   58.4880   54.8290 N.am  145  GLY145     -0.1940
     62  CA        52.5500   58.6430   55.0380 C.3   145  GLY145      0.2014
     63  C         53.3990   57.6760   54.2240 C.2   145  GLY145      0.2639
     64  O         54.5560   57.4590   54.5630 O.2   145  GLY145     -0.2714
     65  N         52.8260   57.0610   53.1810 N.am  146  ALA146     -0.1963
     66  CA        53.5750   56.1530   52.3070 C.3   146  ALA146      0.1728
     67  C         53.3110   56.5250   50.8710 C.2   146  ALA146      0.2616
     68  O         52.3510   57.2680   50.5330 O.2   146  ALA146     -0.2715
     69  CB        53.1790   54.7020   52.5350 C.3   146  ALA146      0.0334
     70  N         54.1540   55.9680   50.0120 N.am  147  ALA147     -0.1963
     71  CA        54.0800   56.2500   48.5740 C.3   147  ALA147      0.1728
     72  C         52.7190   55.9050   47.9380 C.2   147  ALA147      0.2616
     73  O         52.1320   54.8750   48.2490 O.2   147  ALA147     -0.2715
     74  CB        55.1940   55.5120   47.8640 C.3   147  ALA147      0.0334
     75  N         52.2010   56.7740   47.0700 N.am  148  ALA148     -0.1977
     76  CA        50.9360   56.4610   46.3330 C.3   148  ALA148      0.1597
     77  C         51.1470   55.4430   45.2460 C.2   148  ALA148      0.2287
     78  O         52.2500   55.3480   44.7290 O.2   148  ALA148     -0.2864
     79  CB        50.3200   57.7070   45.6860 C.3   148  ALA148      0.0319
     80  N         46.4190   67.0350   53.7060 N.3   174  LYS174     -0.1231
     81  CA        47.5150   67.9310   54.2320 C.3   174  LYS174      0.1693
     82  C         48.5820   68.1070   53.1730 C.2   174  LYS174      0.2592
     83  O         48.7770   67.2310   52.2980 O.2   174  LYS174     -0.2718
     84  CB        48.1740   67.3680   55.5190 C.3   174  LYS174      0.0285
     85  CG        48.9740   66.1000   55.3210 C.3   174  LYS174      0.0035
     86  CD        49.6150   65.5270   56.6170 C.3   174  LYS174      0.0206
     87  CE        50.9690   66.1080   56.8850 C.3   174  LYS174      0.1093
     88  NZ        51.4230   65.9440   58.2940 N.3   174  LYS174     -0.1314
     89  N         49.2670   69.2230   53.2560 N.am  175  ALA175     -0.1966
     90  CA        50.5050   69.4530   52.5090 C.3   175  ALA175      0.1728
     91  C         50.2500   69.3790   50.9810 C.2   175  ALA175      0.2616
     92  O         49.3930   70.1230   50.4690 O.2   175  ALA175     -0.2715
     93  CB        51.6180   68.5080   52.9830 C.3   175  ALA175      0.0334
     94  N         51.0190   68.5460   50.2790 N.am  176  LEU176     -0.1977
     95  CA        51.0120   68.5860   48.8370 C.3   176  LEU176      0.1596
     96  C         49.7170   67.9830   48.2580 C.2   176  LEU176      0.2287
     97  O         49.1240   67.0560   48.8110 O.2   176  LEU176     -0.2864
     98  CB        52.1940   67.8110   48.2530 C.3   176  LEU176      0.0297
     99  CG        53.5800   68.1920   48.8070 C.3   176  LEU176      0.0022
    100  CD1       54.6230   67.3240   48.0830 C.3   176  LEU176      0.0001
    101  CD2       53.8120   69.7150   48.6400 C.3   176  LEU176      0.0001
    102  N         48.3490   66.3980   44.5060 N.3   178  ARG178     -0.1245
    103  CA        48.6890   65.8380   43.1880 C.3   178  ARG178      0.1563
    104  C         47.5280   64.9730   42.6250 C.2   178  ARG178      0.2260
    105  O         47.0660   63.9760   43.2440 O.2   178  ARG178     -0.2867
    106  CB        49.9340   64.9420   43.2220 C.3   178  ARG178      0.0307
    107  CG        51.2230   65.7090   43.5460 C.3   178  ARG178      0.0489
    108  CD        51.6490   66.6660   42.4030 C.3   178  ARG178      0.2205
    109  NE        52.9930   67.1230   42.6880 N.pl3 178  ARG178     -0.0865
    110  CZ        53.3270   68.0860   43.5540 C.cat 178  ARG178      0.5346
    111  NH1       52.4100   68.7110   44.2550 N.pl3 178  ARG178      0.1354
    112  NH2       54.6220   68.4020   43.7460 N.pl3 178  ARG178      0.1354
@<TRIPOS>BOND
     1   108   109    1
     2   108   107    1
     3   104   103    1
     4   104   105    2
     5   109   110    2
     6   103   106    1
     7   103   102    1
     8   106   107    1
     9   110   112    1
    10   110   111    1
    11    78    77    2
    12    77    76    1
    13    15    16    1
    14    79    76    1
    15    76    75    1
    16    18    17    2
    17    16    19    1
    18    16    17    1
    19    19    20    1
    20    75    72   am
    21    17    23   am
    22    74    71    1
    23    72    73    2
    24    72    71    1
    25    23    24    1
    26   100    99    1
    27    98    99    1
    28    98    95    1
    29    96    97    2
    30    96    95    1
    31    20    22   ar
    32    20    21   ar
    33    25    26    2
    34    25    24    1
    35    31    32    1
    36    71    70    1
    37   101    99    1
    38    35    32    1
    39    35    36    1
    40    95    94    1
    41    24    27    1
    42    32    33    1
    43    37    36    1
    44    37    38    1
    45    38    39    1
    46    46    40    1
    47    46    45    1
    48    70    67   am
    49    94    91   am
    50    27    28    1
    51    33    40   am
    52    33    34    2
    53    92    91    2
    54    68    67    2
    55    40    41    1
    56    45    44    1
    57    67    66    1
    58    91    90    1
    59    28    30   ar
    60    28    29   ar
    61    12    14   ar
    62    12    10   ar
    63    14    13   ar
    64    41    44    1
    65    41    42    1
    66    83    82    2
    67    66    69    1
    68    66    65    1
    69     9    10   ar
    70     9     7   ar
    71    10     8   ar
    72    90    93    1
    73    90    89    1
    74    43    42    2
    75    13    11   ar
    76    42    47   am
    77    82    89   am
    78    82    81    1
    79    65    63   am
    80     7     6   ar
    81     8    11   ar
    82     8     6   ar
    83    80    81    1
    84    47    48    1
    85    63    64    2
    86    63    62    1
    87    81    84    1
    88     6     5    1
    89    61    62    1
    90    61    49   am
    91    48    49    1
    92    48    51    1
    93    49    50    2
    94    85    84    1
    95    85    86    1
    96    59    57   ar
    97    59    60   ar
    98    57    54   ar
    99     5     2    1
   100     2     1    1
   101     2     3    1
   102    51    52    1
   103    60    58   ar
   104    86    87    1
   105    54    52   ar
   106    54    56   ar
   107     4     3    2
   108    87    88    1
   109    52    53   ar
   110    58    56   ar
   111    56    55   ar
   112    53    55   ar
