@<TRIPOS>MOLECULE
tmp/4lhrA00.pdb
 86 80 0 0 0
SMALL
GASTEIGER

@<TRIPOS>ATOM
      1  N         26.2500  -23.8680    2.6690 N.3    48  LEU48      -0.1245
      2  CA        25.9700  -23.6390    4.0800 C.3    48  LEU48       0.1561
      3  C         24.9930  -24.7160    4.5300 C.2    48  LEU48       0.2260
      4  O         23.8590  -24.7690    4.0730 O.2    48  LEU48      -0.2867
      5  CB        25.4010  -22.2360    4.3100 C.3    48  LEU48       0.0270
      6  CG        25.3470  -21.8060    5.7810 C.3    48  LEU48       0.0019
      7  CD1       26.7360  -21.6810    6.3810 C.3    48  LEU48       0.0001
      8  CD2       24.5970  -20.4900    5.9380 C.3    48  LEU48       0.0001
      9  N         34.9480  -25.4140   15.7760 N.3    66  ILE66      -0.1245
     10  CA        34.4000  -26.3650   14.8190 C.3    66  ILE66       0.1561
     11  C         35.4630  -26.6270   13.7680 C.2    66  ILE66       0.2260
     12  O         35.9750  -25.7050   13.1360 O.2    66  ILE66      -0.2867
     13  CB        33.0640  -25.9000   14.2240 C.3    66  ILE66       0.0252
     14  CG1       31.9960  -25.8860   15.3190 C.3    66  ILE66       0.0019
     15  CG2       32.6290  -26.8250   13.1000 C.3    66  ILE66       0.0019
     16  CD1       30.6670  -25.3290   14.8820 C.3    66  ILE66       0.0001
     17  N         35.9480  -26.9950    5.8260 N.3    80  LEU80      -0.1245
     18  CA        35.1440  -25.8390    6.1880 C.3    80  LEU80       0.1561
     19  C         35.5810  -24.6250    5.3770 C.2    80  LEU80       0.2260
     20  O         36.7740  -24.3660    5.2510 O.2    80  LEU80      -0.2867
     21  CB        35.2850  -25.5500    7.6720 C.3    80  LEU80       0.0270
     22  CG        34.8860  -26.6920    8.6220 C.3    80  LEU80       0.0019
     23  CD1       35.1710  -26.3010   10.0660 C.3    80  LEU80       0.0001
     24  CD2       33.4640  -27.1480    8.4270 C.3    80  LEU80       0.0001
     25  N         35.2540  -21.4990    6.1540 N.3    82  ASN82      -0.1240
     26  CA        35.9140  -20.5860    7.0770 C.3    82  ASN82       0.1653
     27  C         37.0780  -21.2380    7.8420 C.2    82  ASN82       0.2266
     28  O         37.6490  -20.6240    8.7440 O.2    82  ASN82      -0.2867
     29  CB        34.9110  -19.9180    8.0360 C.3    82  ASN82       0.1155
     30  CG        34.0730  -20.9010    8.8360 C.2    82  ASN82       0.2627
     31  OD1       33.8640  -22.0410    8.4440 O.2    82  ASN82      -0.2716
     32  ND2       33.5950  -20.4540    9.9810 N.am   82  ASN82      -0.0877
     33  N         35.6330  -22.8270   12.6980 N.3    85  GLY85      -0.1210
     34  CA        34.5830  -22.0000   13.2510 C.3    85  GLY85       0.1956
     35  C         34.8010  -21.7760   14.7300 C.2    85  GLY85       0.2612
     36  O         35.3230  -22.6450   15.4270 O.2    85  GLY85      -0.2717
     37  N         34.4320  -20.5920   15.1860 N.am   86  LEU86      -0.1965
     38  CA        34.4890  -20.2270   16.5940 C.3    86  LEU86       0.1728
     39  C         33.0830  -19.8950   17.0690 C.2    86  LEU86       0.2616
     40  O         32.4410  -18.9800   16.5390 O.2    86  LEU86      -0.2715
     41  CB        35.3960  -19.0070   16.7860 C.3    86  LEU86       0.0311
     42  CG        35.5150  -18.4870   18.2190 C.3    86  LEU86       0.0022
     43  CD1       36.2100  -19.4980   19.0920 C.3    86  LEU86       0.0001
     44  CD2       36.2760  -17.1650   18.1910 C.3    86  LEU86       0.0001
     45  N         32.6000  -20.6620   18.0390 N.am   87  ILE87      -0.1977
     46  CA        31.2910  -20.4370   18.6280 C.3    87  ILE87       0.1596
     47  C         31.4640  -19.7750   19.9870 C.2    87  ILE87       0.2287
     48  O         32.0650  -20.3470   20.8940 O.2    87  ILE87      -0.2864
     49  CB        30.5180  -21.7530   18.8200 C.3    87  ILE87       0.0276
     50  CG1       30.4820  -22.5810   17.5390 C.3    87  ILE87       0.0022
     51  CG2       29.1170  -21.4640   19.3320 C.3    87  ILE87       0.0022
     52  CD1       29.9010  -21.8630   16.3500 C.3    87  ILE87       0.0001
     53  N         26.4800  -17.2630   21.6920 N.3    91  TYR91      -0.1241
     54  CA        25.8510  -17.5580   20.4140 C.3    91  TYR91       0.1605
     55  C         24.8040  -18.6400   20.6170 C.2    91  TYR91       0.2264
     56  O         25.1290  -19.7330   21.0630 O.2    91  TYR91      -0.2867
     57  CB        26.8550  -18.0340   19.3670 C.3    91  TYR91       0.0534
     58  CG        26.1500  -18.3320   18.0690 C.ar   91  TYR91      -0.0201
     59  CD1       25.6190  -17.3080   17.2990 C.ar   91  TYR91      -0.0009
     60  CD2       25.9520  -19.6460   17.6410 C.ar   91  TYR91      -0.0009
     61  CE1       24.9280  -17.5810   16.1290 C.ar   91  TYR91       0.0417
     62  CE2       25.2700  -19.9220   16.4710 C.ar   91  TYR91       0.0417
     63  CZ        24.7520  -18.8920   15.7240 C.ar   91  TYR91       0.1957
     64  OH        24.0700  -19.1610   14.5570 O.3    91  TYR91      -0.2866
     65  N         25.5720  -23.7620   11.9060 N.3    96  MET96      -0.1230
     66  CA        25.6250  -23.9320   10.4570 C.3    96  MET96       0.1702
     67  C         27.0590  -24.2220   10.0800 C.2    96  MET96       0.2592
     68  O         27.9770  -23.6490   10.6580 O.2    96  MET96      -0.2718
     69  CB        25.1760  -22.6490    9.7480 C.3    96  MET96       0.0401
     70  CG        23.8590  -22.0860   10.2470 C.3    96  MET96       0.0596
     71  SD        22.4850  -23.1380    9.8070 S.3    96  MET96      -0.1393
     72  CE        22.4360  -22.9250    8.0460 C.3    96  MET96       0.0692
     73  N         27.2400  -25.1260    9.1210 N.am   97  ILE97      -0.1966
     74  CA        28.5610  -25.5430    8.6910 C.3    97  ILE97       0.1727
     75  C         28.8420  -25.0140    7.2800 C.2    97  ILE97       0.2616
     76  O         28.1520  -25.3570    6.3200 O.2    97  ILE97      -0.2715
     77  CB        28.7070  -27.0800    8.7280 C.3    97  ILE97       0.0290
     78  CG1       28.3580  -27.6120   10.1270 C.3    97  ILE97       0.0022
     79  CG2       30.1260  -27.4700    8.3180 C.3    97  ILE97       0.0023
     80  CD1       28.2030  -29.1150   10.2210 C.3    97  ILE97       0.0001
     81  N         29.8620  -24.1710    7.1670 N.am   98  SER98      -0.1950
     82  CA        30.3310  -23.7280    5.8770 C.3    98  SER98       0.1924
     83  C         31.1430  -24.8710    5.3000 C.2    98  SER98       0.2314
     84  O         32.2440  -25.1360    5.7450 O.2    98  SER98      -0.2863
     85  CB        31.2090  -22.4950    6.0130 C.3    98  SER98       0.2116
     86  OG        31.8270  -22.1740    4.7860 O.3    98  SER98      -0.2180
@<TRIPOS>BOND
     1     1     2    1
     2     4     3    2
     3     2     5    1
     4     2     3    1
     5     5     6    1
     6    86    85    1
     7    20    19    2
     8    83    84    2
     9    83    82    1
    10    19    18    1
    11     6     8    1
    12     6     7    1
    13    17    18    1
    14    82    85    1
    15    82    81    1
    16    25    26    1
    17    18    21    1
    18    76    75    2
    19    26    27    1
    20    26    29    1
    21    81    75   am
    22    75    74    1
    23    21    22    1
    24    27    28    2
    25    29    30    1
    26    72    71    1
    27    79    77    1
    28    24    22    1
    29    31    30    2
    30    22    23    1
    31    74    77    1
    32    74    73    1
    33    77    78    1
    34    30    32   am
    35    73    67   am
    36    69    70    1
    37    69    66    1
    38    71    70    1
    39    67    66    1
    40    67    68    2
    41    78    80    1
    42    66    65    1
    43    33    34    1
    44    15    13    1
    45    12    11    2
    46    34    35    1
    47    11    10    1
    48    13    10    1
    49    13    14    1
    50    64    63    1
    51    35    37   am
    52    35    36    2
    53    10     9    1
    54    16    14    1
    55    37    38    1
    56    63    61   ar
    57    63    62   ar
    58    61    59   ar
    59    52    50    1
    60    62    60   ar
    61    40    39    2
    62    38    41    1
    63    38    39    1
    64    41    42    1
    65    39    45   am
    66    59    58   ar
    67    50    49    1
    68    60    58   ar
    69    45    46    1
    70    58    57    1
    71    44    42    1
    72    42    43    1
    73    46    49    1
    74    46    47    1
    75    49    51    1
    76    57    54    1
    77    47    48    2
    78    54    55    1
    79    54    53    1
    80    55    56    2
