@<TRIPOS>MOLECULE
tmp/4lhsA00.pdb
 74 70 0 0 0
SMALL
GASTEIGER

@<TRIPOS>ATOM
      1  N          7.1450   44.9660   22.6850 N.3   156  SER156     -0.1202
      2  CA         7.6820   45.9740   23.5790 C.3   156  SER156      0.2020
      3  C          9.0720   46.4930   23.1740 C.2   156  SER156      0.2619
      4  O          9.5780   46.2180   22.0710 O.2   156  SER156     -0.2717
      5  CB         7.7640   45.3780   24.9950 C.3   156  SER156      0.2103
      6  OG         8.8710   44.5210   25.1090 O.3   156  SER156     -0.2182
      7  N          9.6690   47.2260   24.0990 N.am  157  SER157     -0.1951
      8  CA        11.0590   47.6650   23.9740 C.3   157  SER157      0.1924
      9  C         12.0230   46.5240   23.7420 C.2   157  SER157      0.2314
     10  O         13.0620   46.6850   23.1190 O.2   157  SER157     -0.2863
     11  CB        11.5260   48.3890   25.2280 C.3   157  SER157      0.2116
     12  OG        11.2110   47.6120   26.3560 O.3   157  SER157     -0.2180
     13  N          8.8670   50.6160   22.1760 N.3   188  SER188     -0.1202
     14  CA         9.3330   50.8710   23.5380 C.3   188  SER188      0.2020
     15  C          8.2930   51.5470   24.4150 C.2   188  SER188      0.2619
     16  O          7.7850   52.6120   24.0570 O.2   188  SER188     -0.2717
     17  CB        10.5540   51.7570   23.4790 C.3   188  SER188      0.2103
     18  OG        11.1080   51.9590   24.7600 O.3   188  SER188     -0.2182
     19  N          7.9530   50.8990   25.5200 N.am  189  GLY189     -0.1956
     20  CA         6.9860   51.4010   26.4610 C.3   189  GLY189      0.1869
     21  C          5.5510   51.3800   26.0120 C.2   189  GLY189      0.2309
     22  O          4.6900   51.8140   26.7540 O.2   189  GLY189     -0.2863
     23  N          0.8620   48.1520   23.8680 N.3   192  LYS192     -0.1245
     24  CA        -0.2190   47.9320   24.8400 C.3   192  LYS192      0.1561
     25  C         -1.5420   47.4860   24.2050 C.2   192  LYS192      0.2260
     26  O         -2.6070   47.6190   24.8360 O.2   192  LYS192     -0.2867
     27  CB        -0.3960   49.1590   25.7320 C.3   192  LYS192      0.0271
     28  CG         0.8170   49.4880   26.5670 C.3   192  LYS192      0.0035
     29  CD         0.5140   50.6110   27.5460 C.3   192  LYS192      0.0206
     30  CE         1.7290   51.0210   28.3090 C.3   192  LYS192      0.1093
     31  NZ         1.4770   52.1070   29.3280 N.3   192  LYS192     -0.1314
     32  N          4.8370   42.5060   27.9040 N.3   213  PRO213     -0.2102
     33  CA         5.5660   43.2650   28.9480 C.3   213  PRO213      0.1504
     34  C          5.0210   44.6300   29.3310 C.2   213  PRO213      0.2575
     35  O          5.0850   45.0250   30.5040 O.2   213  PRO213     -0.2718
     36  CB         6.9640   43.4030   28.3540 C.3   213  PRO213      0.0282
     37  CG         7.1160   42.1690   27.5130 C.3   213  PRO213      0.0208
     38  CD         5.7710   41.8930   26.9490 C.3   213  PRO213      0.0893
     39  N          4.4720   45.3600   28.3620 N.am  214  ASN214     -0.1975
     40  CA         4.0140   46.7460   28.6190 C.3   214  ASN214      0.1688
     41  C          2.6330   46.9220   29.2770 C.2   214  ASN214      0.2292
     42  O          2.4970   47.7410   30.1830 O.2   214  ASN214     -0.2864
     43  CB         4.0310   47.5950   27.3370 C.3   214  ASN214      0.1181
     44  CG         5.4090   47.7640   26.7470 C.2   214  ASN214      0.2629
     45  OD1        5.5770   47.6550   25.5380 O.2   214  ASN214     -0.2716
     46  ND2        6.4050   48.0270   27.5890 N.am  214  ASN214     -0.0877
     47  N         10.8790   39.1260   34.3780 N.3   247  ARG247     -0.1245
     48  CA        11.8460   40.1990   34.5510 C.3   247  ARG247      0.1563
     49  C         12.7390   39.8870   35.7570 C.2   247  ARG247      0.2260
     50  O         12.2540   39.4400   36.8340 O.2   247  ARG247     -0.2867
     51  CB        11.1360   41.5300   34.7650 C.3   247  ARG247      0.0307
     52  CG        10.2760   42.0450   33.6340 C.3   247  ARG247      0.0489
     53  CD         9.6700   43.3570   34.0180 C.3   247  ARG247      0.2205
     54  NE         8.7330   43.8420   33.0120 N.pl3 247  ARG247     -0.0865
     55  CZ         8.5860   45.0980   32.6130 C.cat 247  ARG247      0.5346
     56  NH1        9.3730   46.0560   33.0870 N.pl3 247  ARG247      0.1354
     57  NH2        7.6490   45.4020   31.7180 N.pl3 247  ARG247      0.1354
     58  N         15.1520   44.2780   33.1330 N.3   302  THR302     -0.1203
     59  CA        14.0540   44.0830   32.1760 C.3   302  THR302      0.1994
     60  C         14.5420   43.7620   30.7920 C.2   302  THR302      0.2617
     61  O         14.0710   42.8080   30.1770 O.2   302  THR302     -0.2717
     62  CB        13.1650   45.3130   32.1020 C.3   302  THR302      0.1784
     63  OG1       12.5400   45.4600   33.3630 O.3   302  THR302     -0.2211
     64  CG2       12.0740   45.1710   31.0340 C.3   302  THR302      0.0376
     65  N         15.4670   44.5610   30.2870 N.am  303  HIS303     -0.1975
     66  CA        15.8960   44.5170   28.8860 C.3   303  HIS303      0.1656
     67  C         17.0620   43.5560   28.7480 C.2   303  HIS303      0.2291
     68  O         18.1020   43.7630   29.3670 O.2   303  HIS303     -0.2864
     69  CB        16.2630   45.9200   28.4390 C.3   303  HIS303      0.0771
     70  CG        15.1000   46.8400   28.5210 C.ar  303  HIS303      0.0820
     71  ND1       14.9430   47.7500   29.5420 N.ar  303  HIS303     -0.2267
     72  CD2       13.9390   46.8490   27.8220 C.ar  303  HIS303      0.1154
     73  CE1       13.7780   48.3610   29.3950 C.ar  303  HIS303      0.1986
     74  NE2       13.1500   47.8260   28.3640 N.ar  303  HIS303     -0.2212
@<TRIPOS>BOND
     1     4     3    2
     2    13    14    1
     3     1     2    1
     4    10     9    2
     5     3     2    1
     6     3     7   am
     7    17    14    1
     8    17    18    1
     9    14    15    1
    10     2     5    1
    11     9     8    1
    12    23    24    1
    13     8     7    1
    14     8    11    1
    15    16    15    2
    16    25    26    2
    17    25    24    1
    18    15    19   am
    19    24    27    1
    20     5     6    1
    21    11    12    1
    22    19    20    1
    23    45    44    2
    24    27    28    1
    25    21    20    1
    26    21    22    2
    27    28    29    1
    28    44    43    1
    29    44    46   am
    30    38    37    1
    31    38    32    1
    32    43    40    1
    33    37    36    1
    34    29    30    1
    35    72    74   ar
    36    72    70   ar
    37    32    33    1
    38    30    31    1
    39    36    33    1
    40    39    40    1
    41    39    34   am
    42    74    73   ar
    43    69    70    1
    44    69    66    1
    45    70    71   ar
    46    40    41    1
    47    67    66    1
    48    67    68    2
    49    66    65    1
    50    33    34    1
    51    41    42    2
    52    34    35    2
    53    73    71   ar
    54    61    60    2
    55    65    60   am
    56    60    59    1
    57    64    62    1
    58    57    55    1
    59    62    59    1
    60    62    63    1
    61    59    58    1
    62    55    54    2
    63    55    56    1
    64    54    53    1
    65    52    53    1
    66    52    51    1
    67    47    48    1
    68    48    51    1
    69    48    49    1
    70    49    50    2
