@<TRIPOS>MOLECULE
tmp/4lhsA01.pdb
 81 76 0 0 0
SMALL
GASTEIGER

@<TRIPOS>ATOM
      1  N         10.2360   36.6600   32.4150 N.3   246  ILE246     -0.1231
      2  CA        10.1950   36.9020   33.8520 C.3   246  ILE246      0.1692
      3  C         11.2950   37.8920   34.1480 C.2   246  ILE246      0.2592
      4  O         12.4910   37.5770   34.1070 O.2   246  ILE246     -0.2718
      5  CB        10.3460   35.6330   34.6830 C.3   246  ILE246      0.0266
      6  CG1        9.3340   34.5690   34.2280 C.3   246  ILE246      0.0019
      7  CG2       10.2130   35.9780   36.1570 C.3   246  ILE246      0.0020
      8  CD1        7.9140   35.0330   34.1770 C.3   246  ILE246      0.0001
      9  N         10.8790   39.1260   34.3780 N.am  247  ARG247     -0.1966
     10  CA        11.8460   40.1990   34.5510 C.3   247  ARG247      0.1729
     11  C         12.7390   39.8870   35.7570 C.2   247  ARG247      0.2616
     12  O         12.2540   39.4400   36.8340 O.2   247  ARG247     -0.2715
     13  CB        11.1360   41.5300   34.7650 C.3   247  ARG247      0.0348
     14  CG        10.2760   42.0450   33.6340 C.3   247  ARG247      0.0492
     15  CD         9.6700   43.3570   34.0180 C.3   247  ARG247      0.2205
     16  NE         8.7330   43.8420   33.0120 N.pl3 247  ARG247     -0.0865
     17  CZ         8.5860   45.0980   32.6130 C.cat 247  ARG247      0.5346
     18  NH1        9.3730   46.0560   33.0870 N.pl3 247  ARG247      0.1354
     19  NH2        7.6490   45.4020   31.7180 N.pl3 247  ARG247      0.1354
     20  N         14.0350   40.1410   35.5850 N.am  248  GLU248     -0.1977
     21  CA        14.9800   40.0070   36.6710 C.3   248  GLU248      0.1602
     22  C         14.7970   41.0310   37.7750 C.2   248  GLU248      0.2287
     23  O         15.2810   40.8140   38.8970 O.2   248  GLU248     -0.2864
     24  CB        16.4250   39.9650   36.1760 C.3   248  GLU248      0.0415
     25  CG        16.6970   38.8000   35.2090 C.3   248  GLU248      0.1163
     26  CD        16.5350   37.3990   35.7910 C.2   248  GLU248      0.3649
     27  OE1       16.4080   37.2340   37.0180 O.co2 248  GLU248     -0.2457
     28  OE2       16.5920   36.4490   34.9680 O.co2 248  GLU248     -0.2457
     29  N         12.2200   41.2120   39.3470 N.3   250  GLY250     -0.1210
     30  CA        11.4820   40.4090   40.3410 C.3   250  GLY250      0.1956
     31  C         12.3280   39.4780   41.1530 C.2   250  GLY250      0.2611
     32  O         11.8210   38.8300   42.0780 O.2   250  GLY250     -0.2717
     33  N         13.6310   39.4280   40.8780 N.am  251  ASN251     -0.1974
     34  CA        14.4800   38.5380   41.6560 C.3   251  ASN251      0.1688
     35  C         14.4200   38.9130   43.1430 C.2   251  ASN251      0.2292
     36  O         14.3200   38.0130   44.0030 O.2   251  ASN251     -0.2864
     37  CB        15.9300   38.5040   41.1440 C.3   251  ASN251      0.1181
     38  CG        16.6450   37.2270   41.5070 C.2   251  ASN251      0.2629
     39  OD1       16.0150   36.1860   41.6890 O.2   251  ASN251     -0.2716
     40  ND2       17.9790   37.2810   41.5650 N.am  251  ASN251     -0.0877
     41  N          7.8530   41.3460   40.8910 N.3   257  ARG257     -0.1245
     42  CA         7.6200   39.9310   40.7170 C.3   257  ARG257      0.1563
     43  C          6.1290   39.6090   40.5720 C.2   257  ARG257      0.2260
     44  O          5.7080   38.8570   39.6600 O.2   257  ARG257     -0.2867
     45  CB         8.2130   39.1340   41.8740 C.3   257  ARG257      0.0307
     46  CG         8.1940   37.6080   41.6910 C.3   257  ARG257      0.0489
     47  CD         8.5750   36.8410   42.9660 C.3   257  ARG257      0.2205
     48  NE         9.8820   37.2780   43.4490 N.pl3 257  ARG257     -0.0865
     49  CZ        10.2880   37.2430   44.7240 C.cat 257  ARG257      0.5346
     50  NH1        9.5080   36.7750   45.7200 N.pl3 257  ARG257      0.1354
     51  NH2       11.5040   37.7020   45.0120 N.pl3 257  ARG257      0.1354
     52  N         11.7810   29.7680   31.0830 N.3   289  GLN289     -0.1245
     53  CA        13.1680   30.1640   31.3770 C.3   289  GLN289      0.1566
     54  C         13.8150   30.8910   30.1950 C.2   289  GLN289      0.2260
     55  O         14.9420   30.6010   29.7990 O.2   289  GLN289     -0.2867
     56  CB        14.0140   28.9530   31.7980 C.3   289  GLN289      0.0367
     57  CG        13.5520   28.3070   33.0670 C.3   289  GLN289      0.0905
     58  CD        14.4540   27.1560   33.4930 C.2   289  GLN289      0.2608
     59  OE1       15.2480   26.6170   32.7030 O.2   289  GLN289     -0.2717
     60  NE2       14.3450   26.7860   34.7570 N.am  289  GLN289     -0.0878
     61  N         17.2990   32.1600   30.9280 N.3   292  GLY292     -0.1210
     62  CA        18.1040   31.2590   31.7180 C.3   292  GLY292      0.1956
     63  C         17.7910   31.3290   33.1910 C.2   292  GLY292      0.2612
     64  O         16.7710   31.8740   33.6000 O.2   292  GLY292     -0.2717
     65  N         18.7100   30.7850   33.9830 N.am  293  THR293     -0.1952
     66  CA        18.4770   30.5620   35.4000 C.3   293  THR293      0.1897
     67  C         19.4240   31.3010   36.3300 C.2   293  THR293      0.2313
     68  O         19.2290   31.2430   37.5660 O.2   293  THR293     -0.2863
     69  CB        18.5630   29.0550   35.7110 C.3   293  THR293      0.1794
     70  OG1       19.8390   28.5430   35.3060 O.3   293  THR293     -0.2208
     71  CG2       17.4700   28.2960   34.9740 C.3   293  THR293      0.0378
     72  N         20.1480   34.6970   36.3560 N.3   295  HIS295     -0.1241
     73  CA        19.7400   36.0930   36.5510 C.3   295  HIS295      0.1621
     74  C         20.6500   37.1330   35.8930 C.2   295  HIS295      0.2264
     75  O         20.5020   38.3060   36.1840 O.2   295  HIS295     -0.2867
     76  CB        19.5310   36.4100   38.0470 C.3   295  HIS295      0.0745
     77  CG        18.7300   35.3670   38.7410 C.ar  295  HIS295      0.0817
     78  ND1       17.3860   35.2210   38.5210 N.ar  295  HIS295     -0.2268
     79  CD2       19.0910   34.3980   39.6160 C.ar  295  HIS295      0.1154
     80  CE1       16.9400   34.2090   39.2520 C.ar  295  HIS295      0.1986
     81  NE2       17.9590   33.6820   39.9120 N.ar  295  HIS295     -0.2212
@<TRIPOS>BOND
     1    55    54    2
     2    54    53    1
     3    61    62    1
     4    52    53    1
     5    53    56    1
     6    19    17    1
     7    62    63    1
     8    56    57    1
     9     1     2    1
    10    17    16    2
    11    17    18    1
    12    59    58    2
    13    16    15    1
    14    57    58    1
    15    63    64    2
    16    63    65   am
    17    58    60   am
    18    14    15    1
    19    14    13    1
    20     2     3    1
    21     2     5    1
    22    65    66    1
    23     4     3    2
    24     3     9   am
    25     8     6    1
    26     6     5    1
    27     9    10    1
    28    10    13    1
    29    10    11    1
    30     5     7    1
    31    28    26   ar
    32    71    69    1
    33    25    26    1
    34    25    24    1
    35    70    69    1
    36    66    69    1
    37    66    67    1
    38    20    11   am
    39    20    21    1
    40    11    12    2
    41    26    27   ar
    42    74    75    2
    43    74    73    1
    44    24    21    1
    45    67    68    2
    46    72    73    1
    47    73    76    1
    48    21    22    1
    49    22    23    2
    50    76    77    1
    51    78    77   ar
    52    78    80   ar
    53    77    79   ar
    54    80    81   ar
    55    29    30    1
    56    79    81   ar
    57    44    43    2
    58    30    31    1
    59    43    42    1
    60    42    41    1
    61    42    45    1
    62    33    31   am
    63    33    34    1
    64    37    38    1
    65    37    34    1
    66    31    32    2
    67    38    40   am
    68    38    39    2
    69    34    35    1
    70    46    45    1
    71    46    47    1
    72    47    48    1
    73    35    36    2
    74    48    49    2
    75    49    51    1
    76    49    50    1
