@<TRIPOS>MOLECULE
tmp/4lhwA01.pdb
 82 79 0 0 0
SMALL
GASTEIGER

@<TRIPOS>ATOM
      1  N         37.5790  -11.8500    4.9880 N.3     5  LYS5       -0.1231
      2  CA        36.5870  -10.9280    4.4550 C.3     5  LYS5        0.1693
      3  C         36.3460  -11.2500    2.9940 C.2     5  LYS5        0.2592
      4  O         37.2480  -11.1500    2.1780 O.2     5  LYS5       -0.2718
      5  CB        37.0490   -9.4780    4.6310 C.3     5  LYS5        0.0285
      6  CG        37.2270   -9.0970    6.0990 C.3     5  LYS5        0.0035
      7  CD        37.5720   -7.6370    6.2620 C.3     5  LYS5        0.0206
      8  CE        38.1130   -7.3640    7.6570 C.3     5  LYS5        0.1093
      9  NZ        38.1290   -5.9050    7.9880 N.3     5  LYS5       -0.1314
     10  N         35.1200  -11.6540    2.6900 N.am    6  LEU6       -0.1966
     11  CA        34.7400  -12.0620    1.3490 C.3     6  LEU6        0.1728
     12  C         33.7630  -11.0540    0.7660 C.2     6  LEU6        0.2616
     13  O         33.0570  -10.3480    1.4960 O.2     6  LEU6       -0.2715
     14  CB        34.0790  -13.4360    1.3450 C.3     6  LEU6        0.0311
     15  CG        34.8240  -14.5900    2.0090 C.3     6  LEU6        0.0022
     16  CD1       34.0990  -15.9300    1.8180 C.3     6  LEU6        0.0001
     17  CD2       36.2660  -14.6640    1.5140 C.3     6  LEU6        0.0001
     18  N         33.7420  -10.9740   -0.5660 N.am    7  LEU7       -0.1977
     19  CA        32.8390  -10.0440   -1.2670 C.3     7  LEU7        0.1596
     20  C         32.2080  -10.7560   -2.4390 C.2     7  LEU7        0.2287
     21  O         32.8950  -11.4500   -3.1740 O.2     7  LEU7       -0.2864
     22  CB        33.6070   -8.7960   -1.7440 C.3     7  LEU7        0.0297
     23  CG        32.8540   -7.6760   -2.4690 C.3     7  LEU7        0.0022
     24  CD1       31.7990   -6.9880   -1.5500 C.3     7  LEU7        0.0001
     25  CD2       33.8670   -6.6660   -3.0630 C.3     7  LEU7        0.0001
     26  N         25.3310   -1.8050    1.6210 N.3    38  ILE38      -0.1245
     27  CA        26.3340   -2.8250    1.7580 C.3    38  ILE38       0.1561
     28  C         26.3140   -3.3450    3.1910 C.2    38  ILE38       0.2260
     29  O         26.3080   -2.5680    4.1270 O.2    38  ILE38      -0.2867
     30  CB        27.7340   -2.2960    1.3450 C.3    38  ILE38       0.0252
     31  CG1       28.7630   -3.4080    1.5230 C.3    38  ILE38       0.0019
     32  CG2       28.1430   -1.0040    2.0750 C.3    38  ILE38       0.0019
     33  CD1       29.8550   -3.3740    0.6090 C.3    38  ILE38       0.0001
     34  N         33.4440  -13.3360    7.0420 N.3    55  GLN55      -0.1245
     35  CA        32.6000  -12.1550    7.0400 C.3    55  GLN55       0.1566
     36  C         32.3360  -11.8750    5.5810 C.2    55  GLN55       0.2260
     37  O         33.2460  -11.4310    4.8830 O.2    55  GLN55      -0.2867
     38  CB        33.2870  -10.9520    7.6860 C.3    55  GLN55       0.0367
     39  CG        32.3760   -9.7220    7.7430 C.3    55  GLN55       0.0905
     40  CD        33.0410   -8.4710    8.2290 C.2    55  GLN55       0.2608
     41  OE1       34.1700   -8.1430    7.8210 O.2    55  GLN55      -0.2717
     42  NE2       32.3250   -7.7260    9.1110 N.am   55  GLN55      -0.0878
     43  N         30.4500  -10.0580    2.5700 N.3    57  TRP57      -0.1241
     44  CA        29.8410   -8.7820    2.2220 C.3    57  TRP57       0.1605
     45  C         29.0640   -8.9180    0.9230 C.2    57  TRP57       0.2264
     46  O         29.5550   -9.5130   -0.0360 O.2    57  TRP57      -0.2867
     47  CB        30.9100   -7.6990    2.0750 C.3    57  TRP57       0.0550
     48  CG        31.5540   -7.3320    3.3740 C.ar   57  TRP57       0.0003
     49  CD1       32.6270   -7.9460    3.9730 C.ar   57  TRP57       0.0946
     50  CD2       31.1420   -6.2930    4.2550 C.ar   57  TRP57       0.0152
     51  NE1       32.8960   -7.3360    5.1660 N.ar   57  TRP57      -0.2442
     52  CE2       32.0160   -6.3060    5.3560 C.ar   57  TRP57       0.0810
     53  CE3       30.1270   -5.3340    4.2120 C.ar   57  TRP57       0.0012
     54  CZ2       31.8970   -5.4060    6.4130 C.ar   57  TRP57       0.0191
     55  CZ3       30.0070   -4.4420    5.2750 C.ar   57  TRP57       0.0001
     56  CH2       30.9070   -4.4850    6.3550 C.ar   57  TRP57       0.0015
     57  N         35.4450    1.1220   -4.5840 N.3    71  ALA71      -0.1231
     58  CA        36.1240    1.2480   -3.2920 C.3    71  ALA71       0.1694
     59  C         36.0930   -0.0260   -2.4510 C.2    71  ALA71       0.2592
     60  O         37.0170   -0.3030   -1.6750 O.2    71  ALA71      -0.2718
     61  CB        35.5050    2.3780   -2.5030 C.3    71  ALA71       0.0304
     62  N         35.0070   -0.7770   -2.5740 N.am   72  TYR72      -0.1976
     63  CA        34.7850   -1.9390   -1.7310 C.3    72  TYR72       0.1639
     64  C         35.7330   -3.1040   -2.0150 C.2    72  TYR72       0.2290
     65  O         35.8380   -4.0180   -1.2020 O.2    72  TYR72      -0.2864
     66  CB        33.3340   -2.4150   -1.8700 C.3    72  TYR72       0.0560
     67  CG        32.2450   -1.4080   -1.4880 C.ar   72  TYR72      -0.0198
     68  CD1       32.4920   -0.3780   -0.5950 C.ar   72  TYR72      -0.0009
     69  CD2       30.9540   -1.5280   -1.9940 C.ar   72  TYR72      -0.0009
     70  CE1       31.5010    0.5220   -0.2330 C.ar   72  TYR72       0.0417
     71  CE2       29.9420   -0.6240   -1.6210 C.ar   72  TYR72       0.0417
     72  CZ        30.2360    0.3960   -0.7340 C.ar   72  TYR72       0.1957
     73  OH        29.2750    1.3190   -0.3390 O.3    72  TYR72      -0.2866
     74  N         39.3430   -4.1040    0.5190 N.3    75  GLY75      -0.1210
     75  CA        39.3660   -4.8990    1.7440 C.3    75  GLY75       0.1956
     76  C         39.0610   -6.3760    1.5830 C.2    75  GLY75       0.2611
     77  O         39.1500   -7.1390    2.5470 O.2    75  GLY75      -0.2717
     78  N         38.7240   -6.7990    0.3730 N.am   76  ALA76      -0.1979
     79  CA        38.3870   -8.1890    0.1400 C.3    76  ALA76       0.1597
     80  C         39.6120   -9.1230    0.1270 C.2    76  ALA76       0.2287
     81  O         40.6630   -8.8280   -0.4700 O.2    76  ALA76      -0.2864
     82  CB        37.5880   -8.3230   -1.1730 C.3    76  ALA76       0.0319
@<TRIPOS>BOND
     1    57    58    1
     2    58    61    1
     3    58    59    1
     4    21    20    2
     5    25    23    1
     6    62    59   am
     7    62    63    1
     8    23    22    1
     9    23    24    1
    10    59    60    2
    11    20    19    1
    12    64    63    1
    13    64    65    2
    14    69    71   ar
    15    69    67   ar
    16    66    63    1
    17    66    67    1
    18    22    19    1
    19    71    72   ar
    20    67    68   ar
    21    19    18    1
    22    82    79    1
    23    72    73    1
    24    72    70   ar
    25    68    70   ar
    26    18    12   am
    27    81    80    2
    28    46    45    2
    29    80    79    1
    30    79    78    1
    31    78    76   am
    32    74    75    1
    33    33    31    1
    34    12    11    1
    35    12    13    2
    36    45    44    1
    37    30    31    1
    38    30    27    1
    39    30    32    1
    40    14    11    1
    41    14    15    1
    42    11    10    1
    43    17    15    1
    44    76    75    1
    45    76    77    2
    46    26    27    1
    47    27    28    1
    48    16    15    1
    49    47    44    1
    50    47    48    1
    51     4     3    2
    52    44    43    1
    53    10     3   am
    54     3     2    1
    55    28    29    2
    56    48    49   ar
    57    48    50   ar
    58    49    51   ar
    59    53    50   ar
    60    53    55   ar
    61    50    52   ar
    62     2     5    1
    63     2     1    1
    64     5     6    1
    65    37    36    2
    66    51    52   ar
    67    55    56   ar
    68    52    54   ar
    69    36    35    1
    70     6     7    1
    71     7     8    1
    72    56    54   ar
    73    35    34    1
    74    35    38    1
    75     8     9    1
    76    38    39    1
    77    39    40    1
    78    41    40    2
    79    40    42   am
