@<TRIPOS>MOLECULE
tmp/4lhwA00.pdb
 175 171 0 0 0
SMALL
GASTEIGER

@<TRIPOS>ATOM
      1  N         23.1810   -7.3800  -11.2890 N.3    12  SER12      -0.1202
      2  CA        21.9270   -7.4980  -10.5720 C.3    12  SER12       0.2020
      3  C         21.0930   -8.6640  -11.1240 C.2    12  SER12       0.2619
      4  O         20.9820   -8.8560  -12.3480 O.2    12  SER12      -0.2717
      5  CB        21.1430   -6.1990  -10.6490 C.3    12  SER12       0.2103
      6  OG        19.8840   -6.3420   -9.9930 O.3    12  SER12      -0.2182
      7  N         20.5850   -9.4820  -10.2150 N.am   13  GLY13      -0.1942
      8  CA        19.6760  -10.5650  -10.5260 C.3    13  GLY13       0.2014
      9  C         20.3250  -11.9210  -10.6630 C.2    13  GLY13       0.2639
     10  O         19.6460  -12.9030  -10.8550 O.2    13  GLY13      -0.2714
     11  N         21.6540  -11.9980  -10.5540 N.am   14  VAL14      -0.1963
     12  CA        22.3380  -13.2790  -10.7810 C.3    14  VAL14       0.1727
     13  C         22.1800  -14.2410   -9.6090 C.2    14  VAL14       0.2617
     14  O         22.3740  -15.4380   -9.7670 O.2    14  VAL14      -0.2715
     15  CB        23.8440  -13.0810  -11.1190 C.3    14  VAL14       0.0290
     16  CG1       24.0190  -12.2700  -12.4120 C.3    14  VAL14       0.0023
     17  CG2       24.6190  -12.4970   -9.9320 C.3    14  VAL14       0.0023
     18  N         21.8580  -13.7080   -8.4320 N.am   15  GLY15      -0.1940
     19  CA        21.6290  -14.5200   -7.2540 C.3    15  GLY15       0.2014
     20  C         22.6590  -14.4070   -6.1550 C.2    15  GLY15       0.2639
     21  O         22.7200  -15.2850   -5.3180 O.2    15  GLY15      -0.2714
     22  N         23.4000  -13.3040   -6.0880 N.am   16  LYS16      -0.1963
     23  CA        24.4170  -13.1080   -5.0160 C.3    16  LYS16       0.1728
     24  C         23.8060  -13.2300   -3.6200 C.2    16  LYS16       0.2617
     25  O         24.2750  -13.9930   -2.7660 O.2    16  LYS16      -0.2715
     26  CB        25.0910  -11.7510   -5.1610 C.3    16  LYS16       0.0311
     27  CG        25.8670  -11.5640   -6.4450 C.3    16  LYS16       0.0038
     28  CD        26.4650  -10.1930   -6.5560 C.3    16  LYS16       0.0206
     29  CE        25.4690   -9.0300   -6.7000 C.3    16  LYS16       0.1093
     30  NZ        24.5110   -9.0860   -7.8270 N.3    16  LYS16      -0.1314
     31  N         22.7330  -12.5010   -3.3920 N.am   17  THR17      -0.1937
     32  CA        22.0750  -12.5040   -2.0980 C.3    17  THR17       0.2028
     33  C         21.5220  -13.8900   -1.7450 C.2    17  THR17       0.2642
     34  O         21.6280  -14.3400   -0.5960 O.2    17  THR17      -0.2714
     35  CB        20.9900  -11.4240   -2.0950 C.3    17  THR17       0.1808
     36  OG1       21.6180  -10.1420   -2.2570 O.3    17  THR17      -0.2208
     37  CG2       20.1720  -11.4680   -0.7910 C.3    17  THR17       0.0379
     38  N         20.9260  -14.5590   -2.7330 N.am   18  CYS18      -0.1967
     39  CA        20.3890  -15.8800   -2.4980 C.3    18  CYS18       0.1712
     40  C         21.4810  -16.9090   -2.2080 C.2    18  CYS18       0.2296
     41  O         21.3230  -17.7620   -1.3490 O.2    18  CYS18      -0.2864
     42  CB        19.4930  -16.2890   -3.6560 C.3    18  CYS18       0.0983
     43  SG        17.8960  -15.4830   -3.6690 S.3    18  CYS18      -0.0798
     44  N         15.9770  -20.6340    0.9510 N.3    28  PHE28      -0.1227
     45  CA        15.8450  -20.0100   -0.3650 C.3    28  PHE28       0.1736
     46  C         14.5160  -19.3050   -0.4840 C.2    28  PHE28       0.2595
     47  O         13.4730  -19.8930   -0.1810 O.2    28  PHE28      -0.2718
     48  CB        15.9300  -21.0340   -1.4840 C.3    28  PHE28       0.0547
     49  CG        15.7140  -20.4360   -2.8570 C.ar   28  PHE28      -0.0202
     50  CD1       16.7010  -19.6740   -3.4460 C.ar   28  PHE28      -0.0042
     51  CD2       14.5170  -20.6130   -3.5420 C.ar   28  PHE28      -0.0042
     52  CE1       16.5210  -19.1100   -4.6850 C.ar   28  PHE28      -0.0003
     53  CE2       14.3260  -20.0460   -4.7900 C.ar   28  PHE28      -0.0003
     54  CZ        15.3330  -19.2910   -5.3620 C.ar   28  PHE28      -0.0000
     55  N         14.5550  -18.0640   -0.9520 N.am   29  ASN29      -0.1960
     56  CA        13.3480  -17.2910   -1.2480 C.3    29  ASN29       0.1819
     57  C         13.3670  -16.9100   -2.7160 C.2    29  ASN29       0.2622
     58  O         14.3930  -16.4460   -3.2220 O.2    29  ASN29      -0.2715
     59  CB        13.3040  -16.0080   -0.4150 C.3    29  ASN29       0.1195
     60  CG        12.5960  -16.1760    0.9150 C.2    29  ASN29       0.2630
     61  OD1       13.0210  -16.9420    1.7700 O.2    29  ASN29      -0.2716
     62  ND2       11.5160  -15.4180    1.1050 N.am   29  ASN29      -0.0877
     63  N         12.2260  -17.0680   -3.3790 N.am   30  SER30      -0.1936
     64  CA        12.1080  -16.7870   -4.8020 C.3    30  SER30       0.2055
     65  C         11.9290  -15.3000   -5.0830 C.2    30  SER30       0.2644
     66  O         11.9640  -14.8790   -6.2310 O.2    30  SER30      -0.2714
     67  CB        10.9260  -17.5510   -5.3980 C.3    30  SER30       0.2130
     68  OG         9.7350  -17.0920   -4.7990 O.3    30  SER30      -0.2179
     69  N         11.7410  -14.4930   -4.0510 N.am   31  THR31      -0.1936
     70  CA        11.5910  -13.0610   -4.2740 C.3    31  THR31       0.2028
     71  C         12.8830  -12.3960   -4.7120 C.2    31  THR31       0.2642
     72  O         13.9810  -12.8510   -4.3770 O.2    31  THR31      -0.2714
     73  CB        11.0720  -12.3370   -3.0460 C.3    31  THR31       0.1808
     74  OG1       12.0110  -12.4420   -1.9870 O.3    31  THR31      -0.2208
     75  CG2        9.7500  -12.9110   -2.6000 C.3    31  THR31       0.0379
     76  N         12.7300  -11.3270   -5.4840 N.am   32  PHE32      -0.1959
     77  CA        13.8630  -10.5340   -5.9960 C.3    32  PHE32       0.1771
     78  C         13.7120   -9.1300   -5.4350 C.2    32  PHE32       0.2619
     79  O         12.9070   -8.3440   -5.9130 O.2    32  PHE32      -0.2715
     80  CB        13.8370  -10.5420   -7.5340 C.3    32  PHE32       0.0574
     81  CG        14.9940   -9.8290   -8.2230 C.ar   32  PHE32      -0.0200
     82  CD1       15.9550   -9.0890   -7.5420 C.ar   32  PHE32      -0.0042
     83  CD2       15.1030   -9.9240   -9.5940 C.ar   32  PHE32      -0.0042
     84  CE1       16.9670   -8.4610   -8.2180 C.ar   32  PHE32      -0.0003
     85  CE2       16.1030   -9.3040  -10.2690 C.ar   32  PHE32      -0.0003
     86  CZ        17.0380   -8.5530   -9.5770 C.ar   32  PHE32      -0.0000
     87  N         14.4870   -8.8380   -4.3960 N.am   33  ILE33      -0.1963
     88  CA        14.5780   -7.4880   -3.8680 C.3    33  ILE33       0.1727
     89  C         16.0370   -7.0980   -4.0090 C.2    33  ILE33       0.2617
     90  O         16.9240   -7.6500   -3.3460 O.2    33  ILE33      -0.2715
     91  CB        14.1230   -7.4360   -2.4260 C.3    33  ILE33       0.0290
     92  CG1       12.6470   -7.8440   -2.3310 C.3    33  ILE33       0.0022
     93  CG2       14.3340   -6.0570   -1.8450 C.3    33  ILE33       0.0023
     94  CD1       12.0990   -7.8920   -0.9100 C.3    33  ILE33       0.0001
     95  N         16.3020   -6.1840   -4.9300 N.am   34  SER34      -0.1936
     96  CA        17.6590   -5.7540   -5.1430 C.3    34  SER34       0.2055
     97  C         18.2590   -5.2160   -3.8410 C.2    34  SER34       0.2643
     98  O         17.6000   -4.5310   -3.0540 O.2    34  SER34      -0.2714
     99  CB        17.7400   -4.7590   -6.2950 C.3    34  SER34       0.2130
    100  OG        17.1060   -3.5520   -5.9930 O.3    34  SER34      -0.2179
    101  N         19.5270   -5.5360   -3.6280 N.am   35  THR35      -0.1950
    102  CA        20.1970   -5.2370   -2.3790 C.3    35  THR35       0.1897
    103  C         20.4120   -3.7470   -2.1910 C.2    35  THR35       0.2313
    104  O         20.7610   -3.0550   -3.1150 O.2    35  THR35      -0.2863
    105  CB        21.5160   -6.0400   -2.3240 C.3    35  THR35       0.1794
    106  OG1       21.1630   -7.4160   -2.2830 O.3    35  THR35      -0.2208
    107  CG2       22.3470   -5.6740   -1.1280 C.3    35  THR35       0.0378
    108  N         26.4480   -6.5670   -1.7470 N.3    59  THR59      -0.1203
    109  CA        25.9670   -5.2790   -2.1770 C.3    59  THR59       0.1994
    110  C         25.3450   -5.4970   -3.5790 C.2    59  THR59       0.2618
    111  O         25.5150   -6.5360   -4.1350 O.2    59  THR59      -0.2717
    112  CB        27.0910   -4.2280   -2.1800 C.3    59  THR59       0.1784
    113  OG1       26.5610   -2.9260   -2.3800 O.3    59  THR59      -0.2211
    114  CG2       28.0960   -4.5220   -3.2520 C.3    59  THR59       0.0376
    115  N         24.5490   -4.5400   -4.0340 N.am   60  ALA60      -0.1965
    116  CA        23.8430   -4.6990   -5.2740 C.3    60  ALA60       0.1728
    117  C         24.7800   -4.5640   -6.4360 C.2    60  ALA60       0.2616
    118  O         25.7620   -3.8080   -6.4000 O.2    60  ALA60      -0.2715
    119  CB        22.7560   -3.6490   -5.4140 C.3    60  ALA60       0.0334
    120  N         24.4190   -5.2550   -7.4970 N.am   61  GLY61      -0.1955
    121  CA        24.9610   -5.0020   -8.8130 C.3    61  GLY61       0.1869
    122  C         24.4010   -3.7450   -9.4480 C.2    61  GLY61       0.2309
    123  O         24.3740   -3.6410  -10.6240 O.2    61  GLY61      -0.2863
    124  N         25.5490  -19.3860  -11.4440 N.3   116  ASN116     -0.1225
    125  CA        24.4280  -19.6620  -10.5560 C.3   116  ASN116      0.1785
    126  C         23.1280  -19.9440  -11.3420 C.2   116  ASN116      0.2597
    127  O         23.0580  -19.6960  -12.5570 O.2   116  ASN116     -0.2718
    128  CB        24.2800  -18.5170   -9.5540 C.3   116  ASN116      0.1169
    129  CG        23.2920  -18.8220   -8.4360 C.2   116  ASN116      0.2627
    130  OD1       23.3710  -19.9010   -7.8170 O.2   116  ASN116     -0.2716
    131  ND2       22.3300  -17.9140   -8.2050 N.am  116  ASN116     -0.0877
    132  N         22.1390  -20.4820  -10.6320 N.am  117  LYS117     -0.1980
    133  CA        20.8240  -20.8720  -11.1360 C.3   117  LYS117      0.1596
    134  C         20.9310  -22.1370  -11.9810 C.2   117  LYS117      0.2287
    135  O         20.1660  -22.3270  -12.9320 O.2   117  LYS117     -0.2864
    136  CB        20.1190  -19.7310  -11.8840 C.3   117  LYS117      0.0298
    137  CG        20.0760  -18.4120  -11.1430 C.3   117  LYS117      0.0038
    138  CD        18.9670  -17.5220  -11.6410 C.3   117  LYS117      0.0206
    139  CE        19.0660  -16.1140  -11.0890 C.3   117  LYS117      0.1093
    140  NZ        18.0830  -15.1370  -11.6580 N.3   117  LYS117     -0.1314
    141  N         19.9720  -24.9570  -11.4390 N.3   119  ASP119     -0.1225
    142  CA        18.7210  -25.7220  -11.3680 C.3   119  ASP119      0.1805
    143  C         17.7640  -25.4180  -12.5310 C.2   119  ASP119      0.2597
    144  O         16.8500  -26.2020  -12.8020 O.2   119  ASP119     -0.2718
    145  CB        18.0030  -25.4710  -10.0310 C.3   119  ASP119      0.1424
    146  CG        17.6660  -24.0030   -9.8150 C.2   119  ASP119      0.3668
    147  OD1       18.6250  -23.2340   -9.5440 O.co2 119  ASP119     -0.2456
    148  OD2       16.4690  -23.6630   -9.9180 O.co2 119  ASP119     -0.2456
    149  N         17.9450  -24.2760  -13.1920 N.am  120  VAL120     -0.1980
    150  CA        17.0520  -23.8450  -14.2810 C.3   120  VAL120      0.1595
    151  C         17.6910  -24.1950  -15.6240 C.2   120  VAL120      0.2287
    152  O         17.8080  -23.3560  -16.5130 O.2   120  VAL120     -0.2864
    153  CB        16.7660  -22.3080  -14.2310 C.3   120  VAL120      0.0276
    154  CG1       15.5770  -21.9380  -15.1140 C.3   120  VAL120      0.0022
    155  CG2       16.6110  -21.7950  -12.7980 C.3   120  VAL120      0.0022
    156  N         23.5750  -23.5800   -7.3020 N.3   146  SER146     -0.1202
    157  CA        22.1490  -23.2580   -7.1850 C.3   146  SER146      0.2020
    158  C         21.8540  -22.9560   -5.7380 C.2   146  SER146      0.2619
    159  O         21.9560  -23.8320   -4.8860 O.2   146  SER146     -0.2717
    160  CB        21.2720  -24.3910   -7.6640 C.3   146  SER146      0.2103
    161  OG        19.9070  -24.1150   -7.4090 O.3   146  SER146     -0.2182
    162  N         21.4310  -21.7290   -5.4750 N.am  147  ALA147     -0.1965
    163  CA        20.9080  -21.3940   -4.1470 C.3   147  ALA147      0.1728
    164  C         19.6400  -22.1770   -3.8600 C.2   147  ALA147      0.2616
    165  O         19.3690  -22.5570   -2.7220 O.2   147  ALA147     -0.2715
    166  CB        20.6670  -19.8980   -4.0430 C.3   147  ALA147      0.0334
    167  N         18.8570  -22.4260   -4.9020 N.am  148  LYS148     -0.1977
    168  CA        17.5550  -23.0870   -4.7440 C.3   148  LYS148      0.1596
    169  C         17.6780  -24.5620   -4.3960 C.2   148  LYS148      0.2287
    170  O         17.0720  -25.0380   -3.4180 O.2   148  LYS148     -0.2864
    171  CB        16.7140  -22.9150   -6.0270 C.3   148  LYS148      0.0298
    172  CG        15.2900  -23.4200   -5.8800 C.3   148  LYS148      0.0038
    173  CD        14.4400  -23.0620   -7.0660 C.3   148  LYS148      0.0206
    174  CE        13.0840  -23.7270   -6.9370 C.3   148  LYS148      0.1093
    175  NZ        12.1740  -23.3740   -8.0490 N.3   148  LYS148     -0.1314
@<TRIPOS>BOND
     1   152   151    2
     2   151   150    1
     3   154   153    1
     4   150   153    1
     5   150   149    1
     6   153   155    1
     7   149   143   am
     8   135   134    2
     9   144   143    2
    10   127   126    2
    11   143   142    1
    12    16    15    1
    13     4     3    2
    14   134   133    1
    15   136   137    1
    16   136   133    1
    17   140   139    1
    18   138   137    1
    19   138   139    1
    20   124   125    1
    21   141   142    1
    22   142   145    1
    23   126   132   am
    24   126   125    1
    25     1     2    1
    26   133   132    1
    27     3     2    1
    28     3     7   am
    29    15    12    1
    30    15    17    1
    31    10     9    2
    32    12    11    1
    33    12    13    1
    34     9    11   am
    35     9     8    1
    36     5     2    1
    37     5     6    1
    38   123   122    2
    39   125   128    1
    40     8     7    1
    41    85    83   ar
    42    85    86   ar
    43   145   146    1
    44   148   146   ar
    45   146   147   ar
    46    14    13    2
    47    13    18   am
    48    83    81   ar
    49    86    84   ar
    50   128   129    1
    51   122   121    1
    52   121   120    1
    53   129   131   am
    54   129   130    2
    55    18    19    1
    56    81    82   ar
    57    81    80    1
    58    84    82   ar
    59   175   174    1
    60    30    29    1
    61   160   161    1
    62   160   157    1
    63    80    77    1
    64   120   117   am
    65   156   157    1
    66    19    20    1
    67   157   158    1
    68   173   174    1
    69   173   172    1
    70    29    28    1
    71    28    27    1
    72    27    26    1
    73   117   118    2
    74   117   116    1
    75    99   100    1
    76    99    96    1
    77    66    65    2
    78    20    22   am
    79    20    21    2
    80    22    23    1
    81   171   172    1
    82   171   168    1
    83    77    76    1
    84    77    78    1
    85    79    78    2
    86   158   162   am
    87   158   159    2
    88    76    71   am
    89   162   163    1
    90    78    87   am
    91   119   116    1
    92    67    64    1
    93    67    68    1
    94    54    53   ar
    95    54    52   ar
    96   116   115    1
    97    26    23    1
    98    96    95    1
    99    96    97    1
   100    65    64    1
   101    65    69   am
   102    23    24    1
   103    95    89   am
   104   167   168    1
   105   167   164   am
   106    64    63    1
   107    53    51   ar
   108   168   169    1
   109    71    72    2
   110    71    70    1
   111    52    50   ar
   112    87    88    1
   113   169   170    2
   114    70    69    1
   115    70    73    1
   116   163   166    1
   117   163   164    1
   118   111   110    2
   119   115   110   am
   120    89    88    1
   121    89    90    2
   122    88    91    1
   123   164   165    2
   124    97   101   am
   125    97    98    2
   126    43    42    1
   127    42    39    1
   128   101   102    1
   129    24    31   am
   130    24    25    2
   131   110   109    1
   132    51    49   ar
   133    50    49   ar
   134    31    32    1
   135    63    57   am
   136   114   112    1
   137    58    57    2
   138   104   103    2
   139    73    75    1
   140    73    74    1
   141    49    48    1
   142    38    39    1
   143    38    33   am
   144    57    56    1
   145    39    40    1
   146    91    92    1
   147    91    93    1
   148   113   112    1
   149   102   105    1
   150   102   103    1
   151    92    94    1
   152   105   106    1
   153   105   107    1
   154    36    35    1
   155    40    41    2
   156   112   109    1
   157   109   108    1
   158    32    35    1
   159    32    33    1
   160    35    37    1
   161    33    34    2
   162    48    45    1
   163    56    55    1
   164    56    59    1
   165    55    46   am
   166    46    45    1
   167    46    47    2
   168    59    60    1
   169    45    44    1
   170    60    62   am
   171    60    61    2
