@<TRIPOS>MOLECULE
tmp/4lhyB00.pdb
 117 112 0 0 0
SMALL
GASTEIGER

@<TRIPOS>ATOM
      1  N         19.0040  -35.6400  -74.1120 N.3    14  ASP14      -0.1225
      2  CA        20.2350  -36.2810  -73.7530 C.3    14  ASP14       0.1805
      3  C         20.1770  -37.7020  -74.1610 C.2    14  ASP14       0.2598
      4  O         19.1310  -38.3030  -74.2560 O.2    14  ASP14      -0.2718
      5  CB        20.4700  -36.2130  -72.2720 C.3    14  ASP14       0.1424
      6  CG        21.0630  -34.9030  -71.8490 C.2    14  ASP14       0.3668
      7  OD1       21.2250  -34.0110  -72.7150 O.co2  14  ASP14      -0.2456
      8  OD2       21.3760  -34.7770  -70.6420 O.co2  14  ASP14      -0.2456
      9  N         21.3520  -38.2310  -74.4340 N.am   15  SER15      -0.1938
     10  CA        21.4700  -39.5250  -75.0540 C.3    15  SER15       0.2055
     11  C         21.0860  -40.5070  -74.0110 C.2    15  SER15       0.2644
     12  O         21.3220  -40.2470  -72.8530 O.2    15  SER15      -0.2714
     13  CB        22.9060  -39.7540  -75.4660 C.3    15  SER15       0.2130
     14  OG        23.3460  -40.9510  -74.8780 O.3    15  SER15      -0.2179
     15  N         20.4900  -41.6200  -74.3780 N.am   16  GLY16      -0.1939
     16  CA        20.2330  -42.6410  -73.3910 C.3    16  GLY16       0.2014
     17  C         18.9850  -42.3700  -72.5740 C.2    16  GLY16       0.2639
     18  O         18.4170  -43.2810  -71.9220 O.2    16  GLY16      -0.2714
     19  N         18.5090  -41.1340  -72.6270 N.am   17  VAL17      -0.1963
     20  CA        17.2260  -40.8340  -72.0500 C.3    17  VAL17       0.1727
     21  C         16.1820  -41.8720  -72.4780 C.2    17  VAL17       0.2617
     22  O         15.2610  -42.1790  -71.7400 O.2    17  VAL17      -0.2715
     23  CB        16.7840  -39.4430  -72.4540 C.3    17  VAL17       0.0290
     24  CG1       15.3620  -39.2040  -72.0660 C.3    17  VAL17       0.0023
     25  CG2       17.6860  -38.4140  -71.7960 C.3    17  VAL17       0.0023
     26  N         16.3340  -42.4380  -73.6640 N.am   18  GLY18      -0.1940
     27  CA        15.3390  -43.3750  -74.1820 C.3    18  GLY18       0.2014
     28  C         14.3380  -42.6720  -75.0810 C.2    18  GLY18       0.2639
     29  O         13.1900  -43.0530  -75.1210 O.2    18  GLY18      -0.2714
     30  N         14.7750  -41.6260  -75.7820 N.am   19  LYS19      -0.1963
     31  CA        14.0000  -41.0520  -76.8350 C.3    19  LYS19       0.1728
     32  C         13.5860  -42.2070  -77.7690 C.2    19  LYS19       0.2617
     33  O         12.3890  -42.4680  -78.0070 O.2    19  LYS19      -0.2715
     34  CB        14.8590  -40.0850  -77.6520 C.3    19  LYS19       0.0311
     35  CG        15.3150  -38.8080  -77.0040 C.3    19  LYS19       0.0038
     36  CD        16.4040  -38.1240  -77.8490 C.3    19  LYS19       0.0206
     37  CE        17.7800  -38.2960  -77.2440 C.3    19  LYS19       0.1093
     38  NZ        18.5090  -39.5590  -77.6160 N.3    19  LYS19      -0.1314
     39  N         14.5890  -42.8940  -78.3020 N.am   20  THR20      -0.1937
     40  CA        14.3400  -43.8150  -79.3620 C.3    20  THR20       0.2028
     41  C         13.3350  -44.8810  -78.9600 C.2    20  THR20       0.2642
     42  O         12.4380  -45.1400  -79.7210 O.2    20  THR20      -0.2714
     43  CB        15.5880  -44.4790  -79.8770 C.3    20  THR20       0.1808
     44  OG1       16.6190  -43.5140  -80.0720 O.3    20  THR20      -0.2208
     45  CG2       15.2870  -45.1460  -81.1870 C.3    20  THR20       0.0379
     46  N         13.4040  -45.4530  -77.7780 N.am   21  CYS21      -0.1967
     47  CA        12.4280  -46.4770  -77.4250 C.3    21  CYS21       0.1712
     48  C         10.9890  -45.9940  -77.2550 C.2    21  CYS21       0.2296
     49  O         10.0600  -46.7510  -77.3960 O.2    21  CYS21      -0.2864
     50  CB        12.8510  -47.1950  -76.1660 C.3    21  CYS21       0.0983
     51  SG        14.3950  -48.0730  -76.2920 S.3    21  CYS21      -0.0798
     52  N         20.2480  -44.4990  -84.1450 N.3    36  ILE36      -0.1231
     53  CA        20.4720  -43.4020  -83.2060 C.3    36  ILE36       0.1692
     54  C         21.8470  -43.4830  -82.5660 C.2    36  ILE36       0.2592
     55  O         22.4220  -42.4800  -82.2440 O.2    36  ILE36      -0.2718
     56  CB        19.3610  -43.3400  -82.1360 C.3    36  ILE36       0.0266
     57  CG1       19.3660  -41.9840  -81.4190 C.3    36  ILE36       0.0019
     58  CG2       19.5170  -44.4420  -81.1940 C.3    36  ILE36       0.0020
     59  CD1       19.2050  -40.7630  -82.3390 C.3    36  ILE36       0.0001
     60  N         22.3850  -44.6850  -82.4290 N.am   37  SER37      -0.1952
     61  CA        23.6990  -44.8890  -81.8120 C.3    37  SER37       0.1924
     62  C         24.8300  -44.5910  -82.7790 C.2    37  SER37       0.2314
     63  O         25.7450  -43.8530  -82.4340 O.2    37  SER37      -0.2863
     64  CB        23.8380  -46.3360  -81.3360 C.3    37  SER37       0.2116
     65  OG        22.6740  -46.7740  -80.6310 O.3    37  SER37      -0.2180
     66  N         10.8390  -39.7700  -68.9880 N.3   119  ASN119     -0.1225
     67  CA        10.7820  -41.1600  -69.4190 C.3   119  ASN119      0.1785
     68  C         11.3320  -42.0460  -68.3340 C.2   119  ASN119      0.2597
     69  O         11.9510  -41.5490  -67.4000 O.2   119  ASN119     -0.2718
     70  CB        11.5330  -41.3450  -70.7320 C.3   119  ASN119      0.1169
     71  CG        11.2640  -42.6790  -71.3540 C.2   119  ASN119      0.2627
     72  OD1       10.1070  -43.1000  -71.5320 O.2   119  ASN119     -0.2716
     73  ND2       12.3350  -43.3730  -71.6830 N.am  119  ASN119     -0.0877
     74  N         11.0740  -43.3410  -68.4500 N.am  120  LYS120     -0.1980
     75  CA        11.3900  -44.3500  -67.3990 C.3   120  LYS120      0.1596
     76  C         10.5410  -44.3290  -66.0690 C.2   120  LYS120      0.2287
     77  O         10.9450  -44.9340  -65.0360 O.2   120  LYS120     -0.2864
     78  CB        12.9030  -44.3830  -67.1200 C.3   120  LYS120      0.0298
     79  CG        13.6980  -44.2160  -68.4380 C.3   120  LYS120      0.0038
     80  CD        15.0400  -45.0110  -68.5020 C.3   120  LYS120      0.0206
     81  CE        15.7580  -44.7090  -69.8080 C.3   120  LYS120      0.1093
     82  NZ        16.9370  -45.5580  -69.9720 N.3   120  LYS120     -0.1314
     83  N          8.4970  -46.0780  -65.3110 N.3   122  ASP122     -0.1225
     84  CA         8.4260  -47.4910  -65.0390 C.3   122  ASP122      0.1805
     85  C          9.4490  -47.9700  -64.0520 C.2   122  ASP122      0.2597
     86  O          9.2790  -48.9880  -63.4240 O.2   122  ASP122     -0.2718
     87  CB         8.5630  -48.2620  -66.3480 C.3   122  ASP122      0.1424
     88  CG         9.9290  -48.7950  -66.5700 C.2   122  ASP122      0.3668
     89  OD1       10.6450  -48.2820  -67.4180 O.co2 122  ASP122     -0.2456
     90  OD2       10.2840  -49.7680  -65.9320 O.co2 122  ASP122     -0.2456
     91  N         10.5310  -47.2420  -63.9130 N.am  123  VAL123     -0.1980
     92  CA        11.6590  -47.7410  -63.0870 C.3   123  VAL123      0.1595
     93  C         11.5910  -46.6970  -61.9620 C.2   123  VAL123      0.2287
     94  O         12.0380  -45.5670  -62.1040 O.2   123  VAL123     -0.2864
     95  CB        12.9970  -47.8570  -63.9090 C.3   123  VAL123      0.0276
     96  CG1       12.9510  -47.0230  -65.1950 C.3   123  VAL123      0.0022
     97  CG2       14.2070  -47.5270  -63.0570 C.3   123  VAL123      0.0022
     98  N          7.0110  -44.4570  -69.9590 N.3   149  SER149     -0.1202
     99  CA         7.8770  -45.6230  -69.8410 C.3   149  SER149      0.2020
    100  C          8.0270  -46.3380  -71.1800 C.2   149  SER149      0.2619
    101  O          7.0670  -46.9020  -71.7040 O.2   149  SER149     -0.2717
    102  CB         7.3330  -46.5900  -68.7870 C.3   149  SER149      0.2103
    103  OG         8.1920  -47.7060  -68.6250 O.3   149  SER149     -0.2182
    104  N          9.1320  -46.3020  -71.8860 N.am  150  ALA150     -0.1965
    105  CA         9.0640  -46.9030  -73.2140 C.3   150  ALA150      0.1728
    106  C          8.8500  -48.3860  -73.0890 C.2   150  ALA150      0.2616
    107  O          8.3270  -49.0510  -73.9410 O.2   150  ALA150     -0.2715
    108  CB        10.3310  -46.6360  -73.9700 C.3   150  ALA150      0.0334
    109  N          9.2650  -48.8980  -71.9380 N.am  151  LYS151     -0.1977
    110  CA         9.2870  -50.3290  -71.6500 C.3   151  LYS151      0.1596
    111  C          8.0770  -50.9620  -70.9770 C.2   151  LYS151      0.2287
    112  O          7.6810  -52.0110  -71.4060 O.2   151  LYS151     -0.2864
    113  CB        10.5420  -50.6820  -70.8880 C.3   151  LYS151      0.0298
    114  CG        11.7680  -49.9940  -71.4260 C.3   151  LYS151      0.0038
    115  CD        12.8900  -50.9660  -71.6900 C.3   151  LYS151      0.0206
    116  CE        13.3170  -51.6480  -70.4060 C.3   151  LYS151      0.1093
    117  NZ        14.7090  -52.1800  -70.4380 N.3   151  LYS151     -0.1314
@<TRIPOS>BOND
     1    52    53    1
     2    53    54    1
     3    53    56    1
     4    62    63    2
     5    62    61    1
     6    54    60   am
     7    54    55    2
     8    60    61    1
     9    59    57    1
    10    56    57    1
    11    56    58    1
    12    61    64    1
    13    64    65    1
    14    45    43    1
    15    44    43    1
    16    43    40    1
    17    42    41    2
    18    40    41    1
    19    40    39    1
    20    41    46   am
    21    39    32   am
    22    33    32    2
    23    36    37    1
    24    36    35    1
    25    46    47    1
    26    32    31    1
    27    34    35    1
    28    34    31    1
    29    38    37    1
    30    47    48    1
    31    47    50    1
    32    49    48    2
    33    31    30    1
    34    51    50    1
    35    30    28   am
    36    13    10    1
    37    13    14    1
    38    29    28    2
    39    28    27    1
    40    10     9    1
    41    10    11    1
    42     9     3   am
    43    15    11   am
    44    15    16    1
    45     4     3    2
    46    27    26    1
    47     3     2    1
    48     1     2    1
    49    11    12    2
    50   108   105    1
    51   107   106    2
    52     2     5    1
    53    26    21   am
    54    16    17    1
    55   105   106    1
    56   105   104    1
    57   106   109   am
    58     7     6   ar
    59    19    17   am
    60    19    20    1
    61    17    18    2
    62    21    20    1
    63    21    22    2
    64    23    24    1
    65    23    20    1
    66    23    25    1
    67     5     6    1
    68   109   110    1
    69   104   100   am
    70     6     8   ar
    71   101   100    2
    72   115   114    1
    73   115   116    1
    74    73    71   am
    75   110   111    1
    76   110   113    1
    77    72    71    2
    78   114   113    1
    79   112   111    2
    80    71    70    1
    81   100    99    1
    82    70    67    1
    83   117   116    1
    84    82    81    1
    85    98    99    1
    86    99   102    1
    87    81    80    1
    88    67    66    1
    89    67    68    1
    90   102   103    1
    91    80    79    1
    92    74    68   am
    93    74    75    1
    94    79    78    1
    95    68    69    2
    96    89    88   ar
    97    75    78    1
    98    75    76    1
    99    88    87    1
   100    88    90   ar
   101    87    84    1
   102    76    77    2
   103    83    84    1
   104    96    95    1
   105    84    85    1
   106    85    91   am
   107    85    86    2
   108    91    92    1
   109    95    92    1
   110    95    97    1
   111    92    93    1
   112    94    93    2
