@<TRIPOS>MOLECULE
tmp/4lhzA00.pdb
 115 108 0 0 0
SMALL
GASTEIGER

@<TRIPOS>ATOM
      1  N         18.5850  -36.4600  -43.9530 N.3    14  ASP14      -0.1225
      2  CA        17.9780  -37.6940  -44.3630 C.3    14  ASP14       0.1805
      3  C         18.8620  -38.8190  -43.9810 C.2    14  ASP14       0.2598
      4  O         20.0590  -38.6860  -43.8680 O.2    14  ASP14      -0.2718
      5  CB        17.7670  -37.7290  -45.8470 C.3    14  ASP14       0.1424
      6  CG        16.5190  -37.0090  -46.2630 C.2    14  ASP14       0.3668
      7  OD1       15.8470  -36.4180  -45.3850 O.co2  14  ASP14      -0.2456
      8  OD2       16.2070  -37.0540  -47.4770 O.co2  14  ASP14      -0.2456
      9  N         18.2070  -39.9500  -43.8680 N.am   15  SER15      -0.1938
     10  CA        18.8480  -41.1680  -43.5380 C.3    15  SER15       0.2055
     11  C         19.3840  -41.7190  -44.7840 C.2    15  SER15       0.2643
     12  O         18.6770  -41.8070  -45.7440 O.2    15  SER15      -0.2714
     13  CB        17.8050  -42.1320  -43.0800 C.3    15  SER15       0.2130
     14  OG        17.0460  -42.4560  -44.2040 O.3    15  SER15      -0.2179
     15  N         20.6310  -42.1350  -44.7500 N.am   16  GLY16      -0.1954
     16  CA        21.2300  -42.8320  -45.8510 C.3    16  GLY16       0.1869
     17  C         22.3600  -41.9780  -46.2590 C.2    16  GLY16       0.2309
     18  O         23.2820  -42.3890  -46.9010 O.2    16  GLY16      -0.2863
     19  N         24.6590  -40.5150  -44.6880 N.3    18  GLY18      -0.1210
     20  CA        25.9910  -40.6830  -44.0470 C.3    18  GLY18       0.1956
     21  C         26.4180  -39.5620  -43.0830 C.2    18  GLY18       0.2612
     22  O         27.6270  -39.3070  -42.8680 O.2    18  GLY18      -0.2717
     23  N         25.4150  -38.8760  -42.5130 N.am   19  LYS19      -0.1965
     24  CA        25.5710  -38.0720  -41.3100 C.3    19  LYS19       0.1728
     25  C         26.4700  -38.7510  -40.3010 C.2    19  LYS19       0.2617
     26  O         27.4080  -38.1700  -39.7980 O.2    19  LYS19      -0.2715
     27  CB        24.2140  -37.9370  -40.6440 C.3    19  LYS19       0.0311
     28  CG        23.4200  -36.7570  -41.0930 C.3    19  LYS19       0.0038
     29  CD        22.2960  -36.4660  -40.1330 C.3    19  LYS19       0.0206
     30  CE        21.0760  -37.2730  -40.4510 C.3    19  LYS19       0.1093
     31  NZ        21.1880  -38.6720  -40.0850 N.3    19  LYS19      -0.1314
     32  N         26.1630  -39.9930  -39.9790 N.am   20  THR20      -0.1937
     33  CA        26.8820  -40.6550  -38.9120 C.3    20  THR20       0.2028
     34  C         28.3440  -40.9780  -39.1940 C.2    20  THR20       0.2642
     35  O         29.1360  -40.9190  -38.2810 O.2    20  THR20      -0.2714
     36  CB        26.1880  -41.9340  -38.5090 C.3    20  THR20       0.1808
     37  OG1       24.8780  -41.6180  -37.9970 O.3    20  THR20      -0.2208
     38  CG2       26.9930  -42.6410  -37.4530 C.3    20  THR20       0.0379
     39  N         28.7280  -41.3180  -40.4180 N.am   21  CYS21      -0.1967
     40  CA        30.1650  -41.5240  -40.6770 C.3    21  CYS21       0.1712
     41  C         30.8610  -40.2340  -40.6320 C.2    21  CYS21       0.2296
     42  O         31.9880  -40.1340  -40.1780 O.2    21  CYS21      -0.2864
     43  CB        30.4200  -42.1290  -42.0190 C.3    21  CYS21       0.0983
     44  SG        29.4640  -43.5770  -42.0980 S.3    21  CYS21      -0.0798
     45  N         22.9740  -44.9010  -33.7380 N.3    36  ILE36      -0.1231
     46  CA        22.0960  -44.1770  -34.6270 C.3    36  ILE36       0.1692
     47  C         21.0600  -45.1160  -35.2060 C.2    36  ILE36       0.2592
     48  O         19.9180  -44.7360  -35.4190 O.2    36  ILE36      -0.2718
     49  CB        22.9000  -43.4760  -35.7400 C.3    36  ILE36       0.0266
     50  CG1       21.9930  -42.5220  -36.5200 C.3    36  ILE36       0.0019
     51  CG2       23.6170  -44.5060  -36.6280 C.3    36  ILE36       0.0020
     52  CD1       21.4780  -41.3800  -35.6860 C.3    36  ILE36       0.0001
     53  N         21.4460  -46.3250  -35.5450 N.am   37  SER37      -0.1952
     54  CA        20.5790  -47.1570  -36.3580 C.3    37  SER37       0.1924
     55  C         19.2790  -47.4340  -35.6590 C.2    37  SER37       0.2314
     56  O         18.1880  -47.2440  -36.1500 O.2    37  SER37      -0.2863
     57  CB        21.2800  -48.4740  -36.6250 C.3    37  SER37       0.2116
     58  OG        22.3040  -48.3060  -37.5800 O.3    37  SER37      -0.2180
     59  N         18.3490  -38.1280  -36.0570 N.3    63  ALA63      -0.1245
     60  CA        17.8840  -38.9370  -37.1720 C.3    63  ALA63       0.1562
     61  C         16.3950  -38.8880  -37.3100 C.2    63  ALA63       0.2260
     62  O         15.7920  -39.9270  -37.5160 O.2    63  ALA63      -0.2867
     63  CB        18.3360  -40.4070  -37.0050 C.3    63  ALA63       0.0290
     64  N         27.5590  -34.6290  -48.9790 N.3   119  ASN119     -0.1225
     65  CA        28.3640  -35.7920  -48.6660 C.3   119  ASN119      0.1785
     66  C         28.5290  -36.8650  -49.7110 C.2   119  ASN119      0.2597
     67  O         27.8050  -36.9750  -50.6640 O.2   119  ASN119     -0.2718
     68  CB        27.8250  -36.4430  -47.4180 C.3   119  ASN119      0.1169
     69  CG        28.8410  -37.3590  -46.7380 C.2   119  ASN119      0.2627
     70  OD1       30.0570  -37.1170  -46.7570 O.2   119  ASN119     -0.2716
     71  ND2       28.3300  -38.4300  -46.1320 N.am  119  ASN119     -0.0877
     72  N         29.5180  -37.7020  -49.4940 N.am  120  LYS120     -0.1980
     73  CA        29.9360  -38.7150  -50.4930 C.3   120  LYS120      0.1596
     74  C         30.5200  -38.1290  -51.8180 C.2   120  LYS120      0.2287
     75  O         30.5240  -38.8040  -52.8570 O.2   120  LYS120     -0.2864
     76  CB        28.8050  -39.6890  -50.8060 C.3   120  LYS120      0.0298
     77  CG        27.9790  -40.0410  -49.5980 C.3   120  LYS120      0.0038
     78  CD        27.3740  -41.4490  -49.7700 C.3   120  LYS120      0.0206
     79  CE        26.2340  -41.6850  -48.7980 C.3   120  LYS120      0.1093
     80  NZ        25.4840  -42.9070  -49.1800 N.3   120  LYS120     -0.1314
     81  N         32.9500  -38.2650  -53.0770 N.3   122  ASP122     -0.1225
     82  CA        34.0060  -39.2130  -53.3970 C.3   122  ASP122      0.1805
     83  C         33.6120  -40.1160  -54.4900 C.2   122  ASP122      0.2597
     84  O         34.4080  -40.6010  -55.2510 O.2   122  ASP122     -0.2718
     85  CB        34.3460  -40.0700  -52.1510 C.3   122  ASP122      0.1424
     86  CG        33.3850  -41.2460  -51.9260 C.2   122  ASP122      0.3668
     87  OD1       32.3720  -41.0960  -51.2400 O.co2 122  ASP122     -0.2456
     88  OD2       33.6590  -42.3570  -52.3810 O.co2 122  ASP122     -0.2456
     89  N         32.3450  -40.3770  -54.5420 N.am  123  VAL123     -0.1980
     90  CA        31.8310  -41.3070  -55.5150 C.3   123  VAL123      0.1595
     91  C         31.2310  -40.3320  -56.4830 C.2   123  VAL123      0.2287
     92  O         30.1280  -39.8870  -56.3280 O.2   123  VAL123     -0.2864
     93  CB        30.8590  -42.2820  -54.8860 C.3   123  VAL123      0.0276
     94  CG1       30.2500  -41.6870  -53.6530 C.3   123  VAL123      0.0022
     95  CG2       29.7950  -42.6640  -55.8680 C.3   123  VAL123      0.0022
     96  N         33.4820  -36.2980  -47.9880 N.3   149  SER149     -0.1202
     97  CA        33.4770  -37.7460  -48.1570 C.3   149  SER149      0.2020
     98  C         33.7670  -38.4570  -46.8390 C.2   149  SER149      0.2619
     99  O         34.8700  -38.3620  -46.3020 O.2   149  SER149     -0.2717
    100  CB        34.4970  -38.1660  -49.2170 C.3   149  SER149      0.2103
    101  OG        34.4680  -39.5680  -49.4270 O.3   149  SER149     -0.2182
    102  N         32.8500  -39.1080  -46.1630 N.am  150  ALA150     -0.1965
    103  CA        33.2480  -39.5970  -44.8470 C.3   150  ALA150      0.1728
    104  C         34.3000  -40.6600  -45.0010 C.2   150  ALA150      0.2616
    105  O         35.1080  -40.9160  -44.1510 O.2   150  ALA150     -0.2715
    106  CB        32.0620  -40.1580  -44.1230 C.3   150  ALA150      0.0334
    107  N         34.2810  -41.2780  -46.1750 N.am  151  LYS151     -0.1977
    108  CA        35.1130  -42.4330  -46.4960 C.3   151  LYS151      0.1596
    109  C         36.4680  -42.2040  -47.1480 C.2   151  LYS151      0.2287
    110  O         37.4050  -42.8290  -46.7340 O.2   151  LYS151     -0.2864
    111  CB        34.3190  -43.4340  -47.3000 C.3   151  LYS151      0.0298
    112  CG        32.9170  -43.6250  -46.7810 C.3   151  LYS151      0.0038
    113  CD        32.5880  -45.0810  -46.5710 C.3   151  LYS151      0.0206
    114  CE        32.6600  -45.8370  -47.8810 C.3   151  LYS151      0.1093
    115  NZ        31.8530  -47.0910  -47.9020 N.3   151  LYS151     -0.1314
@<TRIPOS>BOND
     1    91    92    2
     2    91    90    1
     3    95    93    1
     4    90    93    1
     5    90    89    1
     6    84    83    2
     7    93    94    1
     8    89    83   am
     9    83    82    1
    10    82    81    1
    11    82    85    1
    12    75    74    2
    13    88    86   ar
    14    85    86    1
    15    86    87   ar
    16    74    73    1
    17    76    73    1
    18    76    77    1
    19    67    66    2
    20    73    72    1
    21    78    77    1
    22    78    79    1
    23    66    72   am
    24    66    65    1
    25   101   100    1
    26   100    97    1
    27    80    79    1
    28    64    65    1
    29    65    68    1
    30    97    96    1
    31    97    98    1
    32   115   114    1
    33   114   113    1
    34     8     6   ar
    35    68    69    1
    36   111   112    1
    37   111   108    1
    38   109   110    2
    39   109   108    1
    40    18    17    2
    41    98    99    2
    42    98   102   am
    43   112   113    1
    44    70    69    2
    45    69    71   am
    46   108   107    1
    47     6     5    1
    48     6     7   ar
    49    17    16    1
    50   107   104   am
    51   102   103    1
    52    16    15    1
    53     5     2    1
    54    12    11    2
    55   104   103    1
    56   104   105    2
    57   103   106    1
    58    11    15   am
    59    11    10    1
    60    19    20    1
    61     2     3    1
    62     2     1    1
    63    14    13    1
    64    20    21    1
    65     3     4    2
    66     3     9   am
    67     9    10    1
    68    10    13    1
    69    21    22    2
    70    21    23   am
    71    23    24    1
    72    44    43    1
    73    43    40    1
    74    24    27    1
    75    24    25    1
    76    28    27    1
    77    28    29    1
    78    40    41    1
    79    40    39    1
    80    41    42    2
    81    30    29    1
    82    30    31    1
    83    39    34   am
    84    25    32   am
    85    25    26    2
    86    32    33    1
    87    34    33    1
    88    34    35    2
    89    33    36    1
    90    36    37    1
    91    36    38    1
    92    58    57    1
    93    62    61    2
    94    61    60    1
    95    60    63    1
    96    60    59    1
    97    51    49    1
    98    57    54    1
    99    50    49    1
   100    50    52    1
   101    54    55    1
   102    54    53    1
   103    56    55    2
   104    49    46    1
   105    53    47   am
   106    48    47    2
   107    47    46    1
   108    46    45    1
