@<TRIPOS>MOLECULE
tmp/4li3A00.pdb
 204 201 0 0 0
SMALL
GASTEIGER

@<TRIPOS>ATOM
      1  N        106.9520  131.7800    5.4990 N.3    68  THR68      -0.1203
      2  CA       108.1260  131.0260    5.9250 C.3    68  THR68       0.1994
      3  C        108.4400  129.9210    4.9250 C.2    68  THR68       0.2619
      4  O        107.5340  129.2950    4.3740 O.2    68  THR68      -0.2717
      5  CB       107.9140  130.3880    7.3100 C.3    68  THR68       0.1784
      6  OG1      108.8670  129.3360    7.5050 O.3    68  THR68      -0.2211
      7  CG2      106.5170  129.8090    7.4120 C.3    68  THR68       0.0376
      8  N        109.7270  129.6830    4.6920 N.am   69  SER69      -0.1937
      9  CA       110.1520  128.6360    3.7730 C.3    69  SER69       0.2055
     10  C        111.0620  127.6290    4.4690 C.2    69  SER69       0.2644
     11  O        111.8880  126.9780    3.8300 O.2    69  SER69      -0.2714
     12  CB       110.8550  129.2470    2.5620 C.3    69  SER69       0.2130
     13  OG       111.1710  130.6040    2.8020 O.3    69  SER69      -0.2179
     14  N        110.9030  127.5030    5.7820 N.am   70  GLY70      -0.1939
     15  CA       111.7280  126.5960    6.5560 C.3    70  GLY70       0.2014
     16  C        110.9350  125.7490    7.5310 C.2    70  GLY70       0.2639
     17  O        109.7680  125.4350    7.3000 O.2    70  GLY70      -0.2714
     18  N        111.5760  125.3850    8.6350 N.am   71  ASN71      -0.1958
     19  CA       110.9650  124.5060    9.6200 C.3    71  ASN71       0.1819
     20  C        109.8880  125.1960   10.4510 C.2    71  ASN71       0.2621
     21  O        109.1350  124.5380   11.1700 O.2    71  ASN71      -0.2715
     22  CB       112.0390  123.9010   10.5270 C.3    71  ASN71       0.1195
     23  CG       113.1450  123.2220    9.7450 C.2    71  ASN71       0.2630
     24  OD1      112.9430  122.7900    8.6090 O.2    71  ASN71      -0.2716
     25  ND2      114.3260  123.1260   10.3490 N.am   71  ASN71      -0.0877
     26  N        109.8210  126.5220   10.3520 N.am   72  THR72      -0.1951
     27  CA       108.8030  127.2940   11.0620 C.3    72  THR72       0.1897
     28  C        107.4170  127.0220   10.4750 C.2    72  THR72       0.2313
     29  O        106.4210  126.9650   11.1980 O.2    72  THR72      -0.2863
     30  CB       109.1160  128.8040   11.0410 C.3    72  THR72       0.1794
     31  OG1      110.2640  129.0630   11.8570 O.3    72  THR72      -0.2208
     32  CG2      107.9480  129.6170   11.5730 C.3    72  THR72       0.0378
     33  N        107.7660  131.3840   -1.7480 N.3    92  PRO92      -0.2116
     34  CA       107.9780  131.3670   -3.1990 C.3    92  PRO92       0.1372
     35  C        107.7460  129.9850   -3.7960 C.2    92  PRO92       0.2244
     36  O        107.8890  128.9770   -3.1010 O.2    92  PRO92      -0.2868
     37  CB       109.4520  131.7690   -3.3480 C.3    92  PRO92       0.0268
     38  CG       110.0610  131.5490   -1.9950 C.3    92  PRO92       0.0207
     39  CD       108.9680  131.8270   -1.0200 C.3    92  PRO92       0.0892
     40  N        109.5560  128.4380   -5.4340 N.3    94  THR94      -0.1218
     41  CA       110.8950  127.9040   -5.6230 C.3    94  THR94       0.1862
     42  C        111.1630  126.7580   -4.6500 C.2    94  THR94       0.2287
     43  O        112.2170  126.1230   -4.7010 O.2    94  THR94      -0.2866
     44  CB       111.9530  129.0130   -5.4090 C.3    94  THR94       0.1770
     45  OG1      113.1990  128.6250   -6.0010 O.3    94  THR94      -0.2211
     46  CG2      112.1550  129.2880   -3.9230 C.3    94  THR94       0.0375
     47  N        110.8930  136.0100   -4.3890 N.3   118  GLY118     -0.1210
     48  CA       111.5400  135.3930   -3.2460 C.3   118  GLY118      0.1956
     49  C        110.7150  135.5160   -1.9790 C.2   118  GLY118      0.2612
     50  O        109.4930  135.3650   -2.0070 O.2   118  GLY118     -0.2717
     51  N        111.3850  135.7960   -0.8650 N.am  119  MET119     -0.1965
     52  CA       110.7120  135.9230    0.4240 C.3   119  MET119      0.1736
     53  C        109.9200  137.2110    0.5520 C.2   119  MET119      0.2616
     54  O        108.8520  137.2270    1.1610 O.2   119  MET119     -0.2715
     55  CB       111.7130  135.8280    1.5730 C.3   119  MET119      0.0427
     56  CG       111.8110  134.4440    2.1650 C.3   119  MET119      0.0599
     57  SD       110.2450  133.8340    2.8190 S.3   119  MET119     -0.1393
     58  CE       110.0650  134.8660    4.2710 C.3   119  MET119      0.0692
     59  N        110.4560  138.2910   -0.0060 N.am  120  LYS120     -0.1977
     60  CA       109.7770  139.5810    0.0250 C.3   120  LYS120      0.1596
     61  C        108.3890  139.4580   -0.5930 C.2   120  LYS120      0.2287
     62  O        107.4070  139.9670   -0.0530 O.2   120  LYS120     -0.2864
     63  CB       110.5990  140.6380   -0.7000 C.3   120  LYS120      0.0298
     64  CG       111.8740  141.0050    0.0330 C.3   120  LYS120      0.0038
     65  CD       111.6030  141.2110    1.5300 C.3   120  LYS120      0.0206
     66  CE       112.8810  141.5860    2.2840 C.3   120  LYS120      0.1093
     67  NZ       113.8490  140.4510    2.4190 N.3   120  LYS120     -0.1314
     68  N        106.2030  137.4460    1.8810 N.3   123  ILE123     -0.1245
     69  CA       105.7350  138.2650    2.9910 C.3   123  ILE123      0.1561
     70  C        104.6780  139.2410    2.4910 C.2   123  ILE123      0.2260
     71  O        103.6980  139.5240    3.1820 O.2   123  ILE123     -0.2867
     72  CB       106.8960  139.0270    3.6530 C.3   123  ILE123      0.0252
     73  CG1      107.9770  138.0430    4.1030 C.3   123  ILE123      0.0019
     74  CG2      106.3990  139.8470    4.8330 C.3   123  ILE123      0.0019
     75  CD1      109.1570  138.6930    4.7740 C.3   123  ILE123      0.0001
     76  N        107.7740  135.2350   13.2030 N.3   142  GLN142     -0.1231
     77  CA       108.8160  134.5590   13.9800 C.3   142  GLN142      0.1698
     78  C        110.0190  135.4260   14.3650 C.2   142  GLN142      0.2592
     79  O        110.6050  135.2440   15.4330 O.2   142  GLN142     -0.2718
     80  CB       109.3010  133.3080   13.2400 C.3   142  GLN142      0.0381
     81  CG       109.6980  133.5660   11.7990 C.3   142  GLN142      0.0905
     82  CD       110.2890  132.3430   11.1270 C.2   142  GLN142      0.2608
     83  OE1      110.8580  131.4720   11.7850 O.2   142  GLN142     -0.2717
     84  NE2      110.1570  132.2700    9.8090 N.am  142  GLN142     -0.0878
     85  N        110.3930  136.3610   13.5000 N.am  143  PHE143     -0.1976
     86  CA       111.6080  137.1400   13.7240 C.3   143  PHE143      0.1639
     87  C        111.4750  138.1680   14.8400 C.2   143  PHE143      0.2290
     88  O        112.4730  138.5670   15.4390 O.2   143  PHE143     -0.2864
     89  CB       112.0550  137.8230   12.4330 C.3   143  PHE143      0.0560
     90  CG       112.4490  136.8640   11.3520 C.ar  143  PHE143     -0.0200
     91  CD1      113.7300  136.3370   11.3130 C.ar  143  PHE143     -0.0042
     92  CD2      111.5410  136.4820   10.3800 C.ar  143  PHE143     -0.0042
     93  CE1      114.1000  135.4510   10.3230 C.ar  143  PHE143     -0.0003
     94  CE2      111.9050  135.5930    9.3840 C.ar  143  PHE143     -0.0003
     95  CZ       113.1870  135.0780    9.3550 C.ar  143  PHE143     -0.0000
     96  N        119.0840  132.2810   13.0080 N.3   176  GLY176     -0.1210
     97  CA       118.1080  132.5440   11.9680 C.3   176  GLY176      0.1956
     98  C        117.1760  133.6380   12.4430 C.2   176  GLY176      0.2612
     99  O        117.1750  134.7490   11.9090 O.2   176  GLY176     -0.2717
    100  N        116.3800  133.3200   13.4580 N.am  177  THR177     -0.1952
    101  CA       115.5550  134.3180   14.1220 C.3   177  THR177      0.1897
    102  C        116.3110  134.8270   15.3390 C.2   177  THR177      0.2313
    103  O        116.0290  135.9060   15.8530 O.2   177  THR177     -0.2863
    104  CB       114.1920  133.7450   14.5550 C.3   177  THR177      0.1794
    105  OG1      114.3800  132.7690   15.5890 O.3   177  THR177     -0.2208
    106  CG2      113.4820  133.1030   13.3720 C.3   177  THR177      0.0378
    107  N        124.8860  141.4880    3.1180 N.3   220  PRO220     -0.2102
    108  CA       124.3930  140.1060    3.0970 C.3   220  PRO220      0.1504
    109  C        124.6280  139.4390    1.7470 C.2   220  PRO220      0.2576
    110  O        124.9690  140.1200    0.7800 O.2   220  PRO220     -0.2718
    111  CB       122.8940  140.2720    3.3490 C.3   220  PRO220      0.0282
    112  CG       122.5830  141.6520    2.8670 C.3   220  PRO220      0.0208
    113  CD       123.7890  142.4670    3.2100 C.3   220  PRO220      0.0893
    114  N        124.4420  138.1240    1.6870 N.am  221  GLY221     -0.1943
    115  CA       124.6460  137.3730    0.4600 C.3   221  GLY221      0.1998
    116  C        124.0730  135.9670    0.5170 C.2   221  GLY221      0.2481
    117  O        123.6510  135.5080    1.5780 O.2   221  GLY221     -0.2729
    118  N        124.0560  135.2710   -0.6310 N.am  222  PRO222     -0.2715
    119  CA       123.4990  133.9170   -0.7230 C.3   222  PRO222      0.1536
    120  C        124.4240  132.8520   -0.1380 C.2   222  PRO222      0.2599
    121  O        125.6440  132.9590   -0.2490 O.2   222  PRO222     -0.2715
    122  CB       123.3540  133.7080   -2.2300 C.3   222  PRO222      0.0310
    123  CG       124.4340  134.5440   -2.8200 C.3   222  PRO222      0.0237
    124  CD       124.5430  135.7570   -1.9350 C.3   222  PRO222      0.0939
    125  N        123.8310  131.8340    0.4760 N.am  223  HIS223     -0.1960
    126  CA       124.5760  130.7170    1.0480 C.3   223  HIS223      0.1787
    127  C        123.6990  129.4680    1.0360 C.2   223  HIS223      0.2620
    128  O        122.5080  129.5420    0.7270 O.2   223  HIS223     -0.2715
    129  CB       125.0070  131.0400    2.4760 C.3   223  HIS223      0.0785
    130  CG       123.8620  131.2860    3.4060 C.ar  223  HIS223      0.0821
    131  ND1      123.2960  130.2880    4.1670 N.ar  223  HIS223     -0.2267
    132  CD2      123.1640  132.4140    3.6860 C.ar  223  HIS223      0.1154
    133  CE1      122.3040  130.7890    4.8820 C.ar  223  HIS223      0.1986
    134  NE2      122.2040  132.0770    4.6080 N.ar  223  HIS223     -0.2212
    135  N        124.2800  128.3250    1.3800 N.am  224  LYS224     -0.1963
    136  CA       123.5490  127.0620    1.3190 C.3   224  LYS224      0.1728
    137  C        123.2060  126.5020    2.7000 C.2   224  LYS224      0.2616
    138  O        122.5880  125.4430    2.8090 O.2   224  LYS224     -0.2715
    139  CB       124.3430  126.0260    0.5180 C.3   224  LYS224      0.0311
    140  CG       124.7800  126.4930   -0.8660 C.3   224  LYS224      0.0038
    141  CD       125.6100  125.4240   -1.5740 C.3   224  LYS224      0.0206
    142  CE       126.3560  125.9890   -2.7810 C.3   224  LYS224      0.1093
    143  NZ       125.4480  126.4720   -3.8590 N.3   224  LYS224     -0.1314
    144  N        123.6100  127.2090    3.7500 N.am  225  ILE225     -0.1963
    145  CA       123.3570  126.7610    5.1170 C.3   225  ILE225      0.1727
    146  C        121.9190  127.0610    5.5300 C.2   225  ILE225      0.2616
    147  O        121.6450  128.0660    6.1890 O.2   225  ILE225     -0.2715
    148  CB       124.3260  127.4130    6.1150 C.3   225  ILE225      0.0290
    149  CG1      125.7450  127.4300    5.5450 C.3   225  ILE225      0.0022
    150  CG2      124.2900  126.6810    7.4440 C.3   225  ILE225      0.0023
    151  CD1      126.7800  127.9460    6.5170 C.3   225  ILE225      0.0001
    152  N        121.0080  126.1770    5.1350 N.am  226  GLN226     -0.1963
    153  CA       119.5800  126.3650    5.3660 C.3   226  GLN226      0.1733
    154  C        119.2520  126.4830    6.8460 C.2   226  GLN226      0.2617
    155  O        119.7160  125.6850    7.6580 O.2   226  GLN226     -0.2715
    156  CB       118.7970  125.2060    4.7520 C.3   226  GLN226      0.0408
    157  CG       117.2920  125.3360    4.8730 C.3   226  GLN226      0.0908
    158  CD       116.5540  124.2240    4.1530 C.2   226  GLN226      0.2608
    159  OE1      115.3250  124.1570    4.1890 O.2   226  GLN226     -0.2717
    160  NE2      117.3030  123.3460    3.4910 N.am  226  GLN226     -0.0878
    161  N        118.4530  127.4880    7.1920 N.am  227  GLY227     -0.1940
    162  CA       118.0330  127.6850    8.5650 C.3   227  GLY227      0.2014
    163  C        118.6300  128.9080    9.2360 C.2   227  GLY227      0.2639
    164  O        118.0600  129.4320   10.1930 O.2   227  GLY227     -0.2714
    165  N        119.7840  129.3580    8.7500 N.am  228  ILE228     -0.1963
    166  CA       120.4220  130.5570    9.2900 C.3   228  ILE228      0.1727
    167  C        120.7420  131.5480    8.1780 C.2   228  ILE228      0.2617
    168  O        120.3900  131.3250    7.0210 O.2   228  ILE228     -0.2715
    169  CB       121.7160  130.2290   10.0730 C.3   228  ILE228      0.0290
    170  CG1      122.7740  129.6150    9.1540 C.3   228  ILE228      0.0022
    171  CG2      121.4230  129.3060   11.2450 C.3   228  ILE228      0.0023
    172  CD1      124.1010  129.3790    9.8450 C.3   228  ILE228      0.0001
    173  N        121.4020  132.6460    8.5350 N.am  229  GLY229     -0.1940
    174  CA       121.7880  133.6570    7.5660 C.3   229  GLY229      0.2014
    175  C        120.6210  134.4080    6.9460 C.2   229  GLY229      0.2639
    176  O        120.4550  134.4120    5.7270 O.2   229  GLY229     -0.2714
    177  N        119.8220  135.0610    7.7860 N.am  230  ALA230     -0.1963
    178  CA       118.6490  135.7990    7.3180 C.3   230  ALA230      0.1728
    179  C        119.0040  137.0040    6.4470 C.2   230  ALA230      0.2617
    180  O        118.1650  137.5050    5.7010 O.2   230  ALA230     -0.2715
    181  CB       117.7900  136.2350    8.4920 C.3   230  ALA230      0.0334
    182  N        120.2420  137.4750    6.5510 N.am  231  GLY231     -0.1940
    183  CA       120.6780  138.6130    5.7650 C.3   231  GLY231      0.2014
    184  C        120.4350  139.9310    6.4720 C.2   231  GLY231      0.2638
    185  O        120.6860  141.0010    5.9190 O.2   231  GLY231     -0.2714
    186  N        119.9400  139.8510    7.7010 N.am  232  PHE232     -0.1973
    187  CA       119.6900  141.0350    8.5100 C.3   232  PHE232      0.1639
    188  C        119.7310  140.6650    9.9860 C.2   232  PHE232      0.2290
    189  O        119.8110  139.4900   10.3360 O.2   232  PHE232     -0.2864
    190  CB       118.3300  141.6540    8.1640 C.3   232  PHE232      0.0560
    191  CG       117.1580  140.7530    8.4540 C.ar  232  PHE232     -0.0200
    192  CD1      116.5390  140.7700    9.6950 C.ar  232  PHE232     -0.0042
    193  CD2      116.6750  139.8900    7.4840 C.ar  232  PHE232     -0.0042
    194  CE1      115.4660  139.9390    9.9630 C.ar  232  PHE232     -0.0003
    195  CE2      115.6000  139.0570    7.7450 C.ar  232  PHE232     -0.0003
    196  CZ       114.9960  139.0820    8.9860 C.ar  232  PHE232     -0.0000
    197  N        121.9360  120.5310    7.7690 N.3   270  ILE270     -0.1245
    198  CA       123.0360  121.3100    7.2160 C.3   270  ILE270      0.1561
    199  C        123.5600  122.3350    8.2130 C.2   270  ILE270      0.2260
    200  O        124.7690  122.4540    8.4090 O.2   270  ILE270     -0.2867
    201  CB       122.6280  122.0190    5.9210 C.3   270  ILE270      0.0252
    202  CG1      122.1200  120.9960    4.9030 C.3   270  ILE270      0.0019
    203  CG2      123.8020  122.8040    5.3560 C.3   270  ILE270      0.0019
    204  CD1      121.6370  121.6050    3.6110 C.3   270  ILE270      0.0001
@<TRIPOS>BOND
     1    45    44    1
     2    41    40    1
     3    41    44    1
     4    41    42    1
     5    44    46    1
     6    43    42    2
     7    47    48    1
     8   143   142    1
     9    35    34    1
    10    35    36    2
    11    37    34    1
    12    37    38    1
    13    48    49    1
    14    34    33    1
    15   123   122    1
    16   123   124    1
    17   142   141    1
    18   122   119    1
    19    50    49    2
    20    38    39    1
    21    49    51   am
    22   124   118    1
    23    33    39    1
    24   141   140    1
    25   140   139    1
    26    51    52    1
    27   119   118    1
    28   119   120    1
    29    63    60    1
    30    63    64    1
    31   118   116   am
    32    61    62    2
    33    61    60    1
    34   121   120    2
    35   120   125   am
    36    59    60    1
    37    59    53   am
    38    64    65    1
    39    52    53    1
    40    52    55    1
    41   115   116    1
    42   115   114    1
    43   125   126    1
    44   116   117    2
    45   139   136    1
    46    53    54    2
    47   128   127    2
    48   110   109    2
    49   127   126    1
    50   127   135   am
    51   126   129    1
    52   136   135    1
    53   136   137    1
    54    65    66    1
    55    55    56    1
    56   114   109   am
    57   109   108    1
    58    68    69    1
    59    56    57    1
    60    66    67    1
    61   129   130    1
    62    70    69    1
    63    70    71    2
    64    12    13    1
    65    12     9    1
    66   137   138    2
    67   137   144   am
    68    57    58    1
    69   112   113    1
    70   112   111    1
    71    69    72    1
    72   108   107    1
    73   108   111    1
    74   107   113    1
    75   130   132   ar
    76   130   131   ar
    77   160   158   am
    78   204   202    1
    79    72    73    1
    80    72    74    1
    81   132   134   ar
    82   144   145    1
    83     9    10    1
    84     9     8    1
    85    11    10    2
    86    73    75    1
    87   158   159    2
    88   158   157    1
    89   131   133   ar
    90     4     3    2
    91    10    14   am
    92   134   133   ar
    93     8     3   am
    94   156   157    1
    95   156   153    1
    96   202   201    1
    97     3     2    1
    98   145   146    1
    99   145   148    1
   100   152   153    1
   101   152   146   am
   102   203   201    1
   103   153   154    1
   104     1     2    1
   105   146   147    2
   106   149   148    1
   107   149   151    1
   108   180   179    2
   109   176   175    2
   110   183   184    1
   111   183   182    1
   112    14    15    1
   113   185   184    2
   114   201   198    1
   115     2     5    1
   116   148   150    1
   117   179   182   am
   118   179   178    1
   119   184   186   am
   120    15    16    1
   121   154   161   am
   122   154   155    2
   123   175   174    1
   124   175   177   am
   125   168   167    2
   126   161   162    1
   127   198   197    1
   128   198   199    1
   129    17    16    2
   130     5     7    1
   131     5     6    1
   132   178   177    1
   133   178   181    1
   134   193   195   ar
   135   193   191   ar
   136    16    18   am
   137   174   173    1
   138   186   187    1
   139   195   196   ar
   140   190   191    1
   141   190   187    1
   142   167   173   am
   143   167   166    1
   144   199   200    2
   145   191   192   ar
   146   187   188    1
   147   162   163    1
   148    24    23    2
   149    18    19    1
   150   165   163   am
   151   165   166    1
   152   196   194   ar
   153   170   172    1
   154   170   169    1
   155   163   164    2
   156   166   169    1
   157    95    94   ar
   158    95    93   ar
   159    94    92   ar
   160    19    20    1
   161    19    22    1
   162   192   194   ar
   163    23    25   am
   164    23    22    1
   165    84    82   am
   166   188   189    2
   167   169   171    1
   168    93    91   ar
   169    26    20   am
   170    26    27    1
   171    92    90   ar
   172    20    21    2
   173    28    27    1
   174    28    29    2
   175    30    27    1
   176    30    32    1
   177    30    31    1
   178    82    83    2
   179    82    81    1
   180    91    90   ar
   181    90    89    1
   182    81    80    1
   183    99    98    2
   184    97    98    1
   185    97    96    1
   186    89    86    1
   187    98   100   am
   188    76    77    1
   189    80    77    1
   190   106   104    1
   191   100   101    1
   192    85    86    1
   193    85    78   am
   194    86    87    1
   195    77    78    1
   196   101   104    1
   197   101   102    1
   198    78    79    2
   199   104   105    1
   200    87    88    2
   201   102   103    2
