@<TRIPOS>MOLECULE
tmp/4li4A00.pdb
 155 153 0 0 0
SMALL
GASTEIGER

@<TRIPOS>ATOM
      1  N         10.3540   28.4430   -4.5900 N.3     2  PHE2       -0.1241
      2  CA        10.8920   29.5730   -3.8370 C.3     2  PHE2        0.1605
      3  C         12.3750   29.4570   -3.5940 C.2     2  PHE2        0.2264
      4  O         12.8660   28.4320   -3.1290 O.2     2  PHE2       -0.2867
      5  CB        10.1820   29.7000   -2.4910 C.3     2  PHE2        0.0534
      6  CG         8.7330   29.9610   -2.6230 C.ar    2  PHE2       -0.0203
      7  CD1        7.8790   28.9410   -2.9790 C.ar    2  PHE2       -0.0042
      8  CD2        8.2220   31.2310   -2.4180 C.ar    2  PHE2       -0.0042
      9  CE1        6.5640   29.1800   -3.1400 C.ar    2  PHE2       -0.0003
     10  CE2        6.8820   31.4720   -2.5630 C.ar    2  PHE2       -0.0003
     11  CZ         6.0540   30.4500   -2.9230 C.ar    2  PHE2       -0.0000
     12  N          9.1840   30.3320    1.9850 N.3     6  PRO6       -0.2102
     13  CA         7.9430   31.0640    2.2230 C.3     6  PRO6        0.1504
     14  C          7.3650   30.8040    3.6060 C.2     6  PRO6        0.2576
     15  O          7.7950   29.8800    4.3030 O.2     6  PRO6       -0.2718
     16  CB         6.9960   30.4700    1.1670 C.3     6  PRO6        0.0282
     17  CG         7.4700   29.0690    1.0030 C.3     6  PRO6        0.0208
     18  CD         8.9720   29.1360    1.1430 C.3     6  PRO6        0.0893
     19  N          6.3980   31.6160    4.0050 N.am    7  TYR7       -0.1963
     20  CA         5.5450   31.2510    5.1240 C.3     7  TYR7        0.1771
     21  C          4.6160   30.1860    4.5730 C.2     7  TYR7        0.2620
     22  O          4.1180   30.3090    3.4450 O.2     7  TYR7       -0.2715
     23  CB         4.7470   32.4550    5.6440 C.3     7  TYR7        0.0574
     24  CG         5.6180   33.5060    6.2760 C.ar    7  TYR7       -0.0198
     25  CD1        6.0980   34.5710    5.5230 C.ar    7  TYR7       -0.0009
     26  CD2        5.9710   33.4300    7.6140 C.ar    7  TYR7       -0.0009
     27  CE1        6.9020   35.5270    6.0860 C.ar    7  TYR7        0.0417
     28  CE2        6.7900   34.3860    8.1870 C.ar    7  TYR7        0.0417
     29  CZ         7.2490   35.4280    7.4140 C.ar    7  TYR7        0.1957
     30  OH         8.0570   36.3870    7.9780 O.3     7  TYR7       -0.2866
     31  N          4.4210   29.1140    5.3300 N.am    8  TYR8       -0.1960
     32  CA         3.5890   28.0330    4.8270 C.3     8  TYR8        0.1771
     33  C          2.1140   28.2420    5.1580 C.2     8  TYR8        0.2620
     34  O          1.7410   28.6300    6.2690 O.2     8  TYR8       -0.2715
     35  CB         4.1140   26.6460    5.2240 C.3     8  TYR8        0.0574
     36  CG         5.3580   26.2620    4.4500 C.ar    8  TYR8       -0.0198
     37  CD1        6.6040   26.7470    4.8300 C.ar    8  TYR8       -0.0009
     38  CD2        5.2890   25.4360    3.3330 C.ar    8  TYR8       -0.0009
     39  CE1        7.7490   26.4130    4.1300 C.ar    8  TYR8        0.0417
     40  CE2        6.4400   25.0900    2.6260 C.ar    8  TYR8        0.0417
     41  CZ         7.6640   25.5910    3.0340 C.ar    8  TYR8        0.1957
     42  OH         8.8200   25.2690    2.3510 O.3     8  TYR8       -0.2866
     43  N          1.3040   28.0680    4.1270 N.am    9  SER9       -0.1950
     44  CA        -0.1510   28.1850    4.1740 C.3     9  SER9        0.1924
     45  C         -0.6830   26.8570    4.6770 C.2     9  SER9        0.2314
     46  O         -0.1100   25.8190    4.3750 O.2     9  SER9       -0.2863
     47  CB        -0.6590   28.4050    2.7530 C.3     9  SER9        0.2116
     48  OG        -2.0710   28.2750    2.6420 O.3     9  SER9       -0.2180
     49  N         -3.2000   25.5660    3.4510 N.3    11  PHE11      -0.1227
     50  CA        -4.0170   25.0570    2.3480 C.3    11  PHE11       0.1736
     51  C         -3.3230   25.0030    0.9990 C.2    11  PHE11       0.2596
     52  O         -2.3050   25.6660    0.7770 O.2    11  PHE11      -0.2718
     53  CB        -5.2900   25.9090    2.2140 C.3    11  PHE11       0.0547
     54  CG        -6.0760   26.0110    3.4870 C.ar   11  PHE11      -0.0202
     55  CD1       -7.0120   25.0260    3.8210 C.ar   11  PHE11      -0.0042
     56  CD2       -5.8730   27.0710    4.3600 C.ar   11  PHE11      -0.0042
     57  CE1       -7.7330   25.1080    5.0140 C.ar   11  PHE11      -0.0003
     58  CE2       -6.5980   27.1700    5.5400 C.ar   11  PHE11      -0.0003
     59  CZ        -7.5300   26.1870    5.8670 C.ar   11  PHE11      -0.0000
     60  N         -3.8930   24.2180    0.0850 N.am   12  SER12      -0.1938
     61  CA        -3.3540   24.1540   -1.2740 C.3    12  SER12       0.2055
     62  C         -3.6470   25.4790   -1.9600 C.2    12  SER12       0.2643
     63  O         -4.5570   26.2180   -1.5470 O.2    12  SER12      -0.2714
     64  CB        -3.9870   22.9980   -2.0500 C.3    12  SER12       0.2130
     65  OG        -5.3910   23.1360   -2.1170 O.3    12  SER12      -0.2179
     66  N         -2.8980   25.7930   -3.0120 N.am   13  GLY13      -0.1954
     67  CA        -3.0550   27.0780   -3.6860 C.3    13  GLY13       0.1869
     68  C         -4.1760   27.1010   -4.7020 C.2    13  GLY13       0.2309
     69  O         -4.7680   26.0650   -5.0350 O.2    13  GLY13      -0.2863
     70  N         -2.8230   35.4310   -0.7780 N.3    47  TYR47      -0.1241
     71  CA        -1.6070   36.1530   -1.1590 C.3    47  TYR47       0.1605
     72  C         -1.1420   35.6340   -2.4930 C.2    47  TYR47       0.2264
     73  O         -0.9920   34.4210   -2.6770 O.2    47  TYR47      -0.2867
     74  CB        -0.5210   35.9220   -0.1140 C.3    47  TYR47       0.0534
     75  CG         0.7700   36.6340   -0.4330 C.ar   47  TYR47      -0.0201
     76  CD1        0.8030   38.0140   -0.5660 C.ar   47  TYR47      -0.0009
     77  CD2        1.9430   35.9330   -0.5860 C.ar   47  TYR47      -0.0009
     78  CE1        1.9880   38.6760   -0.8540 C.ar   47  TYR47       0.0417
     79  CE2        3.1290   36.5860   -0.8820 C.ar   47  TYR47       0.0417
     80  CZ         3.1410   37.9530   -1.0050 C.ar   47  TYR47       0.1957
     81  OH         4.3160   38.6200   -1.2900 O.3    47  TYR47      -0.2866
     82  N          1.3120   34.6810   -5.3310 N.3    49  HIS49      -0.1241
     83  CA         2.6880   34.3820   -5.7020 C.3    49  HIS49       0.1621
     84  C          2.8650   34.5210   -7.2170 C.2    49  HIS49       0.2264
     85  O          2.3030   33.7310   -7.9840 O.2    49  HIS49      -0.2867
     86  CB         3.0360   32.9680   -5.2420 C.3    49  HIS49       0.0745
     87  CG         4.4310   32.5590   -5.5860 C.ar   49  HIS49       0.0817
     88  ND1        5.5070   33.4180   -5.4860 N.ar   49  HIS49      -0.2268
     89  CD2        4.9270   31.3850   -6.0370 C.ar   49  HIS49       0.1154
     90  CE1        6.6050   32.7870   -5.8570 C.ar   49  HIS49       0.1986
     91  NE2        6.2800   31.5510   -6.1970 N.ar   49  HIS49      -0.2212
     92  N         -0.2340   32.0860   -8.6510 N.3    64  ARG64      -0.1245
     93  CA        -0.8970   31.1360   -7.7690 C.3    64  ARG64       0.1563
     94  C         -1.1160   31.7880   -6.4090 C.2    64  ARG64       0.2260
     95  O         -0.1890   32.3890   -5.8500 O.2    64  ARG64      -0.2867
     96  CB        -0.0410   29.8820   -7.6060 C.3    64  ARG64       0.0307
     97  CG        -0.6150   28.8740   -6.6100 C.3    64  ARG64       0.0489
     98  CD         0.2300   27.6190   -6.6220 C.3    64  ARG64       0.2205
     99  NE        -0.0180   26.8270   -7.8180 N.pl3  64  ARG64      -0.0865
    100  CZ         0.8540   25.9630   -8.3180 C.cat  64  ARG64       0.5346
    101  NH1        2.0330   25.8180   -7.7340 N.pl3  64  ARG64       0.1354
    102  NH2        0.5550   25.2680   -9.4030 N.pl3  64  ARG64       0.1354
    103  N         -2.2420   31.8230   -2.2770 N.3    66  TYR66      -0.1241
    104  CA        -2.2130   30.9760   -1.0940 C.3    66  TYR66       0.1605
    105  C         -2.9000   31.6730    0.0790 C.2    66  TYR66       0.2264
    106  O         -2.7600   32.8900    0.2490 O.2    66  TYR66      -0.2867
    107  CB        -0.7650   30.6780   -0.7080 C.3    66  TYR66       0.0534
    108  CG        -0.0390   29.7170   -1.6300 C.ar   66  TYR66      -0.0201
    109  CD1       -0.2400   28.3560   -1.5260 C.ar   66  TYR66      -0.0009
    110  CD2        0.8410   30.1750   -2.5830 C.ar   66  TYR66      -0.0009
    111  CE1        0.4320   27.4620   -2.3550 C.ar   66  TYR66       0.0417
    112  CE2        1.5270   29.2860   -3.4180 C.ar   66  TYR66       0.0417
    113  CZ         1.3000   27.9380   -3.3010 C.ar   66  TYR66       0.1957
    114  OH         1.9810   27.0630   -4.1310 O.3    66  TYR66      -0.2866
    115  N         -3.6920   32.6730    4.0290 N.3    68  TYR68      -0.1241
    116  CA        -3.1200   32.8730    5.3530 C.3    68  TYR68       0.1605
    117  C         -4.1810   33.4000    6.3130 C.2    68  TYR68       0.2264
    118  O         -4.9230   34.3500    5.9880 O.2    68  TYR68      -0.2867
    119  CB        -1.9570   33.8550    5.2730 C.3    68  TYR68       0.0534
    120  CG        -0.8190   33.2720    4.4810 C.ar   68  TYR68      -0.0201
    121  CD1        0.0830   32.4130    5.0830 C.ar   68  TYR68      -0.0009
    122  CD2       -0.6890   33.5340    3.1300 C.ar   68  TYR68      -0.0009
    123  CE1        1.1130   31.8690    4.3700 C.ar   68  TYR68       0.0417
    124  CE2        0.3430   32.9860    2.4020 C.ar   68  TYR68       0.0417
    125  CZ         1.2410   32.1470    3.0340 C.ar   68  TYR68       0.1957
    126  OH         2.2770   31.5900    2.3010 O.3    68  TYR68      -0.2866
    127  N          1.6000   26.3250    9.9400 N.3   106  ARG106     -0.1245
    128  CA         1.8330   24.9250    9.5650 C.3   106  ARG106      0.1563
    129  C          3.3170   24.6340    9.2740 C.2   106  ARG106      0.2260
    130  O          4.0420   25.5330    8.8570 O.2   106  ARG106     -0.2867
    131  CB         0.9710   24.5440    8.3510 C.3   106  ARG106      0.0307
    132  CG         1.3480   23.2040    7.7240 C.3   106  ARG106      0.0489
    133  CD         0.4430   22.7580    6.6060 C.3   106  ARG106      0.2205
    134  NE         0.8030   23.3360    5.3150 N.pl3 106  ARG106     -0.0865
    135  CZ         1.7320   22.8440    4.5040 C.cat 106  ARG106      0.5346
    136  NH1        2.4310   21.7640    4.8520 N.pl3 106  ARG106      0.1354
    137  NH2        1.9630   23.4310    3.3400 N.pl3 106  ARG106      0.1354
    138  N         -0.4400   20.1200    3.7640 N.3   113  ALA113     -0.1245
    139  CA        -1.4800   21.1080    3.4800 C.3   113  ALA113      0.1562
    140  C         -2.8130   20.4590    3.2450 C.2   113  ALA113      0.2260
    141  O         -2.9010   19.3860    2.6710 O.2   113  ALA113     -0.2867
    142  CB        -1.1380   21.9220    2.3020 C.3   113  ALA113      0.0290
    143  N         -6.0300   23.8660   -6.5680 N.3   131  GLU131     -0.1231
    144  CA        -5.1250   22.7320   -6.5250 C.3   131  GLU131      0.1699
    145  C         -5.6430   21.6750   -5.5590 C.2   131  GLU131      0.2592
    146  O         -6.2040   21.9930   -4.5080 O.2   131  GLU131     -0.2718
    147  CB        -3.7290   23.1960   -6.1480 C.3   131  GLU131      0.0402
    148  CG        -3.1680   24.2350   -7.1210 C.3   131  GLU131      0.1161
    149  CD        -2.6600   23.6270   -8.4130 C.2   131  GLU131      0.3649
    150  OE1       -2.3760   24.3860   -9.3640 O.co2 131  GLU131     -0.2457
    151  OE2       -2.5220   22.3900   -8.4720 O.co2 131  GLU131     -0.2457
    152  N         -5.4780   20.4120   -5.9360 N.am  132  GLY132     -0.1957
    153  CA        -6.0330   19.3200   -5.1620 C.3   132  GLY132      0.1869
    154  C         -7.3760   18.8610   -5.7050 C.2   132  GLY132      0.2309
    155  O         -7.7470   17.6950   -5.5560 O.2   132  GLY132     -0.2863
@<TRIPOS>BOND
     1   102   100    1
     2   150   149   ar
     3    92    93    1
     4   151   149   ar
     5   149   148    1
     6   100    99    2
     7   100   101    1
     8    85    84    2
     9    99    98    1
    10    93    96    1
    11    93    94    1
    12    96    97    1
    13    84    83    1
    14   148   147    1
    15    98    97    1
    16   143   144    1
    17   144   147    1
    18   144   145    1
    19    94    95    2
    20    91    89   ar
    21    91    90   ar
    22    89    87   ar
    23   152   145   am
    24   152   153    1
    25    90    88   ar
    26   154   155    2
    27   154   153    1
    28    83    82    1
    29    83    86    1
    30    87    88   ar
    31    87    86    1
    32   145   146    2
    33    69    68    2
    34    68    67    1
    35     1     2    1
    36   114   113    1
    37     2     3    1
    38     2     5    1
    39    67    66    1
    40     3     4    2
    41   112   113   ar
    42   112   110   ar
    43   113   111   ar
    44     9     7   ar
    45     9    11   ar
    46    66    62   am
    47     7     6   ar
    48    11    10   ar
    49    73    72    2
    50     6     5    1
    51     6     8   ar
    52   110   108   ar
    53    10     8   ar
    54    72    71    1
    55   111   109   ar
    56   103   104    1
    57    65    64    1
    58    64    61    1
    59    62    63    2
    60    62    61    1
    61   108   109   ar
    62   108   107    1
    63    81    80    1
    64    61    60    1
    65    71    70    1
    66    71    74    1
    67   104   107    1
    68   104   105    1
    69    80    79   ar
    70    80    78   ar
    71    79    77   ar
    72    78    76   ar
    73    77    75   ar
    74    76    75   ar
    75    75    74    1
    76   105   106    2
    77    60    51   am
    78    52    51    2
    79    51    50    1
    80    17    18    1
    81    17    16    1
    82    18    12    1
    83    16    13    1
    84    12    13    1
    85    53    50    1
    86    53    54    1
    87    13    14    1
    88   126   125    1
    89   142   139    1
    90    50    49    1
    91    42    41    1
    92   124   125   ar
    93   124   122   ar
    94    40    41   ar
    95    40    38   ar
    96    48    47    1
    97   141   140    2
    98    47    44    1
    99    41    39   ar
   100   125   123   ar
   101   122   120   ar
   102   140   139    1
   103    38    36   ar
   104   137   135    1
   105    22    21    2
   106   139   138    1
   107    54    55   ar
   108    54    56   ar
   109    14    19   am
   110    14    15    2
   111    55    57   ar
   112    19    20    1
   113   115   116    1
   114    43    44    1
   115    43    33   am
   116    39    37   ar
   117    44    45    1
   118    56    58   ar
   119   123   121   ar
   120    46    45    2
   121    36    37   ar
   122    36    35    1
   123   120   121   ar
   124   120   119    1
   125   135   136    1
   126   135   134    2
   127    21    20    1
   128    21    31   am
   129    32    33    1
   130    32    35    1
   131    32    31    1
   132    57    59   ar
   133    20    23    1
   134    33    34    2
   135   119   116    1
   136   134   133    1
   137   116   117    1
   138    25    27   ar
   139    25    24   ar
   140    58    59   ar
   141    23    24    1
   142   118   117    2
   143    27    29   ar
   144    24    26   ar
   145   133   132    1
   146    29    30    1
   147    29    28   ar
   148    26    28   ar
   149   132   131    1
   150   131   128    1
   151   130   129    2
   152   129   128    1
   153   128   127    1
