@<TRIPOS>MOLECULE
tmp/4li5A00.pdb
 184 174 0 0 0
SMALL
GASTEIGER

@<TRIPOS>ATOM
      1  N         45.1980   -8.0010  -17.3790 N.3    24  LYS24      -0.1245
      2  CA        44.3380   -6.8780  -17.0060 C.3    24  LYS24       0.1561
      3  C         44.5870   -5.6600  -17.8970 C.2    24  LYS24       0.2260
      4  O         45.6290   -5.5450  -18.5390 O.2    24  LYS24      -0.2867
      5  CB        44.5160   -6.5040  -15.5190 C.3    24  LYS24       0.0271
      6  CG        45.9240   -6.0710  -15.1120 C.3    24  LYS24       0.0035
      7  CD        45.9920   -5.7650  -13.6210 C.3    24  LYS24       0.0206
      8  CE        47.3910   -5.3430  -13.2030 C.3    24  LYS24       0.1093
      9  NZ        47.4600   -4.9910  -11.7580 N.3    24  LYS24      -0.1314
     10  N         45.6710   -1.9930  -18.4150 N.3    26  LEU26      -0.1231
     11  CA        46.5300   -1.0080  -17.7520 C.3    26  LEU26       0.1693
     12  C         46.0010    0.4010  -17.9740 C.2    26  LEU26       0.2593
     13  O         46.0610    1.2460  -17.0840 O.2    26  LEU26      -0.2718
     14  CB        47.9610   -1.0910  -18.2820 C.3    26  LEU26       0.0284
     15  CG        48.7350   -2.3740  -17.9900 C.3    26  LEU26       0.0019
     16  CD1       50.0430   -2.3980  -18.7790 C.3    26  LEU26       0.0001
     17  CD2       48.9970   -2.5160  -16.4960 C.3    26  LEU26       0.0001
     18  N         45.4950    0.6580  -19.1720 N.am   27  GLY27      -0.1942
     19  CA        44.9790    1.9720  -19.5050 C.3    27  GLY27       0.2014
     20  C         44.1990    1.9600  -20.7960 C.2    27  GLY27       0.2639
     21  O         44.3570    1.0620  -21.6200 O.2    27  GLY27      -0.2714
     22  N         43.3520    2.9680  -20.9640 N.am   28  SER28      -0.1949
     23  CA        42.5220    3.0870  -22.1510 C.3    28  SER28       0.1924
     24  C         41.8840    4.4640  -22.2330 C.2    28  SER28       0.2314
     25  O         41.7680    5.1700  -21.2310 O.2    28  SER28      -0.2863
     26  CB        41.4210    2.0290  -22.1390 C.3    28  SER28       0.2116
     27  OG        40.7220    2.0550  -20.9100 O.3    28  SER28      -0.2180
     28  N         42.9020    6.8960  -27.5000 N.3    31  PHE31      -0.1241
     29  CA        44.0020    6.2300  -28.2120 C.3    31  PHE31       0.1605
     30  C         43.7060    4.7560  -28.5100 C.2    31  PHE31       0.2264
     31  O         44.0720    4.2530  -29.5770 O.2    31  PHE31      -0.2867
     32  CB        45.3250    6.3540  -27.4240 C.3    31  PHE31       0.0534
     33  CG        45.3820    5.5060  -26.1720 C.ar   31  PHE31      -0.0203
     34  CD1       44.8410    5.9650  -24.9680 C.ar   31  PHE31      -0.0042
     35  CD2       45.9750    4.2490  -26.1990 C.ar   31  PHE31      -0.0042
     36  CE1       44.8890    5.1800  -23.8170 C.ar   31  PHE31      -0.0003
     37  CE2       46.0270    3.4630  -25.0590 C.ar   31  PHE31      -0.0003
     38  CZ        45.4850    3.9290  -23.8630 C.ar   31  PHE31      -0.0000
     39  N         45.6290   -0.5640  -23.5830 N.3    34  VAL34      -0.1245
     40  CA        46.8330   -1.3300  -23.2890 C.3    34  VAL34       0.1561
     41  C         46.5280   -2.3690  -22.2100 C.2    34  VAL34       0.2260
     42  O         45.9400   -2.0500  -21.1710 O.2    34  VAL34      -0.2867
     43  CB        47.9970   -0.4220  -22.8370 C.3    34  VAL34       0.0252
     44  CG1       49.2650   -1.2320  -22.6270 C.3    34  VAL34       0.0019
     45  CG2       48.2490    0.6560  -23.8670 C.3    34  VAL34       0.0019
     46  N         48.1050   -5.5280  -19.6900 N.3    36  LYS36      -0.1245
     47  CA        49.2070   -6.2760  -19.1030 C.3    36  LYS36       0.1561
     48  C         49.0050   -7.7110  -19.5640 C.2    36  LYS36       0.2260
     49  O         47.8730   -8.1800  -19.6460 O.2    36  LYS36      -0.2867
     50  CB        49.1570   -6.1810  -17.5690 C.3    36  LYS36       0.0271
     51  CG        50.1160   -7.1020  -16.8030 C.3    36  LYS36       0.0035
     52  CD        49.8750   -7.0420  -15.2810 C.3    36  LYS36       0.0206
     53  CE        50.9430   -7.8290  -14.5300 C.3    36  LYS36       0.1093
     54  NZ        50.7160   -7.8000  -13.0590 N.3    36  LYS36      -0.1314
     55  N         53.3400   -5.7220  -22.4200 N.3    51  ALA51      -0.1245
     56  CA        52.2010   -4.8450  -22.6180 C.3    51  ALA51       0.1562
     57  C         51.6870   -5.0990  -24.0260 C.2    51  ALA51       0.2260
     58  O         52.4750   -5.2600  -24.9590 O.2    51  ALA51      -0.2867
     59  CB        52.6100   -3.4020  -22.4580 C.3    51  ALA51       0.0290
     60  N         49.3150   -3.4960  -26.8700 N.3    53  LYS53      -0.1245
     61  CA        48.6610   -2.2390  -27.2450 C.3    53  LYS53       0.1561
     62  C         47.6760   -2.4360  -28.4100 C.2    53  LYS53       0.2260
     63  O         48.0740   -2.7920  -29.5150 O.2    53  LYS53      -0.2867
     64  CB        49.7150   -1.1640  -27.5640 C.3    53  LYS53       0.0271
     65  CG        49.1430    0.1630  -28.0750 C.3    53  LYS53       0.0035
     66  CD        49.8090    1.3890  -27.4440 C.3    53  LYS53       0.0206
     67  CE        51.1710    1.6770  -28.0380 C.3    53  LYS53       0.1093
     68  NZ        51.8150    2.8720  -27.4180 N.3    53  LYS53      -0.1314
     69  N         61.7890    2.2320  -25.5410 N.3    83  CYS83      -0.1235
     70  CA        61.0140    0.9950  -25.5470 C.3    83  CYS83       0.1677
     71  C         61.1960    0.2450  -26.8490 C.2    83  CYS83       0.2270
     72  O         61.2930    0.8400  -27.9140 O.2    83  CYS83      -0.2867
     73  CB        59.5350    1.2790  -25.3350 C.3    83  CYS83       0.0956
     74  SG        59.2160    1.8560  -23.6940 S.3    83  CYS83      -0.0801
     75  N         55.1500   -5.2240  -26.4690 N.3    98  THR98      -0.1203
     76  CA        56.3700   -4.6380  -25.9460 C.3    98  THR98       0.1994
     77  C         56.5970   -5.1260  -24.5140 C.2    98  THR98       0.2618
     78  O         55.7330   -5.7840  -23.9220 O.2    98  THR98      -0.2717
     79  CB        56.2820   -3.1040  -25.9290 C.3    98  THR98       0.1784
     80  OG1       55.1710   -2.6990  -25.1270 O.3    98  THR98      -0.2211
     81  CG2       56.0980   -2.5480  -27.3330 C.3    98  THR98       0.0376
     82  N         57.7710   -4.7960  -23.9770 N.am   99  GLN99      -0.1965
     83  CA        58.1370   -5.1140  -22.6040 C.3    99  GLN99       0.1733
     84  C         57.1810   -4.4140  -21.6450 C.2    99  GLN99       0.2616
     85  O         56.8630   -3.2440  -21.8290 O.2    99  GLN99      -0.2715
     86  CB        59.5770   -4.6520  -22.3430 C.3    99  GLN99       0.0408
     87  CG        60.1150   -4.9300  -20.9440 C.3    99  GLN99       0.0908
     88  CD        61.5390   -4.4240  -20.7450 C.2    99  GLN99       0.2608
     89  OE1       61.9170   -3.3720  -21.2600 O.2    99  GLN99      -0.2717
     90  NE2       62.3300   -5.1680  -19.9810 N.am   99  GLN99      -0.0878
     91  N         56.7110   -5.1370  -20.6340 N.am  100  LEU100     -0.1963
     92  CA        55.9540   -4.5240  -19.5540 C.3   100  LEU100      0.1728
     93  C         56.8880   -3.7080  -18.6620 C.2   100  LEU100      0.2616
     94  O         57.9360   -4.1950  -18.2420 O.2   100  LEU100     -0.2715
     95  CB        55.2540   -5.5840  -18.7080 C.3   100  LEU100      0.0311
     96  CG        54.4530   -5.0480  -17.5170 C.3   100  LEU100      0.0022
     97  CD1       53.3170   -4.1380  -17.9850 C.3   100  LEU100      0.0001
     98  CD2       53.9170   -6.2030  -16.6840 C.3   100  LEU100      0.0001
     99  N         56.4930   -2.4710  -18.3730 N.am  101  MET101     -0.1964
    100  CA        57.2710   -1.5780  -17.5270 C.3   101  MET101      0.1722
    101  C         56.5300   -1.5030  -16.2110 C.2   101  MET101      0.2458
    102  O         55.5880   -0.7290  -16.0880 O.2   101  MET101     -0.2730
    103  CB        57.3900   -0.2040  -18.1810 C.3   101  MET101      0.0427
    104  CG        57.9640   -0.2620  -19.5960 C.3   101  MET101      0.0599
    105  SD        59.6700   -0.8390  -19.6340 S.3   101  MET101     -0.1393
    106  CE        60.5150    0.6960  -19.3220 C.3   101  MET101      0.0692
    107  N         56.9610   -2.3060  -15.2160 N.am  102  PRO102     -0.2716
    108  CA        56.1270   -2.6150  -14.0440 C.3   102  PRO102      0.1536
    109  C         55.7300   -1.4400  -13.1550 C.2   102  PRO102      0.2599
    110  O         54.7680   -1.5570  -12.4060 O.2   102  PRO102     -0.2715
    111  CB        56.9860   -3.6020  -13.2390 C.3   102  PRO102      0.0310
    112  CG        58.0590   -4.0520  -14.1470 C.3   102  PRO102      0.0237
    113  CD        58.2810   -2.9580  -15.1260 C.3   102  PRO102      0.0939
    114  N         56.4570   -0.3310  -13.2270 N.am  103  PHE103     -0.1960
    115  CA        56.1880    0.8220  -12.3630 C.3   103  PHE103      0.1771
    116  C         55.3470    1.9100  -13.0370 C.2   103  PHE103      0.2620
    117  O         55.0670    2.9490  -12.4310 O.2   103  PHE103     -0.2715
    118  CB        57.5080    1.4120  -11.8550 C.3   103  PHE103      0.0574
    119  CG        58.2360    0.5120  -10.9120 C.ar  103  PHE103     -0.0200
    120  CD1       59.1110   -0.4490  -11.3930 C.ar  103  PHE103     -0.0042
    121  CD2       58.0340    0.6110   -9.5410 C.ar  103  PHE103     -0.0042
    122  CE1       59.7840   -1.3020  -10.5240 C.ar  103  PHE103     -0.0003
    123  CE2       58.7040   -0.2290   -8.6620 C.ar  103  PHE103     -0.0003
    124  CZ        59.5810   -1.1930   -9.1540 C.ar  103  PHE103     -0.0000
    125  N         54.9450    1.6760  -14.2820 N.am  104  GLY104     -0.1940
    126  CA        54.0520    2.5920  -14.9770 C.3   104  GLY104      0.2014
    127  C         54.7560    3.7850  -15.5830 C.2   104  GLY104      0.2639
    128  O         55.9730    3.7870  -15.7180 O.2   104  GLY104     -0.2714
    129  N         53.9860    4.7960  -15.9710 N.am  105  CYS105     -0.1967
    130  CA        54.5610    5.9830  -16.5810 C.3   105  CYS105      0.1712
    131  C         55.1490    6.9000  -15.5240 C.2   105  CYS105      0.2296
    132  O         54.6810    6.9530  -14.3890 O.2   105  CYS105     -0.2864
    133  CB        53.5190    6.7460  -17.3860 C.3   105  CYS105      0.0983
    134  SG        52.0600    7.2140  -16.4380 S.3   105  CYS105     -0.0798
    135  N         55.0250   10.0790  -15.1760 N.3   107  LEU107     -0.1231
    136  CA        54.1040   11.1150  -14.6930 C.3   107  LEU107      0.1693
    137  C         53.3090   10.6540  -13.4770 C.2   107  LEU107      0.2592
    138  O         53.2600   11.3510  -12.4760 O.2   107  LEU107     -0.2718
    139  CB        53.1310   11.5440  -15.7900 C.3   107  LEU107      0.0284
    140  CG        52.0710   12.5680  -15.3640 C.3   107  LEU107      0.0019
    141  CD1       52.7320   13.8770  -14.9560 C.3   107  LEU107      0.0001
    142  CD2       51.0450   12.8040  -16.4690 C.3   107  LEU107      0.0001
    143  N         52.6600    9.4980  -13.5820 N.am  108  ASP108     -0.1974
    144  CA        51.8960    8.9380  -12.4670 C.3   108  ASP108      0.1709
    145  C         52.8110    8.5490  -11.3150 C.2   108  ASP108      0.2293
    146  O         52.4110    8.6030  -10.1500 O.2   108  ASP108     -0.2864
    147  CB        51.0890    7.7150  -12.9130 C.3   108  ASP108      0.1436
    148  CG        49.9050    8.0750  -13.8060 C.2   108  ASP108      0.3671
    149  OD1       49.6040    9.2730  -13.9880 O.co2 108  ASP108     -0.2456
    150  OD2       49.2650    7.1440  -14.3310 O.co2 108  ASP108     -0.2456
    151  N         54.0790   11.4280  -19.3870 N.3   149  ARG149     -0.1245
    152  CA        53.1840   10.2850  -19.5310 C.3   149  ARG149      0.1563
    153  C         53.7460    9.2580  -20.5190 C.2   149  ARG149      0.2260
    154  O         53.3950    8.0780  -20.4600 O.2   149  ARG149     -0.2867
    155  CB        51.7920   10.7360  -19.9790 C.3   149  ARG149      0.0307
    156  CG        51.7260   11.1710  -21.4320 C.3   149  ARG149      0.0489
    157  CD        50.3880   11.7900  -21.8270 C.3   149  ARG149      0.2205
    158  NE        50.5360   12.4490  -23.1260 N.pl3 149  ARG149     -0.0865
    159  CZ        50.9470   13.7110  -23.3050 C.cat 149  ARG149      0.5346
    160  NH1       51.0780   14.1960  -24.5340 N.pl3 149  ARG149      0.1354
    161  NH2       51.2220   14.5030  -22.2750 N.pl3 149  ARG149      0.1354
    162  N         58.2700    5.6760  -19.5650 N.3   152  LEU152     -0.1245
    163  CA        57.8990    4.5300  -18.7310 C.3   152  LEU152      0.1561
    164  C         59.0260    4.1470  -17.8010 C.2   152  LEU152      0.2260
    165  O         60.1860    4.4290  -18.0680 O.2   152  LEU152     -0.2867
    166  CB        57.5040    3.3180  -19.5850 C.3   152  LEU152      0.0270
    167  CG        56.3280    3.5220  -20.5450 C.3   152  LEU152      0.0019
    168  CD1       56.0750    2.2540  -21.3400 C.3   152  LEU152      0.0001
    169  CD2       55.0630    3.9410  -19.8090 C.3   152  LEU152      0.0001
    170  N         58.5480    5.9310  -24.6840 N.3   162  THR162     -0.1203
    171  CA        57.5410    5.1340  -25.3670 C.3   162  THR162      0.1994
    172  C         56.6860    6.0320  -26.2660 C.2   162  THR162      0.2617
    173  O         56.9340    7.2350  -26.3800 O.2   162  THR162     -0.2717
    174  CB        56.6390    4.3970  -24.3400 C.3   162  THR162      0.1784
    175  OG1       55.8210    3.4290  -25.0050 O.3   162  THR162     -0.2211
    176  CG2       55.7390    5.3740  -23.5740 C.3   162  THR162      0.0376
    177  N         55.6850    5.4170  -26.8900 N.am  163  ASP163     -0.1973
    178  CA        54.6710    6.0930  -27.6970 C.3   163  ASP163      0.1709
    179  C         55.2570    6.7290  -28.9500 C.2   163  ASP163      0.2293
    180  O         55.5890    7.9140  -28.9790 O.2   163  ASP163     -0.2864
    181  CB        53.8730    7.1160  -26.8800 C.3   163  ASP163      0.1436
    182  CG        52.5650    7.5040  -27.5540 C.2   163  ASP163      0.3671
    183  OD1       52.3740    7.1550  -28.7430 O.co2 163  ASP163     -0.2456
    184  OD2       51.7230    8.1600  -26.8970 O.co2 163  ASP163     -0.2456
@<TRIPOS>BOND
     1    31    30    2
     2    63    62    2
     3   180   179    2
     4   179   178    1
     5   183   182   ar
     6    30    29    1
     7    62    61    1
     8    29    28    1
     9    29    32    1
    10    65    64    1
    11    65    66    1
    12    67    66    1
    13    67    68    1
    14    72    71    2
    15   178   177    1
    16   178   181    1
    17    64    61    1
    18   182   184   ar
    19   182   181    1
    20    32    33    1
    21    81    79    1
    22    61    60    1
    23   177   172   am
    24    71    70    1
    25    75    76    1
    26   173   172    2
    27   172   171    1
    28    35    33   ar
    29    35    37   ar
    30    33    34   ar
    31    76    79    1
    32    76    77    1
    33    79    80    1
    34    70    69    1
    35    70    73    1
    36   171   170    1
    37   171   174    1
    38    73    74    1
    39    37    38   ar
    40   175   174    1
    41    34    36   ar
    42    58    57    2
    43   160   159    1
    44    77    82   am
    45    77    78    2
    46   174   176    1
    47    57    56    1
    48    82    83    1
    49    45    43    1
    50    38    36   ar
    51    39    40    1
    52   159   158    2
    53   159   161    1
    54    40    43    1
    55    40    41    1
    56   158   157    1
    57    43    44    1
    58    56    59    1
    59    56    55    1
    60    83    86    1
    61    83    84    1
    62    86    87    1
    63    24    23    1
    64    24    25    2
    65    41    42    2
    66    23    26    1
    67    23    22    1
    68    26    27    1
    69    85    84    2
    70   157   156    1
    71    84    91   am
    72    21    20    2
    73   156   155    1
    74   168   167    1
    75    89    88    2
    76    22    20   am
    77    87    88    1
    78    20    19    1
    79    88    90   am
    80    91    92    1
    81   167   169    1
    82   167   166    1
    83   153   154    2
    84   153   152    1
    85   155   152    1
    86    46    47    1
    87    49    48    2
    88   105   104    1
    89   105   106    1
    90   104   103    1
    91   166   163    1
    92   162   163    1
    93    48    47    1
    94    92    95    1
    95    92    93    1
    96   152   151    1
    97    19    18    1
    98    18    12   am
    99    47    50    1
   100    16    15    1
   101   163   164    1
   102    95    96    1
   103    93    99   am
   104    93    94    2
   105     4     3    2
   106    10    11    1
   107    99   100    1
   108    14    15    1
   109    14    11    1
   110   103   100    1
   111   165   164    2
   112    15    17    1
   113    97    96    1
   114    12    11    1
   115    12    13    2
   116     3     2    1
   117    50    51    1
   118   100   101    1
   119    96    98    1
   120   133   130    1
   121   133   134    1
   122     1     2    1
   123     2     5    1
   124    51    52    1
   125   130   129    1
   126   130   131    1
   127   142   140    1
   128   101   102    2
   129   101   107   am
   130   129   127   am
   131   139   140    1
   132   139   136    1
   133   128   127    2
   134   127   126    1
   135   131   132    2
   136     5     6    1
   137   140   141    1
   138    52    53    1
   139   107   113    1
   140   107   108    1
   141   135   136    1
   142   113   112    1
   143     6     7    1
   144   126   125    1
   145   136   137    1
   146    53    54    1
   147   150   148   ar
   148   125   116   am
   149   112   111    1
   150   108   111    1
   151   108   109    1
   152   149   148   ar
   153   148   147    1
   154     7     8    1
   155   143   137   am
   156   143   144    1
   157   137   138    2
   158   114   109   am
   159   114   115    1
   160     8     9    1
   161   109   110    2
   162   116   117    2
   163   116   115    1
   164   147   144    1
   165   144   145    1
   166   115   118    1
   167   118   119    1
   168   120   119   ar
   169   120   122   ar
   170   145   146    2
   171   119   121   ar
   172   122   124   ar
   173   121   123   ar
   174   124   123   ar
