@<TRIPOS>MOLECULE
tmp/4li6B00.pdb
 180 180 0 0 0
SMALL
GASTEIGER

@<TRIPOS>ATOM
      1  N        -45.9490    8.9770   32.0580 N.3    80  HIS80      -0.1226
      2  CA       -46.2020    7.8320   31.1990 C.3    80  HIS80       0.1752
      3  C        -47.4360    7.1170   31.6790 C.2    80  HIS80       0.2597
      4  O        -47.5670    6.8340   32.8670 O.2    80  HIS80      -0.2718
      5  CB       -45.0440    6.8270   31.2380 C.3    80  HIS80       0.0759
      6  CG       -45.3690    5.5330   30.5640 C.ar   80  HIS80       0.0818
      7  ND1      -45.1740    5.3300   29.2130 N.ar   80  HIS80      -0.2268
      8  CD2      -45.9190    4.3920   31.0410 C.ar   80  HIS80       0.1154
      9  CE1      -45.5730    4.1120   28.8920 C.ar   80  HIS80       0.1986
     10  NE2      -46.0300    3.5210   29.9830 N.ar   80  HIS80      -0.2212
     11  N        -48.3260    6.8020   30.7500 N.am   81  GLY81      -0.1942
     12  CA       -49.4670    5.9680   31.0600 C.3    81  GLY81       0.2014
     13  C        -49.5170    4.8350   30.0630 C.2    81  GLY81       0.2640
     14  O        -49.1060    5.0110   28.9190 O.2    81  GLY81      -0.2714
     15  N        -50.0060    3.6780   30.4980 N.am   82  SER82      -0.1936
     16  CA       -50.1250    2.4950   29.6470 C.3    82  SER82       0.2040
     17  C        -50.7420    1.3780   30.4740 C.2    82  SER82       0.2485
     18  O        -50.8120    1.4860   31.6980 O.2    82  SER82      -0.2729
     19  CB       -48.7560    2.0470   29.1150 C.3    82  SER82       0.2129
     20  OG       -47.9360    1.4800   30.1290 O.3    82  SER82      -0.2179
     21  N        -51.2010    0.3010   29.8180 N.am   83  PRO83      -0.2715
     22  CA       -51.7240   -0.8280   30.6010 C.3    83  PRO83       0.1536
     23  C        -50.6160   -1.6440   31.2640 C.2    83  PRO83       0.2598
     24  O        -50.9020   -2.6160   31.9570 O.2    83  PRO83      -0.2715
     25  CB       -52.4370   -1.6910   29.5490 C.3    83  PRO83       0.0310
     26  CG       -52.6690   -0.7760   28.3590 C.3    83  PRO83       0.0237
     27  CD       -51.5340    0.1960   28.3820 C.3    83  PRO83       0.0939
     28  N        -49.3630   -1.2690   31.0510 N.am   84  PHE84      -0.1974
     29  CA       -48.2470   -2.0800   31.5380 C.3    84  PHE84       0.1639
     30  C        -47.7350   -1.6450   32.9180 C.2    84  PHE84       0.2290
     31  O        -46.6470   -2.0530   33.3260 O.2    84  PHE84      -0.2864
     32  CB       -47.0700   -2.0000   30.5650 C.3    84  PHE84       0.0560
     33  CG       -47.3790   -2.4380   29.1610 C.ar   84  PHE84      -0.0200
     34  CD1      -47.8530   -1.5290   28.2240 C.ar   84  PHE84      -0.0042
     35  CD2      -47.1150   -3.7420   28.7540 C.ar   84  PHE84      -0.0042
     36  CE1      -48.0980   -1.9190   26.9130 C.ar   84  PHE84      -0.0003
     37  CE2      -47.3520   -4.1420   27.4460 C.ar   84  PHE84      -0.0003
     38  CZ       -47.8480   -3.2260   26.5230 C.ar   84  PHE84      -0.0000
     39  N        -44.3170   -2.6640   34.8060 N.3    88  ILE88      -0.1245
     40  CA       -43.2270   -1.6920   34.7890 C.3    88  ILE88       0.1561
     41  C        -42.6120   -1.4460   36.1700 C.2    88  ILE88       0.2260
     42  O        -41.3970   -1.3520   36.3070 O.2    88  ILE88      -0.2867
     43  CB       -43.6690   -0.3440   34.1650 C.3    88  ILE88       0.0252
     44  CG1      -43.9220   -0.4990   32.6670 C.3    88  ILE88       0.0019
     45  CG2      -42.5900    0.7130   34.3580 C.3    88  ILE88       0.0019
     46  CD1      -44.7390    0.6580   32.0640 C.3    88  ILE88       0.0001
     47  N        -39.3020   -0.6280   32.6480 N.3    93  PHE93      -0.1227
     48  CA       -39.7680   -0.3910   31.2950 C.3    93  PHE93       0.1736
     49  C        -39.0800   -1.3810   30.3750 C.2    93  PHE93       0.2595
     50  O        -37.8950   -1.6610   30.5390 O.2    93  PHE93      -0.2718
     51  CB       -39.4330    1.0320   30.8630 C.3    93  PHE93       0.0547
     52  CG       -40.3900    2.0660   31.3860 C.ar   93  PHE93      -0.0202
     53  CD1      -41.6310    2.2370   30.7970 C.ar   93  PHE93      -0.0042
     54  CD2      -40.0370    2.8830   32.4490 C.ar   93  PHE93      -0.0042
     55  CE1      -42.5080    3.2050   31.2670 C.ar   93  PHE93      -0.0003
     56  CE2      -40.9060    3.8450   32.9220 C.ar   93  PHE93      -0.0003
     57  CZ       -42.1390    4.0090   32.3280 C.ar   93  PHE93      -0.0000
     58  N        -39.8230   -1.9140   29.4170 N.am   94  ASP94      -0.1974
     59  CA       -39.3020   -2.9530   28.5500 C.3    94  ASP94       0.1709
     60  C        -39.7090   -2.6520   27.1090 C.2    94  ASP94       0.2293
     61  O        -40.8690   -2.8470   26.7240 O.2    94  ASP94      -0.2864
     62  CB       -39.8460   -4.3080   28.9950 C.3    94  ASP94       0.1436
     63  CG       -39.2610   -5.4600   28.2110 C.2    94  ASP94       0.3671
     64  OD1      -38.6120   -5.2260   27.1630 O.co2  94  ASP94      -0.2456
     65  OD2      -39.4540   -6.6130   28.6440 O.co2  94  ASP94      -0.2456
     66  N        -42.0680   -4.5860   24.4360 N.3    97  HIS97      -0.1226
     67  CA       -43.5160   -4.4170   24.3260 C.3    97  HIS97       0.1752
     68  C        -43.9360   -3.3540   23.2830 C.2    97  HIS97       0.2596
     69  O        -45.1250   -3.1810   23.0020 O.2    97  HIS97      -0.2718
     70  CB       -44.1130   -4.0900   25.6990 C.3    97  HIS97       0.0759
     71  CG       -44.0030   -5.2100   26.6880 C.ar   97  HIS97       0.0818
     72  ND1      -44.5910   -6.4440   26.4880 N.ar   97  HIS97      -0.2268
     73  CD2      -43.3710   -5.2860   27.8850 C.ar   97  HIS97       0.1154
     74  CE1      -44.3260   -7.2290   27.5170 C.ar   97  HIS97       0.1986
     75  NE2      -43.5870   -6.5500   28.3790 N.ar   97  HIS97      -0.2212
     76  N        -42.9640   -2.6490   22.7110 N.am   98  ALA98      -0.1966
     77  CA       -43.2510   -1.6150   21.7070 C.3    98  ALA98       0.1728
     78  C        -43.4130   -2.1790   20.2930 C.2    98  ALA98       0.2616
     79  O        -42.6620   -3.0620   19.8900 O.2    98  ALA98      -0.2715
     80  CB       -42.1570   -0.5610   21.7160 C.3    98  ALA98       0.0334
     81  N        -44.3760   -1.6480   19.5370 N.am   99  TYR99      -0.1974
     82  CA       -44.5140   -1.9530   18.1050 C.3    99  TYR99       0.1639
     83  C        -44.9270   -0.7160   17.3080 C.2    99  TYR99       0.2290
     84  O        -44.1760    0.2610   17.2110 O.2    99  TYR99      -0.2864
     85  CB       -45.5340   -3.0700   17.8730 C.3    99  TYR99       0.0560
     86  CG       -45.3420   -4.2670   18.7740 C.ar   99  TYR99      -0.0198
     87  CD1      -44.3920   -5.2410   18.4810 C.ar   99  TYR99      -0.0009
     88  CD2      -46.1110   -4.4200   19.9230 C.ar   99  TYR99      -0.0009
     89  CE1      -44.2140   -6.3390   19.3130 C.ar   99  TYR99       0.0417
     90  CE2      -45.9420   -5.5100   20.7600 C.ar   99  TYR99       0.0417
     91  CZ       -44.9940   -6.4650   20.4540 C.ar   99  TYR99       0.1957
     92  OH       -44.8360   -7.5480   21.2900 O.3    99  TYR99      -0.2866
     93  N        -40.8940    2.6700   20.2790 N.3   105  GLY105     -0.1210
     94  CA       -40.2800    3.1420   21.4970 C.3   105  GLY105      0.1956
     95  C        -41.2710    3.1970   22.6390 C.2   105  GLY105      0.2612
     96  O        -42.4190    2.7680   22.5010 O.2   105  GLY105     -0.2717
     97  N        -40.8050    3.7130   23.7710 N.am  106  ILE106     -0.1965
     98  CA       -41.6390    3.9280   24.9520 C.3   106  ILE106      0.1727
     99  C        -41.8430    5.4290   25.0640 C.2   106  ILE106      0.2616
    100  O        -40.8810    6.2060   24.9800 O.2   106  ILE106     -0.2715
    101  CB       -40.9530    3.3940   26.2280 C.3   106  ILE106      0.0290
    102  CG1      -40.3320    2.0250   25.9440 C.3   106  ILE106      0.0022
    103  CG2      -41.9520    3.3220   27.3840 C.3   106  ILE106      0.0023
    104  CD1      -39.5340    1.4400   27.0700 C.3   106  ILE106      0.0001
    105  N        -43.0920    5.8330   25.2470 N.am  107  TYR107     -0.1960
    106  CA       -43.5070    7.2310   25.0760 C.3   107  TYR107      0.1771
    107  C        -43.8250    7.9710   26.3790 C.2   107  TYR107      0.2620
    108  O        -44.4000    7.4050   27.2930 O.2   107  TYR107     -0.2715
    109  CB       -44.7310    7.2830   24.1570 C.3   107  TYR107      0.0574
    110  CG       -44.4410    6.9740   22.6930 C.ar  107  TYR107     -0.0198
    111  CD1      -44.0020    5.7150   22.2910 C.ar  107  TYR107     -0.0009
    112  CD2      -44.6460    7.9390   21.7100 C.ar  107  TYR107     -0.0009
    113  CE1      -43.7530    5.4310   20.9450 C.ar  107  TYR107      0.0417
    114  CE2      -44.4080    7.6660   20.3660 C.ar  107  TYR107      0.0417
    115  CZ       -43.9630    6.4110   19.9890 C.ar  107  TYR107      0.1957
    116  OH       -43.7110    6.1490   18.6490 O.3   107  TYR107     -0.2866
    117  N        -43.4570    9.2470   26.4300 N.am  108  PHE108     -0.1960
    118  CA       -43.6180   10.0820   27.6090 C.3   108  PHE108      0.1771
    119  C        -44.0760   11.4730   27.1810 C.2   108  PHE108      0.2619
    120  O        -43.7870   11.9110   26.0590 O.2   108  PHE108     -0.2715
    121  CB       -42.2840   10.1930   28.3520 C.3   108  PHE108      0.0574
    122  CG       -41.7640    8.8750   28.8530 C.ar  108  PHE108     -0.0200
    123  CD1      -41.0490    8.0240   28.0100 C.ar  108  PHE108     -0.0042
    124  CD2      -41.9970    8.4830   30.1690 C.ar  108  PHE108     -0.0042
    125  CE1      -40.5860    6.8080   28.4620 C.ar  108  PHE108     -0.0003
    126  CE2      -41.5370    7.2740   30.6330 C.ar  108  PHE108     -0.0003
    127  CZ       -40.8270    6.4230   29.7780 C.ar  108  PHE108     -0.0000
    128  N        -44.7870   12.1660   28.0710 N.am  109  ALA109     -0.1977
    129  CA       -45.2710   13.5120   27.7770 C.3   109  ALA109      0.1597
    130  C        -45.0700   14.4680   28.9460 C.2   109  ALA109      0.2287
    131  O        -45.0930   14.0560   30.1100 O.2   109  ALA109     -0.2864
    132  CB       -46.7740   13.4820   27.3620 C.3   109  ALA109      0.0319
    133  N        -52.1110   13.9560   28.5270 N.3   114  LYS114     -0.1231
    134  CA       -51.6990   13.1510   27.3790 C.3   114  LYS114      0.1693
    135  C        -51.5290   11.7040   27.8100 C.2   114  LYS114      0.2592
    136  O        -52.0960   10.7970   27.1920 O.2   114  LYS114     -0.2718
    137  CB       -50.4000   13.6730   26.7510 C.3   114  LYS114      0.0285
    138  CG       -49.9690   12.9110   25.5040 C.3   114  LYS114      0.0035
    139  CD       -51.1010   12.9080   24.4630 C.3   114  LYS114      0.0206
    140  CE       -50.6590   12.3320   23.1450 C.3   114  LYS114      0.1093
    141  NZ       -51.7950   12.2840   22.1730 N.3   114  LYS114     -0.1314
    142  N        -50.7650   11.4930   28.8820 N.am  115  SER115     -0.1952
    143  CA       -50.5120   10.1380   29.3720 C.3   115  SER115      0.1924
    144  C        -51.7920    9.4640   29.8510 C.2   115  SER115      0.2314
    145  O        -51.9230    8.2350   29.7630 O.2   115  SER115     -0.2863
    146  CB       -49.4670   10.1360   30.4980 C.3   115  SER115      0.2116
    147  OG       -48.1880   10.5130   30.0110 O.3   115  SER115     -0.2180
    148  N        -53.6790    6.9740   27.5880 N.3   118  TYR118     -0.1241
    149  CA       -53.2000    5.6200   27.3240 C.3   118  TYR118      0.1605
    150  C        -53.4250    4.6160   28.4540 C.2   118  TYR118      0.2264
    151  O        -53.1040    3.4430   28.3010 O.2   118  TYR118     -0.2867
    152  CB       -51.7230    5.6700   26.9280 C.3   118  TYR118      0.0534
    153  CG       -51.5270    6.4540   25.6550 C.ar  118  TYR118     -0.0201
    154  CD1      -51.6200    5.8300   24.4140 C.ar  118  TYR118     -0.0009
    155  CD2      -51.2950    7.8170   25.6900 C.ar  118  TYR118     -0.0009
    156  CE1      -51.4650    6.5420   23.2400 C.ar  118  TYR118      0.0417
    157  CE2      -51.1420    8.5360   24.5260 C.ar  118  TYR118      0.0417
    158  CZ       -51.2330    7.8970   23.3060 C.ar  118  TYR118      0.1957
    159  OH       -51.0770    8.6220   22.1470 O.3   118  TYR118     -0.2866
    160  N        -55.1390    1.8110   27.2700 N.3   121  GLY121     -0.1210
    161  CA       -54.6320    1.3390   25.9890 C.3   121  GLY121      0.1956
    162  C        -54.6390    2.4280   24.9390 C.2   121  GLY121      0.2611
    163  O        -55.0440    3.5580   25.2210 O.2   121  GLY121     -0.2717
    164  N        -54.1990    2.0940   23.7260 N.am  122  ILE122     -0.1979
    165  CA       -54.1600    3.0620   22.6340 C.3   122  ILE122      0.1595
    166  C        -55.5500    3.6120   22.3810 C.2   122  ILE122      0.2287
    167  O        -56.5060    2.8490   22.2810 O.2   122  ILE122     -0.2864
    168  CB       -53.6200    2.4360   21.3250 C.3   122  ILE122      0.0276
    169  CG1      -52.2030    1.9080   21.5430 C.3   122  ILE122      0.0022
    170  CG2      -53.6400    3.4650   20.2050 C.3   122  ILE122      0.0022
    171  CD1      -51.5000    1.4400   20.2560 C.3   122  ILE122      0.0001
    172  N        -43.8930   14.5330   21.6590 N.3   185  GLU185     -0.1245
    173  CA       -43.8630   13.2620   22.3610 C.3   185  GLU185      0.1567
    174  C        -42.3960   12.8900   22.5630 C.2   185  GLU185      0.2260
    175  O        -41.5820   13.0350   21.6500 O.2   185  GLU185     -0.2867
    176  CB       -44.5960   12.1890   21.5450 C.3   185  GLU185      0.0388
    177  CG       -45.9900   12.6340   21.0840 C.3   185  GLU185      0.1160
    178  CD       -46.7720   11.5360   20.3750 C.2   185  GLU185      0.3649
    179  OE1      -46.2520   10.4160   20.2240 O.co2 185  GLU185     -0.2457
    180  OE2      -47.9210   11.7900   19.9760 O.co2 185  GLU185     -0.2457
@<TRIPOS>BOND
     1    84    83    2
     2    83    82    1
     3    85    82    1
     4    85    86    1
     5    82    81    1
     6    87    86   ar
     7    87    89   ar
     8   116   115    1
     9    86    88   ar
    10    89    91   ar
    11    81    78   am
    12    79    78    2
    13    88    90   ar
    14   180   178   ar
    15   115   114   ar
    16   115   113   ar
    17   170   168    1
    18   179   178   ar
    19   171   169    1
    20    93    94    1
    21    78    77    1
    22   114   112   ar
    23   178   177    1
    24    91    90   ar
    25    91    92    1
    26   113   111   ar
    27   177   176    1
    28   168   169    1
    29   168   165    1
    30    94    95    1
    31   176   173    1
    32   175   174    2
    33   172   173    1
    34    77    80    1
    35    77    76    1
    36   112   110   ar
    37   159   158    1
    38   141   140    1
    39   167   166    2
    40   111   110   ar
    41   173   174    1
    42   166   165    1
    43    96    95    2
    44   165   164    1
    45    95    97   am
    46   110   109    1
    47    76    68   am
    48    69    68    2
    49   140   139    1
    50   156   158   ar
    51   156   154   ar
    52    68    67    1
    53   158   157   ar
    54   164   162   am
    55    97    98    1
    56   109   106    1
    57    67    66    1
    58    67    70    1
    59   154   153   ar
    60   139   138    1
    61   157   155   ar
    62   162   163    2
    63   162   161    1
    64    98    99    1
    65    98   101    1
    66   100    99    2
    67    99   105   am
    68   106   105    1
    69   106   107    1
    70   138   137    1
    71   153   155   ar
    72   153   152    1
    73    70    71    1
    74   102   101    1
    75   102   104    1
    76   161   160    1
    77   120   119    2
    78   101   103    1
    79   107   117   am
    80   107   108    2
    81   117   118    1
    82    72    71   ar
    83    72    74   ar
    84    38    36   ar
    85    38    37   ar
    86    71    73   ar
    87    61    60    2
    88   137   134    1
    89    36    34   ar
    90   152   149    1
    91    60    59    1
    92    64    63   ar
    93   119   118    1
    94   119   128   am
    95   136   135    2
    96   149   148    1
    97   149   150    1
    98   132   129    1
    99   134   135    1
   100   134   133    1
   101    37    35   ar
   102    74    75   ar
   103   118   121    1
   104   129   128    1
   105   129   130    1
   106   135   142   am
   107    73    75   ar
   108   123   125   ar
   109   123   122   ar
   110    63    65   ar
   111    63    62    1
   112    34    33   ar
   113   151   150    2
   114   121   122    1
   115    26    27    1
   116    26    25    1
   117    27    21    1
   118   125   127   ar
   119    59    62    1
   120    59    58    1
   121    35    33   ar
   122   122   124   ar
   123   142   143    1
   124     9     7   ar
   125     9    10   ar
   126    14    13    2
   127   130   131    2
   128    19    16    1
   129    19    20    1
   130    33    32    1
   131     7     6   ar
   132   143   144    1
   133   143   146    1
   134    58    49   am
   135    25    22    1
   136    16    17    1
   137    16    15    1
   138   145   144    2
   139   127   126   ar
   140    21    17   am
   141    21    22    1
   142    10     8   ar
   143   147   146    1
   144    13    15   am
   145    13    12    1
   146   124   126   ar
   147    49    50    2
   148    49    48    1
   149    17    18    2
   150     6     8   ar
   151     6     5    1
   152    32    29    1
   153    22    23    1
   154    11    12    1
   155    11     3   am
   156    53    55   ar
   157    53    52   ar
   158    51    48    1
   159    51    52    1
   160    28    23   am
   161    28    29    1
   162     2     5    1
   163     2     3    1
   164     2     1    1
   165    23    24    2
   166    55    57   ar
   167    48    47    1
   168    52    54   ar
   169    29    30    1
   170     3     4    2
   171    46    44    1
   172    57    56   ar
   173    54    56   ar
   174    44    43    1
   175    30    31    2
   176    43    45    1
   177    43    40    1
   178    40    39    1
   179    40    41    1
   180    41    42    2
