@<TRIPOS>MOLECULE
tmp/4li7A00.pdb
 209 208 0 0 0
SMALL
GASTEIGER

@<TRIPOS>ATOM
      1  N        -19.8050  -14.9210   12.7260 N.3    79  PHE79      -0.1227
      2  CA       -19.0900  -13.9530   11.9320 C.3    79  PHE79       0.1736
      3  C        -19.9400  -12.7390   11.6300 C.2    79  PHE79       0.2595
      4  O        -21.1680  -12.8210   11.5460 O.2    79  PHE79      -0.2718
      5  CB       -18.6790  -14.5660   10.5890 C.3    79  PHE79       0.0547
      6  CG       -17.7160  -15.6910   10.7020 C.ar   79  PHE79      -0.0202
      7  CD1      -16.3790  -15.4500   10.9860 C.ar   79  PHE79      -0.0042
      8  CD2      -18.1340  -16.9860   10.5040 C.ar   79  PHE79      -0.0042
      9  CE1      -15.4750  -16.4870   11.0670 C.ar   79  PHE79      -0.0003
     10  CE2      -17.2330  -18.0260   10.5800 C.ar   79  PHE79      -0.0003
     11  CZ       -15.8970  -17.7730   10.8640 C.ar   79  PHE79      -0.0000
     12  N        -19.2670  -11.6120   11.4570 N.am   80  HIS80      -0.1961
     13  CA       -19.9250  -10.3860   11.0450 C.3    80  HIS80       0.1787
     14  C        -18.9480   -9.6670   10.1520 C.2    80  HIS80       0.2621
     15  O        -17.7580   -9.5630   10.4740 O.2    80  HIS80      -0.2715
     16  CB       -20.2540   -9.4330   12.2020 C.3    80  HIS80       0.0785
     17  CG       -20.6930   -8.0730   11.7340 C.ar   80  HIS80       0.0821
     18  ND1      -22.0120   -7.7590   11.4770 N.ar   80  HIS80      -0.2267
     19  CD2      -19.9780   -6.9690   11.4090 C.ar   80  HIS80       0.1154
     20  CE1      -22.0870   -6.5190   11.0240 C.ar   80  HIS80       0.1986
     21  NE2      -20.8670   -6.0170   10.9740 N.ar   80  HIS80      -0.2212
     22  N        -19.4450   -9.1800    9.0260 N.am   81  GLY81      -0.1940
     23  CA       -18.5920   -8.4160    8.1360 C.3    81  GLY81       0.2014
     24  C        -19.4120   -7.2150    7.6810 C.2    81  GLY81       0.2640
     25  O        -20.6030   -7.3500    7.4790 O.2    81  GLY81      -0.2714
     26  N        -18.7880   -6.0510    7.5480 N.am   82  SER82      -0.1936
     27  CA       -19.4590   -4.8300    7.1050 C.3    82  SER82       0.2040
     28  C        -18.3700   -3.7730    6.9650 C.2    82  SER82       0.2485
     29  O        -17.2390   -3.9890    7.3910 O.2    82  SER82      -0.2729
     30  CB       -20.5230   -4.3800    8.1210 C.3    82  SER82       0.2129
     31  OG       -19.9730   -4.0610    9.3960 O.3    82  SER82      -0.2179
     32  N        -18.6860   -2.6210    6.3580 N.am   83  PRO83      -0.2715
     33  CA       -17.6710   -1.5720    6.1930 C.3    83  PRO83       0.1536
     34  C        -17.3380   -0.7890    7.4740 C.2    83  PRO83       0.2598
     35  O        -16.5050    0.1160    7.4530 O.2    83  PRO83      -0.2715
     36  CB       -18.2800   -0.6530    5.1150 C.3    83  PRO83       0.0310
     37  CG       -19.4260   -1.4410    4.5260 C.3    83  PRO83       0.0237
     38  CD       -19.9360   -2.2660    5.6650 C.3    83  PRO83       0.0939
     39  N        -17.9580   -1.1410    8.5880 N.am   84  PHE84      -0.1974
     40  CA       -17.7220   -0.4140    9.8330 C.3    84  PHE84       0.1639
     41  C        -16.8930   -1.1370   10.8760 C.2    84  PHE84       0.2290
     42  O        -16.8620   -0.7250   12.0610 O.2    84  PHE84      -0.2864
     43  CB       -19.0670   -0.0240   10.4490 C.3    84  PHE84       0.0560
     44  CG       -20.0730    0.4720    9.4380 C.ar   84  PHE84      -0.0200
     45  CD1      -20.7680   -0.4210    8.6330 C.ar   84  PHE84      -0.0042
     46  CD2      -20.2710    1.8260    9.2500 C.ar   84  PHE84      -0.0042
     47  CE1      -21.6320    0.0220    7.6640 C.ar   84  PHE84      -0.0003
     48  CE2      -21.1370    2.2830    8.2800 C.ar   84  PHE84      -0.0003
     49  CZ       -21.8200    1.3780    7.4820 C.ar   84  PHE84      -0.0000
     50  N        -14.9760    1.0130   13.2900 N.3    87  ALA87      -0.1231
     51  CA       -15.7480    1.7180   14.2970 C.3    87  ALA87       0.1694
     52  C        -16.2310    0.7020   15.3280 C.2    87  ALA87       0.2591
     53  O        -16.3520    1.0070   16.5080 O.2    87  ALA87      -0.2718
     54  CB       -16.9510    2.4150   13.6490 C.3    87  ALA87       0.0304
     55  N        -16.5040   -0.5170   14.8770 N.am   88  ILE88      -0.1980
     56  CA       -17.0040   -1.5420   15.7720 C.3    88  ILE88       0.1595
     57  C        -15.9760   -1.9450   16.8330 C.2    88  ILE88       0.2287
     58  O        -16.2990   -2.0170   18.0200 O.2    88  ILE88      -0.2864
     59  CB       -17.4800   -2.7560   14.9610 C.3    88  ILE88       0.0276
     60  CG1      -18.6320   -2.3220   14.0530 C.3    88  ILE88       0.0022
     61  CG2      -17.9810   -3.8500   15.8670 C.3    88  ILE88       0.0022
     62  CD1      -19.0960   -3.3950   13.1050 C.3    88  ILE88       0.0001
     63  N        -15.8920    1.3260   19.2280 N.3    91  LYS91      -0.1231
     64  CA       -17.1110    1.7940   19.8610 C.3    91  LYS91       0.1693
     65  C        -18.1320    0.7010   20.0450 C.2    91  LYS91       0.2593
     66  O        -19.1770    0.9380   20.6280 O.2    91  LYS91      -0.2718
     67  CB       -17.7330    2.9150   19.0260 C.3    91  LYS91       0.0285
     68  CG       -16.8190    4.1230   18.8810 C.3    91  LYS91       0.0035
     69  CD       -17.4440    5.2340   18.0320 C.3    91  LYS91       0.0206
     70  CE       -17.6150    4.8200   16.5810 C.3    91  LYS91       0.1093
     71  NZ       -18.1440    5.9390   15.7440 N.3    91  LYS91      -0.1314
     72  N        -17.8460   -0.4900   19.5330 N.am   92  GLY92      -0.1942
     73  CA       -18.7870   -1.5920   19.6700 C.3    92  GLY92       0.2014
     74  C        -19.8930   -1.5810   18.6390 C.2    92  GLY92       0.2639
     75  O        -20.0380   -0.6300   17.8630 O.2    92  GLY92      -0.2714
     76  N        -20.6760   -2.6500   18.6070 N.am   93  PHE93      -0.1959
     77  CA       -21.7950   -2.7200   17.6650 C.3    93  PHE93       0.1771
     78  C        -22.8540   -1.6700   18.0430 C.2    93  PHE93       0.2619
     79  O        -23.0730   -1.3760   19.2180 O.2    93  PHE93      -0.2715
     80  CB       -22.3910   -4.1360   17.6710 C.3    93  PHE93       0.0574
     81  CG       -21.5230   -5.1560   16.9760 C.ar   93  PHE93      -0.0200
     82  CD1      -21.5110   -5.2420   15.5930 C.ar   93  PHE93      -0.0042
     83  CD2      -20.6910   -6.0040   17.7060 C.ar   93  PHE93      -0.0042
     84  CE1      -20.6900   -6.1540   14.9360 C.ar   93  PHE93      -0.0003
     85  CE2      -19.8630   -6.9210   17.0530 C.ar   93  PHE93      -0.0003
     86  CZ       -19.8700   -6.9910   15.6590 C.ar   93  PHE93      -0.0000
     87  N        -23.5110   -1.0900   17.0550 N.am   94  ASP94      -0.1971
     88  CA       -24.5040   -0.0630   17.3580 C.3    94  ASP94       0.1709
     89  C        -25.7430   -0.2690   16.5130 C.2    94  ASP94       0.2293
     90  O        -25.7130   -0.0360   15.3090 O.2    94  ASP94      -0.2864
     91  CB       -23.9240    1.3290   17.0870 C.3    94  ASP94       0.1436
     92  CG       -24.8250    2.4640   17.6080 C.2    94  ASP94       0.3671
     93  OD1      -26.0500    2.2390   17.8390 O.co2  94  ASP94      -0.2456
     94  OD2      -24.2920    3.5900   17.7710 O.co2  94  ASP94      -0.2456
     95  N        -27.4510    2.1560   13.8770 N.3    97  HIS97      -0.1226
     96  CA       -27.0240    2.2270   12.4850 C.3    97  HIS97       0.1752
     97  C        -27.7700    1.2160   11.6360 C.2    97  HIS97       0.2595
     98  O        -27.4740    1.0360   10.4640 O.2    97  HIS97      -0.2718
     99  CB       -25.5290    1.9750   12.3790 C.3    97  HIS97       0.0759
    100  CG       -24.7020    3.1110   12.8730 C.ar   97  HIS97       0.0818
    101  ND1      -24.3280    4.1600   12.0640 N.ar   97  HIS97      -0.2268
    102  CD2      -24.2060    3.3840   14.1010 C.ar   97  HIS97       0.1154
    103  CE1      -23.6370    5.0340   12.7720 C.ar   97  HIS97       0.1986
    104  NE2      -23.5490    4.5870   14.0120 N.ar   97  HIS97      -0.2212
    105  N        -28.7330    0.5430   12.2430 N.am   98  ALA98      -0.1980
    106  CA       -29.5540   -0.4380   11.5250 C.3    98  ALA98       0.1597
    107  C        -30.9480    0.1610   11.3080 C.2    98  ALA98       0.2287
    108  O        -31.5220    0.0960   10.2170 O.2    98  ALA98      -0.2864
    109  CB       -29.6580   -1.7140   12.3460 C.3    98  ALA98       0.0319
    110  N        -33.5090   -4.2540    6.3770 N.3    99  GLY99      -0.1210
    111  CA       -32.9610   -5.4810    6.9320 C.3    99  GLY99       0.1956
    112  C        -33.9900   -6.5900    6.8840 C.2    99  GLY99       0.2611
    113  O        -35.1250   -6.4010    7.3160 O.2    99  GLY99      -0.2717
    114  N        -33.6030   -7.7570    6.3890 N.am  100  MET100     -0.1979
    115  CA       -34.5490   -8.8570    6.2660 C.3   100  MET100      0.1605
    116  C        -35.3100   -9.2620    7.5260 C.2   100  MET100      0.2287
    117  O        -36.3800   -9.8700    7.4430 O.2   100  MET100     -0.2864
    118  CB       -33.8610  -10.0830    5.7000 C.3   100  MET100      0.0413
    119  CG       -34.8450  -11.0850    5.1400 C.3   100  MET100      0.0598
    120  SD       -33.9460  -12.4530    4.4600 S.3   100  MET100     -0.1393
    121  CE       -33.0870  -11.6050    3.0750 C.3   100  MET100      0.0692
    122  N        -31.8240   -4.7580   13.1470 N.3   104  GLY104     -0.1210
    123  CA       -30.9490   -5.4240   14.0900 C.3   104  GLY104      0.1956
    124  C        -29.5320   -5.4580   13.5570 C.2   104  GLY104      0.2612
    125  O        -29.2530   -4.8840   12.5060 O.2   104  GLY104     -0.2717
    126  N        -28.6370   -6.1060   14.3030 N.am  105  ILE105     -0.1965
    127  CA       -27.2380   -6.2610   13.9210 C.3   105  ILE105      0.1727
    128  C        -27.1160   -7.7330   13.5430 C.2   105  ILE105      0.2616
    129  O        -27.4130   -8.6030   14.3550 O.2   105  ILE105     -0.2715
    130  CB       -26.3240   -5.9580   15.1090 C.3   105  ILE105      0.0290
    131  CG1      -26.4750   -4.4830   15.5030 C.3   105  ILE105      0.0022
    132  CG2      -24.8970   -6.3150   14.7580 C.3   105  ILE105      0.0023
    133  CD1      -26.3330   -4.2120   16.9710 C.3   105  ILE105      0.0001
    134  N        -26.6590   -8.0000   12.3230 N.am  106  TYR106     -0.1960
    135  CA       -26.5820   -9.3640   11.7860 C.3   106  TYR106      0.1771
    136  C        -25.2610  -10.1570   11.8860 C.2   106  TYR106      0.2620
    137  O        -24.1730   -9.6060   11.7940 O.2   106  TYR106     -0.2715
    138  CB       -27.0160   -9.3270   10.3220 C.3   106  TYR106      0.0574
    139  CG       -28.4390   -8.8650   10.0720 C.ar  106  TYR106     -0.0198
    140  CD1      -28.8760   -7.5860   10.4350 C.ar  106  TYR106     -0.0009
    141  CD2      -29.3560   -9.7160    9.4600 C.ar  106  TYR106     -0.0009
    142  CE1      -30.1920   -7.1860   10.1860 C.ar  106  TYR106      0.0417
    143  CE2      -30.6480   -9.3240    9.2220 C.ar  106  TYR106      0.0417
    144  CZ       -31.0670   -8.0680    9.5800 C.ar  106  TYR106      0.1957
    145  OH       -32.3750   -7.7220    9.3020 O.3   106  TYR106     -0.2866
    146  N        -25.3820  -11.4670   12.0620 N.am  107  PHE107     -0.1960
    147  CA       -24.2240  -12.3520   12.1730 C.3   107  PHE107      0.1771
    148  C        -24.4920  -13.6280   11.3860 C.2   107  PHE107      0.2619
    149  O        -25.6240  -14.0770   11.2760 O.2   107  PHE107     -0.2715
    150  CB       -23.9360  -12.7050   13.6390 C.3   107  PHE107      0.0574
    151  CG       -23.5890  -11.5140   14.4820 C.ar  107  PHE107     -0.0200
    152  CD1      -24.5870  -10.6950   15.0090 C.ar  107  PHE107     -0.0042
    153  CD2      -22.2680  -11.1590   14.6840 C.ar  107  PHE107     -0.0042
    154  CE1      -24.2570   -9.5530   15.7090 C.ar  107  PHE107     -0.0003
    155  CE2      -21.9440  -10.0080   15.3850 C.ar  107  PHE107     -0.0003
    156  CZ       -22.9370   -9.2080   15.8940 C.ar  107  PHE107     -0.0000
    157  N        -23.4410  -14.2140   10.8430 N.am  108  ALA108     -0.1977
    158  CA       -23.6060  -15.4220   10.0570 C.3   108  ALA108      0.1597
    159  C        -22.7590  -16.5540   10.6080 C.2   108  ALA108      0.2287
    160  O        -21.6960  -16.3220   11.1880 O.2   108  ALA108     -0.2864
    161  CB       -23.2160  -15.1360    8.6180 C.3   108  ALA108      0.0319
    162  N        -20.8030  -15.7970    4.1120 N.3   113  LYS113     -0.1231
    163  CA       -21.9850  -14.9390    4.1900 C.3   113  LYS113      0.1693
    164  C        -21.5570  -13.5330    4.6600 C.2   113  LYS113      0.2592
    165  O        -21.9800  -12.5180    4.1000 O.2   113  LYS113     -0.2718
    166  CB       -22.9780  -15.4820    5.1990 C.3   113  LYS113      0.0285
    167  CG       -24.2270  -14.6230    5.3190 C.3   113  LYS113      0.0035
    168  CD       -24.9620  -14.6400    3.9890 C.3   113  LYS113      0.0206
    169  CE       -26.3360  -14.0460    4.0940 C.3   113  LYS113      0.1093
    170  NZ       -26.9650  -14.0330    2.7440 N.3   113  LYS113     -0.1314
    171  N        -20.7170  -13.4770    5.6940 N.am  114  SER114     -0.1952
    172  CA       -20.2450  -12.1900    6.2000 C.3   114  SER114      0.1924
    173  C        -19.4000  -11.4780    5.1410 C.2   114  SER114      0.2314
    174  O        -19.4520  -10.2560    4.9950 O.2   114  SER114     -0.2863
    175  CB       -19.4040  -12.3830    7.4680 C.3   114  SER114      0.2116
    176  OG       -20.1880  -12.8760    8.5420 O.3   114  SER114     -0.2180
    177  N        -20.9010   -9.0400    2.9200 N.3   117  TYR117     -0.1241
    178  CA       -21.2320   -7.7220    3.4530 C.3   117  TYR117      0.1605
    179  C        -20.0610   -6.8200    3.7610 C.2   117  TYR117      0.2264
    180  O        -20.2410   -5.6540    4.0740 O.2   117  TYR117     -0.2867
    181  CB       -22.0920   -7.8940    4.7070 C.3   117  TYR117      0.0534
    182  CG       -23.4830   -8.3530    4.3670 C.ar  117  TYR117     -0.0201
    183  CD1      -24.4760   -7.4290    4.0420 C.ar  117  TYR117     -0.0009
    184  CD2      -23.7920   -9.7120    4.2900 C.ar  117  TYR117     -0.0009
    185  CE1      -25.7480   -7.8460    3.6420 C.ar  117  TYR117      0.0417
    186  CE2      -25.0560  -10.1450    3.8960 C.ar  117  TYR117      0.0417
    187  CZ       -26.0290   -9.2060    3.5780 C.ar  117  TYR117      0.1957
    188  OH       -27.3080   -9.6260    3.2630 O.3   117  TYR117     -0.2866
    189  N        -20.3510   -3.7060    1.9100 N.3   120  GLY120     -0.1210
    190  CA       -21.6590   -3.0910    1.9360 C.3   120  GLY120      0.1956
    191  C        -22.7210   -4.1330    1.6660 C.2   120  GLY120      0.2611
    192  O        -22.4230   -5.3320    1.5700 O.2   120  GLY120     -0.2717
    193  N        -23.9620   -3.6770    1.5630 N.am  121  ILE121     -0.1979
    194  CA       -25.0830   -4.5580    1.2750 C.3   121  ILE121      0.1595
    195  C        -24.8760   -5.0360   -0.1590 C.2   121  ILE121      0.2287
    196  O        -24.5780   -4.2350   -1.0460 O.2   121  ILE121     -0.2864
    197  CB       -26.4250   -3.8030    1.3610 C.3   121  ILE121      0.0276
    198  CG1      -26.5380   -3.0920    2.7120 C.3   121  ILE121      0.0022
    199  CG2      -27.5820   -4.7780    1.1960 C.3   121  ILE121      0.0022
    200  CD1      -26.3960   -4.0180    3.8950 C.3   121  ILE121      0.0001
    201  N        -30.0890  -16.5040    9.6530 N.3   177  GLU177     -0.1245
    202  CA       -29.3710  -15.2860    9.9770 C.3   177  GLU177      0.1567
    203  C        -29.5800  -15.1080   11.4680 C.2   177  GLU177      0.2260
    204  O        -30.6770  -15.3650   11.9730 O.2   177  GLU177     -0.2867
    205  CB       -29.9570  -14.0890    9.2370 C.3   177  GLU177      0.0388
    206  CG       -29.9030  -14.2210    7.7200 C.3   177  GLU177      0.1160
    207  CD       -29.8220  -12.8710    7.0310 C.2   177  GLU177      0.3649
    208  OE1      -30.7700  -12.0690    7.1990 O.co2 177  GLU177     -0.2457
    209  OE2      -28.8070  -12.6160    6.3300 O.co2 177  GLU177     -0.2457
@<TRIPOS>BOND
     1   196   195    2
     2   195   194    1
     3   199   197    1
     4   194   197    1
     5   194   193    1
     6   197   198    1
     7   193   191   am
     8   192   191    2
     9   191   190    1
    10   189   190    1
    11   198   200    1
    12   170   169    1
    13   177   178    1
    14   121   120    1
    15   188   187    1
    16   178   179    1
    17   178   181    1
    18   187   185   ar
    19   187   186   ar
    20   185   183   ar
    21   179   180    2
    22   186   184   ar
    23   168   169    1
    24   168   167    1
    25   183   182   ar
    26   165   164    2
    27   162   163    1
    28   163   164    1
    29   163   166    1
    30   184   182   ar
    31   182   181    1
    32   120   119    1
    33    37    36    1
    34    37    38    1
    35   164   171   am
    36   174   173    2
    37    36    33    1
    38   119   118    1
    39   173   172    1
    40   166   167    1
    41    38    32    1
    42   171   172    1
    43   118   115    1
    44    33    32    1
    45    33    34    1
    46   172   175    1
    47   115   114    1
    48   115   116    1
    49   209   207   ar
    50    32    28   am
    51   110   111    1
    52   114   112   am
    53   112   111    1
    54   112   113    2
    55    28    27    1
    56    28    29    2
    57   207   208   ar
    58   207   206    1
    59    27    26    1
    60    27    30    1
    61   117   116    2
    62    35    34    2
    63   175   176    1
    64    34    39   am
    65    25    24    2
    66    49    47   ar
    67    49    48   ar
    68    26    24   am
    69    47    45   ar
    70    24    23    1
    71   206   205    1
    72    30    31    1
    73    23    22    1
    74    48    46   ar
    75    39    40    1
    76   161   158    1
    77    45    44   ar
    78    22    14   am
    79   143   141   ar
    80   143   144   ar
    81   205   202    1
    82    46    44   ar
    83   145   144    1
    84    44    43    1
    85   141   139   ar
    86   144   142   ar
    87   201   202    1
    88    40    43    1
    89    40    41    1
    90   202   203    1
    91   158   159    1
    92   158   157    1
    93   139   138    1
    94   139   140   ar
    95    14    15    2
    96    14    13    1
    97   142   140   ar
    98   108   107    2
    99   138   135    1
   100    98    97    2
   101     8    10   ar
   102     8     6   ar
   103    10    11   ar
   104     5     6    1
   105     5     2    1
   106   159   160    2
   107     6     7   ar
   108   157   148   am
   109    11     9   ar
   110    41    42    2
   111    21    20   ar
   112    21    19   ar
   113     7     9   ar
   114    20    18   ar
   115    13    12    1
   116    13    16    1
   117   149   148    2
   118   107   106    1
   119   148   147    1
   120    19    17   ar
   121    12     3   am
   122   203   204    2
   123    18    17   ar
   124   106   105    1
   125   106   109    1
   126     4     3    2
   127     3     2    1
   128    97   105   am
   129    97    96    1
   130    17    16    1
   131   135   136    1
   132   135   134    1
   133   137   136    2
   134   136   146   am
   135     2     1    1
   136   146   147    1
   137   101   103   ar
   138   101   100   ar
   139   147   150    1
   140   134   128   am
   141    99    96    1
   142    99   100    1
   143    96    95    1
   144   125   124    2
   145   103   104   ar
   146   100   102   ar
   147    62    60    1
   148   122   123    1
   149    50    51    1
   150   128   127    1
   151   128   129    2
   152   124   123    1
   153   124   126   am
   154   150   151    1
   155    54    51    1
   156   127   126    1
   157   127   130    1
   158   104   102   ar
   159    60    59    1
   160    51    52    1
   161   151   153   ar
   162   151   152   ar
   163   153   155   ar
   164   132   130    1
   165    55    52   am
   166    55    56    1
   167    84    82   ar
   168    84    86   ar
   169    59    56    1
   170    59    61    1
   171   152   154   ar
   172   130   131    1
   173    90    89    2
   174    52    53    2
   175   155   156   ar
   176   131   133    1
   177    82    81   ar
   178    86    85   ar
   179   154   156   ar
   180    71    70    1
   181    56    57    1
   182    89    88    1
   183    70    69    1
   184    57    58    2
   185    81    80    1
   186    81    83   ar
   187    85    83   ar
   188    87    88    1
   189    87    78   am
   190    91    88    1
   191    91    92    1
   192    92    94   ar
   193    92    93   ar
   194    77    80    1
   195    77    78    1
   196    77    76    1
   197    75    74    2
   198    69    68    1
   199    78    79    2
   200    76    74   am
   201    74    73    1
   202    68    67    1
   203    67    64    1
   204    63    64    1
   205    72    73    1
   206    72    65   am
   207    64    65    1
   208    65    66    2
