@<TRIPOS>MOLECULE
tmp/4li8B00.pdb
 197 197 0 0 0
SMALL
GASTEIGER

@<TRIPOS>ATOM
      1  N        -45.2830   11.4250   32.4340 N.3    79  PHE79      -0.1227
      2  CA       -46.4200   10.5760   32.7560 C.3    79  PHE79       0.1736
      3  C        -46.4880    9.3880   31.8250 C.2    79  PHE79       0.2595
      4  O        -46.1110    9.4780   30.6630 O.2    79  PHE79      -0.2718
      5  CB       -47.7270   11.3590   32.6570 C.3    79  PHE79       0.0547
      6  CG       -47.9750   12.2810   33.8110 C.ar   79  PHE79      -0.0202
      7  CD1      -48.4580   11.7890   35.0110 C.ar   79  PHE79      -0.0042
      8  CD2      -47.7460   13.6390   33.6890 C.ar   79  PHE79      -0.0042
      9  CE1      -48.7000   12.6310   36.0720 C.ar   79  PHE79      -0.0003
     10  CE2      -47.9830   14.4880   34.7460 C.ar   79  PHE79      -0.0003
     11  CZ       -48.4650   13.9840   35.9390 C.ar   79  PHE79      -0.0000
     12  N        -46.9810    8.2680   32.3340 N.am   80  HIS80      -0.1961
     13  CA       -47.2080    7.1200   31.4760 C.3    80  HIS80       0.1787
     14  C        -48.4790    6.3660   31.8090 C.2    80  HIS80       0.2621
     15  O        -48.6650    5.9170   32.9390 O.2    80  HIS80      -0.2715
     16  CB       -46.0300    6.1510   31.5000 C.3    80  HIS80       0.0785
     17  CG       -46.3080    4.8830   30.7620 C.ar   80  HIS80       0.0821
     18  ND1      -45.9030    4.6740   29.4640 N.ar   80  HIS80      -0.2267
     19  CD2      -47.0070    3.7810   31.1210 C.ar   80  HIS80       0.1154
     20  CE1      -46.3160    3.4850   29.0650 C.ar   80  HIS80       0.1986
     21  NE2      -46.9840    2.9220   30.0530 N.ar   80  HIS80      -0.2212
     22  N        -49.3360    6.2190   30.8050 N.am   81  GLY81      -0.1940
     23  CA       -50.5610    5.4550   30.9190 C.3    81  GLY81       0.2014
     24  C        -50.5640    4.2250   30.0300 C.2    81  GLY81       0.2640
     25  O        -50.2120    4.2860   28.8510 O.2    81  GLY81      -0.2714
     26  N        -50.9690    3.1040   30.6110 N.am   82  SER82      -0.1936
     27  CA       -50.9480    1.8070   29.9580 C.3    82  SER82       0.2040
     28  C        -51.9480    0.9160   30.6560 C.2    82  SER82       0.2485
     29  O        -52.3480    1.1820   31.7820 O.2    82  SER82      -0.2729
     30  CB       -49.5750    1.1520   30.1080 C.3    82  SER82       0.2129
     31  OG       -48.6750    1.5810   29.1080 O.3    82  SER82      -0.2179
     32  N        -52.3770   -0.1450   29.9800 N.am   83  PRO83      -0.2715
     33  CA       -53.0950   -1.1720   30.7290 C.3    83  PRO83       0.1536
     34  C        -52.1230   -2.0880   31.4650 C.2    83  PRO83       0.2598
     35  O        -52.5650   -3.0650   32.0760 O.2    83  PRO83      -0.2715
     36  CB       -53.8330   -1.9470   29.6340 C.3    83  PRO83       0.0310
     37  CG       -53.9390   -0.9790   28.4920 C.3    83  PRO83       0.0237
     38  CD       -52.6570   -0.2060   28.5360 C.3    83  PRO83       0.0939
     39  N        -50.8280   -1.7790   31.4240 N.am   84  PHE84      -0.1974
     40  CA       -49.8170   -2.6680   32.0180 C.3    84  PHE84       0.1639
     41  C        -49.0770   -2.0560   33.2100 C.2    84  PHE84       0.2290
     42  O        -47.9530   -2.4570   33.5200 O.2    84  PHE84      -0.2864
     43  CB       -48.7920   -3.1130   30.9680 C.3    84  PHE84       0.0560
     44  CG       -49.3390   -3.1710   29.5790 C.ar   84  PHE84      -0.0200
     45  CD1      -50.1860   -4.1980   29.1960 C.ar   84  PHE84      -0.0042
     46  CD2      -49.0130   -2.1930   28.6560 C.ar   84  PHE84      -0.0042
     47  CE1      -50.7010   -4.2510   27.9180 C.ar   84  PHE84      -0.0003
     48  CE2      -49.5180   -2.2410   27.3700 C.ar   84  PHE84      -0.0003
     49  CZ       -50.3640   -3.2720   27.0030 C.ar   84  PHE84      -0.0000
     50  N        -47.4850   -4.7520   35.6350 N.3    87  ALA87      -0.1231
     51  CA       -46.2590   -5.3960   35.1810 C.3    87  ALA87       0.1694
     52  C        -45.0950   -4.4060   35.1390 C.2    87  ALA87       0.2591
     53  O        -43.9620   -4.7450   35.4850 O.2    87  ALA87      -0.2718
     54  CB       -46.4700   -6.0280   33.8270 C.3    87  ALA87       0.0304
     55  N        -45.3710   -3.1760   34.7260 N.am   88  ILE88      -0.1980
     56  CA       -44.3010   -2.2000   34.5930 C.3    88  ILE88       0.1595
     57  C        -43.6080   -1.9220   35.9320 C.2    88  ILE88       0.2287
     58  O        -42.3880   -1.7580   35.9780 O.2    88  ILE88      -0.2864
     59  CB       -44.7830   -0.8860   33.9330 C.3    88  ILE88       0.0276
     60  CG1      -45.1090   -1.1240   32.4620 C.3    88  ILE88       0.0022
     61  CG2      -43.7140    0.1850   34.0280 C.3    88  ILE88       0.0022
     62  CD1      -45.9260   -0.0200   31.8370 C.3    88  ILE88       0.0001
     63  N        -41.7280   -5.6780   36.7810 N.3    91  LYS91      -0.1231
     64  CA       -40.6220   -6.1130   35.9250 C.3    91  LYS91       0.1693
     65  C        -40.0380   -4.9860   35.0670 C.2    91  LYS91       0.2593
     66  O        -39.1730   -5.2190   34.2200 O.2    91  LYS91      -0.2718
     67  CB       -41.0520   -7.2780   35.0310 C.3    91  LYS91       0.0285
     68  CG       -41.5180   -8.5160   35.7770 C.3    91  LYS91       0.0035
     69  CD       -41.4980   -9.7340   34.8540 C.3    91  LYS91       0.0206
     70  CE       -42.5160  -10.7890   35.2700 C.3    91  LYS91       0.1093
     71  NZ       -43.8970  -10.4490   34.8140 N.3    91  LYS91      -0.1314
     72  N        -40.5150   -3.7670   35.2850 N.am   92  GLY92      -0.1942
     73  CA       -40.0100   -2.6200   34.5560 C.3    92  GLY92       0.2014
     74  C        -40.6220   -2.4470   33.1820 C.2    92  GLY92       0.2639
     75  O        -41.3830   -3.2930   32.7030 O.2    92  GLY92      -0.2714
     76  N        -40.2810   -1.3300   32.5480 N.am   93  PHE93      -0.1959
     77  CA       -40.6580   -1.0730   31.1660 C.3    93  PHE93       0.1771
     78  C        -39.9510   -2.0370   30.2200 C.2    93  PHE93       0.2619
     79  O        -38.8180   -2.4500   30.4740 O.2    93  PHE93      -0.2715
     80  CB       -40.3190    0.3620   30.7850 C.3    93  PHE93       0.0574
     81  CG       -41.2440    1.3790   31.3740 C.ar   93  PHE93      -0.0200
     82  CD1      -42.5420    1.4970   30.9150 C.ar   93  PHE93      -0.0042
     83  CD2      -40.8120    2.2270   32.3740 C.ar   93  PHE93      -0.0042
     84  CE1      -43.3980    2.4390   31.4500 C.ar   93  PHE93      -0.0003
     85  CE2      -41.6580    3.1720   32.9120 C.ar   93  PHE93      -0.0003
     86  CZ       -42.9520    3.2790   32.4520 C.ar   93  PHE93      -0.0000
     87  N        -40.6190   -2.3790   29.1210 N.am   94  ASP94      -0.1971
     88  CA       -40.1030   -3.3790   28.1930 C.3    94  ASP94       0.1709
     89  C        -40.4460   -3.0360   26.7460 C.2    94  ASP94       0.2293
     90  O        -41.6040   -3.1390   26.3360 O.2    94  ASP94      -0.2864
     91  CB       -40.6680   -4.7530   28.5510 C.3    94  ASP94       0.1436
     92  CG       -39.9110   -5.8810   27.8880 C.2    94  ASP94       0.3671
     93  OD1      -39.0180   -5.5910   27.0630 O.co2  94  ASP94      -0.2456
     94  OD2      -40.2060   -7.0590   28.1960 O.co2  94  ASP94      -0.2456
     95  N        -42.4410   -5.1340   24.1100 N.3    97  HIS97      -0.1226
     96  CA       -43.8980   -5.1160   24.1210 C.3    97  HIS97       0.1752
     97  C        -44.4540   -4.0260   23.2050 C.2    97  HIS97       0.2595
     98  O        -45.6350   -4.0280   22.8680 O.2    97  HIS97      -0.2718
     99  CB       -44.4070   -4.8700   25.5450 C.3    97  HIS97       0.0759
    100  CG       -44.3110   -6.0640   26.4430 C.ar   97  HIS97       0.0818
    101  ND1      -45.1900   -7.1250   26.3660 N.ar   97  HIS97      -0.2268
    102  CD2      -43.4510   -6.3590   27.4470 C.ar   97  HIS97       0.1154
    103  CE1      -44.8690   -8.0240   27.2800 C.ar   97  HIS97       0.1986
    104  NE2      -43.8180   -7.5840   27.9490 N.ar   97  HIS97      -0.2212
    105  N        -43.6060   -3.0810   22.8210 N.am   98  ALA98      -0.1980
    106  CA       -44.0510   -1.9540   22.0160 C.3    98  ALA98       0.1597
    107  C        -44.3280   -2.3720   20.5700 C.2    98  ALA98       0.2287
    108  O        -43.4020   -2.6220   19.7920 O.2    98  ALA98      -0.2864
    109  CB       -43.0290   -0.8250   22.0750 C.3    98  ALA98       0.0319
    110  N        -41.5270    1.9990   20.5390 N.3   104  GLY104     -0.1210
    111  CA       -40.9510    2.5870   21.7300 C.3   104  GLY104      0.1956
    112  C        -41.9560    2.7390   22.8510 C.2   104  GLY104      0.2612
    113  O        -43.1350    2.4480   22.6810 O.2   104  GLY104     -0.2717
    114  N        -41.4760    3.1860   24.0080 N.am  105  ILE105     -0.1965
    115  CA       -42.3240    3.3870   25.1740 C.3   105  ILE105      0.1727
    116  C        -42.6000    4.8670   25.2950 C.2   105  ILE105      0.2616
    117  O        -41.6780    5.6690   25.4170 O.2   105  ILE105     -0.2715
    118  CB       -41.6380    2.8890   26.4530 C.3   105  ILE105      0.0290
    119  CG1      -40.8460    1.6140   26.1520 C.3   105  ILE105      0.0022
    120  CG2      -42.6560    2.6780   27.5630 C.3   105  ILE105      0.0023
    121  CD1      -40.4180    0.8600   27.3710 C.3   105  ILE105      0.0001
    122  N        -43.8750    5.2240   25.2520 N.am  106  TYR106     -0.1960
    123  CA       -44.2800    6.6180   25.1280 C.3   106  TYR106      0.1771
    124  C        -44.6610    7.2550   26.4620 C.2   106  TYR106      0.2620
    125  O        -45.2790    6.6280   27.3270 O.2   106  TYR106     -0.2715
    126  CB       -45.4380    6.7420   24.1410 C.3   106  TYR106      0.0574
    127  CG       -45.0970    6.3570   22.7220 C.ar  106  TYR106     -0.0198
    128  CD1      -44.8420    5.0390   22.3800 C.ar  106  TYR106     -0.0009
    129  CD2      -45.0460    7.3160   21.7170 C.ar  106  TYR106     -0.0009
    130  CE1      -44.5350    4.6900   21.0770 C.ar  106  TYR106      0.0417
    131  CE2      -44.7450    6.9770   20.4160 C.ar  106  TYR106      0.0417
    132  CZ       -44.4900    5.6670   20.0990 C.ar  106  TYR106      0.1957
    133  OH       -44.1900    5.3360   18.7980 O.3   106  TYR106     -0.2866
    134  N        -44.2850    8.5190   26.5930 N.am  107  PHE107     -0.1960
    135  CA       -44.4940    9.2930   27.7930 C.3   107  PHE107      0.1771
    136  C        -45.0030   10.6580   27.3690 C.2   107  PHE107      0.2619
    137  O        -44.8310   11.0590   26.2150 O.2   107  PHE107     -0.2715
    138  CB       -43.1680    9.4640   28.5390 C.3   107  PHE107      0.0574
    139  CG       -42.5940    8.1790   29.0750 C.ar  107  PHE107     -0.0200
    140  CD1      -41.8260    7.3540   28.2640 C.ar  107  PHE107     -0.0042
    141  CD2      -42.8200    7.7980   30.3910 C.ar  107  PHE107     -0.0042
    142  CE1      -41.2950    6.1720   28.7550 C.ar  107  PHE107     -0.0003
    143  CE2      -42.2930    6.6190   30.8870 C.ar  107  PHE107     -0.0003
    144  CZ       -41.5260    5.8040   30.0680 C.ar  107  PHE107     -0.0000
    145  N        -45.6150   11.3800   28.3010 N.am  108  ALA108     -0.1977
    146  CA       -46.0760   12.7280   28.0100 C.3   108  ALA108      0.1597
    147  C        -45.9360   13.6630   29.2010 C.2   108  ALA108      0.2287
    148  O        -45.8860   13.2260   30.3510 O.2   108  ALA108     -0.2864
    149  CB       -47.5180   12.7030   27.5180 C.3   108  ALA108      0.0319
    150  N        -53.0550   13.3150   28.6030 N.3   113  LYS113     -0.1231
    151  CA       -52.5690   12.5930   27.4390 C.3   113  LYS113      0.1693
    152  C        -52.3440   11.1300   27.7940 C.2   113  LYS113      0.2592
    153  O        -52.8300   10.2290   27.1140 O.2   113  LYS113     -0.2718
    154  CB       -51.2890   13.2330   26.9010 C.3   113  LYS113      0.0285
    155  CG       -50.6930   12.5250   25.7110 C.3   113  LYS113      0.0035
    156  CD       -51.6580   12.4780   24.5390 C.3   113  LYS113      0.0206
    157  CE       -50.9660   11.9720   23.2710 C.3   113  LYS113      0.1093
    158  NZ       -51.9350   11.8000   22.1530 N.3   113  LYS113     -0.1314
    159  N        -51.6220   10.8910   28.8780 N.am  114  SER114     -0.1952
    160  CA       -51.3910    9.5280   29.3300 C.3   114  SER114      0.1924
    161  C        -52.6830    8.8430   29.8010 C.2   114  SER114      0.2314
    162  O        -52.8400    7.6270   29.6420 O.2   114  SER114     -0.2863
    163  CB       -50.3230    9.5160   30.4220 C.3   114  SER114      0.2116
    164  OG       -49.1510   10.1730   29.9610 O.3   114  SER114     -0.2180
    165  N        -54.6600    6.4840   27.7290 N.3   117  TYR117     -0.1241
    166  CA       -54.1290    5.1570   27.4390 C.3   117  TYR117      0.1605
    167  C        -54.2760    4.1810   28.5900 C.2   117  TYR117      0.2264
    168  O        -53.7840    3.0540   28.5250 O.2   117  TYR117     -0.2867
    169  CB       -52.6700    5.2480   26.9950 C.3   117  TYR117      0.0534
    170  CG       -52.4840    5.9720   25.6830 C.ar  117  TYR117     -0.0201
    171  CD1      -52.3590    7.3570   25.6440 C.ar  117  TYR117     -0.0009
    172  CD2      -52.4360    5.2730   24.4840 C.ar  117  TYR117     -0.0009
    173  CE1      -52.2020    8.0230   24.4500 C.ar  117  TYR117      0.0417
    174  CE2      -52.2700    5.9300   23.2830 C.ar  117  TYR117      0.0417
    175  CZ       -52.1530    7.3030   23.2690 C.ar  117  TYR117      0.1957
    176  OH       -51.9830    7.9610   22.0720 O.3   117  TYR117     -0.2866
    177  N        -55.9420    1.3350   26.9720 N.3   120  GLY120     -0.1210
    178  CA       -55.4090    0.8580   25.7100 C.3   120  GLY120      0.1956
    179  C        -55.3400    1.9920   24.7120 C.2   120  GLY120      0.2611
    180  O        -55.6430    3.1330   25.0770 O.2   120  GLY120     -0.2717
    181  N        -54.9430    1.7020   23.4700 N.am  121  ILE121     -0.1979
    182  CA       -54.9870    2.7260   22.4300 C.3   121  ILE121      0.1595
    183  C        -56.4030    3.2790   22.4130 C.2   121  ILE121      0.2287
    184  O        -57.3630    2.5340   22.6020 O.2   121  ILE121     -0.2864
    185  CB       -54.6610    2.1860   21.0010 C.3   121  ILE121      0.0276
    186  CG1      -53.8090    0.9150   21.0470 C.3   121  ILE121      0.0022
    187  CG2      -53.9800    3.2650   20.1680 C.3   121  ILE121      0.0022
    188  CD1      -52.3270    1.1720   21.0660 C.3   121  ILE121      0.0001
    189  N        -44.5590   13.7500   21.8340 N.3   184  GLU184     -0.1245
    190  CA       -44.5490   12.5190   22.5970 C.3   184  GLU184      0.1567
    191  C        -43.0890   12.2380   22.8520 C.2   184  GLU184      0.2260
    192  O        -42.2360   12.6920   22.0980 O.2   184  GLU184     -0.2867
    193  CB       -45.2010   11.3800   21.8150 C.3   184  GLU184      0.0388
    194  CG       -46.6190   11.6870   21.3350 C.3   184  GLU184      0.1160
    195  CD       -47.2680   10.4970   20.6540 C.2   184  GLU184      0.3649
    196  OE1      -46.5540    9.5020   20.4150 O.co2 184  GLU184     -0.2457
    197  OE2      -48.4850   10.5510   20.3560 O.co2 184  GLU184     -0.2457
@<TRIPOS>BOND
     1   133   132    1
     2   108   107    2
     3   132   131   ar
     4   132   130   ar
     5   187   185    1
     6   197   195   ar
     7   196   195   ar
     8   131   129   ar
     9   110   111    1
    10   107   106    1
    11   195   194    1
    12   185   186    1
    13   185   182    1
    14   186   188    1
    15   130   128   ar
    16   194   193    1
    17   129   127   ar
    18   111   112    1
    19   193   190    1
    20   189   190    1
    21   106   109    1
    22   106   105    1
    23   176   175    1
    24   192   191    2
    25   158   157    1
    26   128   127   ar
    27   183   182    1
    28   183   184    2
    29   182   181    1
    30   190   191    1
    31   113   112    2
    32   127   126    1
    33   105    97   am
    34   112   114   am
    35    98    97    2
    36    97    96    1
    37   175   174   ar
    38   175   173   ar
    39   157   156    1
    40   174   172   ar
    41   181   179   am
    42   114   115    1
    43    95    96    1
    44    96    99    1
    45   126   123    1
    46   173   171   ar
    47   172   170   ar
    48   156   155    1
    49   179   180    2
    50   179   178    1
    51   123   122    1
    52   123   124    1
    53   115   116    1
    54   115   118    1
    55   122   116   am
    56   116   117    2
    57    99   100    1
    58   171   170   ar
    59   170   169    1
    60   178   177    1
    61   155   154    1
    62   119   118    1
    63   119   121    1
    64   137   136    2
    65    90    89    2
    66   101   100   ar
    67   101   103   ar
    68   100   102   ar
    69   118   120    1
    70   124   134   am
    71   124   125    2
    72   134   135    1
    73    89    88    1
    74   154   151    1
    75   169   166    1
    76    49    48   ar
    77    49    47   ar
    78    93    92   ar
    79   153   152    2
    80   103   104   ar
    81   136   135    1
    82   136   145   am
    83    48    46   ar
    84   151   152    1
    85   151   150    1
    86   166   165    1
    87   166   167    1
    88   102   104   ar
    89   149   146    1
    90   135   138    1
    91   152   159   am
    92    92    94   ar
    93    92    91    1
    94    47    45   ar
    95   146   145    1
    96   146   147    1
    97    88    91    1
    98    88    87    1
    99   140   142   ar
   100   140   139   ar
   101    37    38    1
   102    37    36    1
   103   168   167    2
   104    38    32    1
   105   138   139    1
   106    46    44   ar
   107   142   144   ar
   108    25    24    2
   109   159   160    1
   110    20    18   ar
   111    20    21   ar
   112   139   141   ar
   113    31    30    1
   114    87    78   am
   115    45    44   ar
   116   147   148    2
   117   160   161    1
   118   160   163    1
   119    18    17   ar
   120    44    43    1
   121    36    33    1
   122   162   161    2
   123    27    30    1
   124    27    26    1
   125    27    28    1
   126   164   163    1
   127    32    28   am
   128    32    33    1
   129    24    26   am
   130    24    23    1
   131    21    19   ar
   132   144   143   ar
   133    78    79    2
   134    78    77    1
   135   141   143   ar
   136    28    29    2
   137     4     3    2
   138    33    34    1
   139    17    19   ar
   140    17    16    1
   141    80    77    1
   142    80    81    1
   143    22    23    1
   144    22    14   am
   145    82    81   ar
   146    82    84   ar
   147    43    40    1
   148    77    76    1
   149    81    83   ar
   150    39    34   am
   151    39    40    1
   152    84    86   ar
   153    34    35    2
   154    13    16    1
   155    13    14    1
   156    13    12    1
   157    14    15    2
   158     3    12   am
   159     3     2    1
   160    62    60    1
   161    40    41    1
   162    83    85   ar
   163     1     2    1
   164    86    85   ar
   165    60    59    1
   166    76    74   am
   167     5     2    1
   168     5     6    1
   169    75    74    2
   170    74    73    1
   171    41    42    2
   172     8     6   ar
   173     8    10   ar
   174     6     7   ar
   175    54    51    1
   176    59    61    1
   177    59    56    1
   178    66    65    2
   179    73    72    1
   180    56    55    1
   181    56    57    1
   182    55    52   am
   183    10    11   ar
   184    71    70    1
   185    69    70    1
   186    69    68    1
   187     7     9   ar
   188    67    68    1
   189    67    64    1
   190    65    72   am
   191    65    64    1
   192    52    51    1
   193    52    53    2
   194    51    50    1
   195    64    63    1
   196    57    58    2
   197    11     9   ar
