@<TRIPOS>MOLECULE
tmp/4lihH00.pdb
 123 118 0 0 0
SMALL
GASTEIGER

@<TRIPOS>ATOM
      1  N        -76.6210   49.3890   46.0030 N.3   117  VAL117     -0.1245
      2  CA       -76.2960   48.0010   45.7260 C.3   117  VAL117      0.1561
      3  C        -76.8420   47.5220   44.3970 C.2   117  VAL117      0.2260
      4  O        -76.1020   47.0640   43.5390 O.2   117  VAL117     -0.2867
      5  CB       -76.8430   47.0840   46.8300 C.3   117  VAL117      0.0252
      6  CG1      -76.7500   45.6130   46.4360 C.3   117  VAL117      0.0019
      7  CG2      -76.1190   47.3570   48.1460 C.3   117  VAL117      0.0019
      8  N        -86.4470   39.1080   43.9510 N.3   166  ASN166     -0.1225
      9  CA       -85.7440   39.5510   45.1660 C.3   166  ASN166      0.1785
     10  C        -84.6410   40.5490   44.8810 C.2   166  ASN166      0.2597
     11  O        -84.4090   41.4870   45.6640 O.2   166  ASN166     -0.2718
     12  CB       -85.2640   38.3820   46.0220 C.3   166  ASN166      0.1169
     13  CG       -84.2200   37.5430   45.3500 C.2   166  ASN166      0.2627
     14  OD1      -84.1750   37.4370   44.1060 O.2   166  ASN166     -0.2716
     15  ND2      -83.3360   36.9420   46.1640 N.am  166  ASN166     -0.0877
     16  N        -84.0130   40.3940   43.7250 N.am  167  PHE167     -0.1976
     17  CA       -83.0580   41.3380   43.1990 C.3   167  PHE167      0.1639
     18  C        -83.3370   41.4180   41.6860 C.2   167  PHE167      0.2290
     19  O        -82.5540   40.8710   40.8750 O.2   167  PHE167     -0.2864
     20  CB       -81.5890   40.8610   43.4600 C.3   167  PHE167      0.0560
     21  CG       -81.1870   40.8610   44.8930 C.ar  167  PHE167     -0.0200
     22  CD1      -80.6150   41.9750   45.4640 C.ar  167  PHE167     -0.0042
     23  CD2      -81.3840   39.7270   45.6940 C.ar  167  PHE167     -0.0042
     24  CE1      -80.2410   41.9910   46.7950 C.ar  167  PHE167     -0.0003
     25  CE2      -81.0380   39.7390   47.0530 C.ar  167  PHE167     -0.0003
     26  CZ       -80.4600   40.8780   47.5960 C.ar  167  PHE167     -0.0000
     27  N        -80.4920   43.3260   39.3900 N.3   170  LEU170     -0.1231
     28  CA       -79.1410   42.7890   39.6360 C.3   170  LEU170      0.1693
     29  C        -79.0170   41.3570   39.0890 C.2   170  LEU170      0.2591
     30  O        -78.0390   41.0120   38.3610 O.2   170  LEU170     -0.2718
     31  CB       -78.8020   42.8680   41.1420 C.3   170  LEU170      0.0284
     32  CG       -77.3320   42.5650   41.4620 C.3   170  LEU170      0.0019
     33  CD1      -76.4370   43.5940   40.7950 C.3   170  LEU170      0.0001
     34  CD2      -77.0540   42.5650   42.9590 C.3   170  LEU170      0.0001
     35  N        -80.0090   40.5210   39.3950 N.am  171  MET171     -0.1979
     36  CA       -80.0260   39.1560   38.8580 C.3   171  MET171      0.1605
     37  C        -80.2260   39.1320   37.3480 C.2   171  MET171      0.2287
     38  O        -79.6010   38.3210   36.6550 O.2   171  MET171     -0.2864
     39  CB       -81.0400   38.2640   39.5740 C.3   171  MET171      0.0413
     40  CG       -80.6490   37.8810   41.0000 C.3   171  MET171      0.0598
     41  SD       -79.0010   37.1570   41.2250 S.3   171  MET171     -0.1393
     42  CE       -78.9690   35.8520   39.9620 C.3   171  MET171      0.0692
     43  N        -76.8700   39.8730   36.0510 N.3   174  TRP174     -0.1241
     44  CA       -75.9300   38.7680   36.2260 C.3   174  TRP174      0.1605
     45  C        -76.1260   37.7390   35.0910 C.2   174  TRP174      0.2264
     46  O        -75.1840   37.0340   34.7100 O.2   174  TRP174     -0.2867
     47  CB       -76.0990   38.0980   37.5610 C.3   174  TRP174      0.0550
     48  CG       -75.4960   38.7760   38.6880 C.ar  174  TRP174      0.0003
     49  CD1      -75.0480   40.0510   38.7460 C.ar  174  TRP174      0.0946
     50  CD2      -75.2400   38.1940   39.9570 C.ar  174  TRP174      0.0152
     51  NE1      -74.5340   40.3030   39.9780 N.ar  174  TRP174     -0.2442
     52  CE2      -74.6510   39.1840   40.7540 C.ar  174  TRP174      0.0810
     53  CE3      -75.4610   36.9220   40.5000 C.ar  174  TRP174      0.0012
     54  CZ2      -74.2780   38.9580   42.0900 C.ar  174  TRP174      0.0191
     55  CZ3      -75.0970   36.6860   41.8070 C.ar  174  TRP174      0.0001
     56  CH2      -74.4740   37.7020   42.5880 C.ar  174  TRP174      0.0015
     57  N        -82.9400   31.7660   37.8200 N.3   240  THR240     -0.1218
     58  CA       -82.6660   31.9540   39.2440 C.3   240  THR240      0.1862
     59  C        -84.0500   31.9280   39.9100 C.2   240  THR240      0.2287
     60  O        -84.9510   32.5850   39.4410 O.2   240  THR240     -0.2866
     61  CB       -81.9020   33.2750   39.5360 C.3   240  THR240      0.1770
     62  OG1      -80.5650   33.2240   38.9830 O.3   240  THR240     -0.2211
     63  CG2      -81.8320   33.5720   41.0510 C.3   240  THR240      0.0375
     64  N        -80.9530   41.6920   55.9160 N.3   293  TYR293     -0.1241
     65  CA       -80.7790   42.4400   54.6440 C.3   293  TYR293      0.1605
     66  C        -81.7550   41.9160   53.5910 C.2   293  TYR293      0.2264
     67  O        -81.9540   40.7160   53.4840 O.2   293  TYR293     -0.2867
     68  CB       -79.3660   42.3350   54.0620 C.3   293  TYR293      0.0534
     69  CG       -79.1940   43.2180   52.8210 C.ar  293  TYR293     -0.0201
     70  CD1      -79.1810   44.5810   52.9450 C.ar  293  TYR293     -0.0009
     71  CD2      -79.0600   42.6830   51.5330 C.ar  293  TYR293     -0.0009
     72  CE1      -79.0420   45.4030   51.8520 C.ar  293  TYR293      0.0417
     73  CE2      -78.9010   43.5110   50.4170 C.ar  293  TYR293      0.0417
     74  CZ       -78.8990   44.8770   50.6030 C.ar  293  TYR293      0.1957
     75  OH       -78.7490   45.7720   49.5730 O.3   293  TYR293     -0.2866
     76  N        -83.1220   36.4160   50.2180 N.3   298  MET298     -0.1230
     77  CA       -81.7620   36.3150   49.7230 C.3   298  MET298      0.1702
     78  C        -81.4920   34.8450   49.6310 C.2   298  MET298      0.2592
     79  O        -81.5570   34.1580   50.6570 O.2   298  MET298     -0.2718
     80  CB       -80.7800   36.9210   50.7240 C.3   298  MET298      0.0401
     81  CG       -80.4290   38.3820   50.5390 C.3   298  MET298      0.0596
     82  SD       -79.1740   38.8940   51.7540 S.3   298  MET298     -0.1393
     83  CE       -79.9470   38.3830   53.2920 C.3   298  MET298      0.0692
     84  N        -81.1840   34.3540   48.4300 N.am  299  CYS299     -0.1956
     85  CA       -80.8440   32.9680   48.2720 C.3   299  CYS299      0.1843
     86  C        -79.6880   32.5890   49.2300 C.2   299  CYS299      0.2626
     87  O        -79.7210   31.5150   49.8430 O.2   299  CYS299     -0.2714
     88  CB       -80.5670   32.6360   46.8000 C.3   299  CYS299      0.0997
     89  SG       -81.9750   33.0440   45.7180 S.3   299  CYS299     -0.0797
     90  N        -78.7160   33.5010   49.4080 N.am  300  THR300     -0.1950
     91  CA       -77.5720   33.2510   50.3100 C.3   300  THR300      0.1897
     92  C        -77.7580   33.6990   51.7430 C.2   300  THR300      0.2313
     93  O        -76.7810   33.8780   52.4200 O.2   300  THR300     -0.2863
     94  CB       -76.2650   33.9720   49.8470 C.3   300  THR300      0.1794
     95  OG1      -76.5650   35.3160   49.4470 O.3   300  THR300     -0.2208
     96  CG2      -75.6600   33.2620   48.7610 C.3   300  THR300      0.0378
     97  N        -71.5250   37.7920   52.9160 N.3   454  ASP454     -0.1239
     98  CA       -72.0780   38.5430   51.7820 C.3   454  ASP454      0.1674
     99  C        -71.2230   39.7950   51.5380 C.2   454  ASP454      0.2266
    100  O        -71.7250   40.9040   51.3240 O.2   454  ASP454     -0.2867
    101  CB       -73.5640   38.8720   52.0560 C.3   454  ASP454      0.1410
    102  CG       -74.2610   39.5700   50.8810 C.2   454  ASP454      0.3668
    103  OD1      -73.8980   39.2850   49.7300 O.co2 454  ASP454     -0.2456
    104  OD2      -75.1700   40.4190   51.1300 O.co2 454  ASP454     -0.2456
    105  N        -69.1090   42.6160   50.0410 N.3   456  GLY456     -0.1210
    106  CA       -68.9630   43.3560   48.7730 C.3   456  GLY456      0.1956
    107  C        -69.7240   42.7100   47.6200 C.2   456  GLY456      0.2612
    108  O        -70.8020   42.1210   47.8220 O.2   456  GLY456     -0.2717
    109  N        -69.1860   42.8290   46.4150 N.am  457  GLY457     -0.1956
    110  CA       -69.8670   42.3020   45.2570 C.3   457  GLY457      0.1869
    111  C        -68.9680   42.0800   44.0690 C.2   457  GLY457      0.2309
    112  O        -69.3970   42.2180   42.9220 O.2   457  GLY457     -0.2863
    113  N        -70.2520   32.4570   41.7560 N.3   463  PHE463     -0.1241
    114  CA       -71.3100   32.3850   42.7120 C.3   463  PHE463      0.1605
    115  C        -72.3100   31.3690   42.1920 C.2   463  PHE463      0.2264
    116  O        -72.7650   31.4850   41.0550 O.2   463  PHE463     -0.2867
    117  CB       -71.9680   33.7600   42.8020 C.3   463  PHE463      0.0534
    118  CG       -73.1150   33.8520   43.7840 C.ar  463  PHE463     -0.0203
    119  CD1      -74.3640   33.4070   43.4330 C.ar  463  PHE463     -0.0042
    120  CD2      -72.9390   34.4220   45.0240 C.ar  463  PHE463     -0.0042
    121  CE1      -75.4190   33.5030   44.3240 C.ar  463  PHE463     -0.0003
    122  CE2      -73.9920   34.5310   45.9160 C.ar  463  PHE463     -0.0003
    123  CZ       -75.2220   34.0520   45.5740 C.ar  463  PHE463     -0.0000
@<TRIPOS>BOND
     1    46    45    2
     2    45    44    1
     3    43    44    1
     4    44    47    1
     5    38    37    2
     6    37    36    1
     7    47    48    1
     8    57    58    1
     9    30    29    2
    10    48    49   ar
    11    48    50   ar
    12    49    51   ar
    13    36    35    1
    14    36    39    1
    15    62    61    1
    16    29    35   am
    17    29    28    1
    18    58    61    1
    19    58    59    1
    20    27    28    1
    21    60    59    2
    22    61    63    1
    23    39    40    1
    24    28    31    1
    25    50    53   ar
    26    50    52   ar
    27    42    41    1
    28    51    52   ar
    29    53    55   ar
    30    52    54   ar
    31    33    32    1
    32    19    18    2
    33    40    41    1
    34   116   115    2
    35    31    32    1
    36    32    34    1
    37    18    17    1
    38   113   114    1
    39    55    56   ar
    40    54    56   ar
    41   115   114    1
    42   114   117    1
    43   117   118    1
    44   112   111    2
    45    17    20    1
    46    17    16    1
    47   119   118   ar
    48   119   121   ar
    49    20    21    1
    50     4     3    2
    51    16    10   am
    52   118   120   ar
    53     8     9    1
    54   111   110    1
    55    14    13    2
    56   121   123   ar
    57     3     2    1
    58    10     9    1
    59    10    11    2
    60    21    22   ar
    61    21    23   ar
    62   120   122   ar
    63     9    12    1
    64   110   109    1
    65    13    12    1
    66    13    15   am
    67    22    24   ar
    68   123   122   ar
    69    23    25   ar
    70    89    88    1
    71     2     1    1
    72     2     5    1
    73   109   107   am
    74     6     5    1
    75    24    26   ar
    76    88    85    1
    77     5     7    1
    78    25    26   ar
    79   107   108    2
    80   107   106    1
    81    85    84    1
    82    85    86    1
    83    84    78   am
    84    96    94    1
    85   106   105    1
    86    86    90   am
    87    86    87    2
    88    90    91    1
    89    95    94    1
    90    75    74    1
    91    78    77    1
    92    78    79    2
    93    77    76    1
    94    77    80    1
    95   103   102   ar
    96    94    91    1
    97    91    92    1
    98    73    74   ar
    99    73    71   ar
   100    81    80    1
   101    81    82    1
   102    74    72   ar
   103   102   104   ar
   104   102   101    1
   105   100    99    2
   106    71    69   ar
   107    99    98    1
   108    92    93    2
   109    82    83    1
   110    98   101    1
   111    98    97    1
   112    72    70   ar
   113    69    70   ar
   114    69    68    1
   115    67    66    2
   116    66    65    1
   117    68    65    1
   118    65    64    1
