@<TRIPOS>MOLECULE
tmp/4lilA00.pdb
 95 90 0 0 0
SMALL
GASTEIGER

@<TRIPOS>ATOM
      1  N         19.6570   55.8820   11.6820 N.3   101  ASP101     -0.1239
      2  CA        18.2480   55.9630   11.3090 C.3   101  ASP101      0.1674
      3  C         17.5940   54.6350   11.6290 C.2   101  ASP101      0.2266
      4  O         17.6710   53.7270   10.8330 O.2   101  ASP101     -0.2867
      5  CB        18.1250   56.2220    9.8080 C.3   101  ASP101      0.1410
      6  CG        16.6910   56.4370    9.3650 C.2   101  ASP101      0.3668
      7  OD1       15.7650   56.2620   10.1850 O.co2 101  ASP101     -0.2456
      8  OD2       16.4720   56.7730    8.1850 O.co2 101  ASP101     -0.2456
      9  N         14.3730   52.5100   11.8200 N.3   103  ASP103     -0.1239
     10  CA        13.0790   52.5330   11.1770 C.3   103  ASP103      0.1674
     11  C         12.3440   51.2100   11.5270 C.2   103  ASP103      0.2266
     12  O         12.9190   50.1270   11.4620 O.2   103  ASP103     -0.2867
     13  CB        13.2910   52.7700    9.6700 C.3   103  ASP103      0.1410
     14  CG        12.0620   52.4750    8.8390 C.2   103  ASP103      0.3668
     15  OD1       10.9450   52.4820    9.3890 O.co2 103  ASP103     -0.2456
     16  OD2       12.2150   52.2420    7.6190 O.co2 103  ASP103     -0.2456
     17  N         11.3220   60.4430   14.3250 N.3   150  SER150     -0.1217
     18  CA        11.2420   60.6690   12.8880 C.3   150  SER150      0.1889
     19  C          9.9110   61.2580   12.3830 C.2   150  SER150      0.2288
     20  O          9.7960   61.5790   11.2180 O.2   150  SER150     -0.2866
     21  CB        11.5550   59.3920   12.1320 C.3   150  SER150      0.2089
     22  OG        10.3850   58.5820   12.0330 O.3   150  SER150     -0.2183
     23  N          7.1710   59.5130   12.3170 N.3   152  ARG152     -0.1231
     24  CA         6.3090   58.3990   11.9220 C.3   152  ARG152      0.1694
     25  C          6.6540   57.0510   12.5500 C.2   152  ARG152      0.2592
     26  O          6.0530   56.6390   13.5330 O.2   152  ARG152     -0.2718
     27  CB         6.3060   58.2560   10.4100 C.3   152  ARG152      0.0321
     28  CG         5.2160   57.3480    9.8720 C.3   152  ARG152      0.0489
     29  CD         5.3700   57.2640    8.3710 C.3   152  ARG152      0.2205
     30  NE         4.0900   57.2330    7.6830 N.pl3 152  ARG152     -0.0865
     31  CZ         3.9680   57.2900    6.3610 C.cat 152  ARG152      0.5346
     32  NH1        5.0600   57.3830    5.6100 N.pl3 152  ARG152      0.1354
     33  NH2        2.7670   57.2570    5.7940 N.pl3 152  ARG152      0.1354
     34  N          7.6300   56.3550   11.9850 N.am  153  ARG153     -0.1966
     35  CA         7.8680   55.0100   12.4530 C.3   153  ARG153      0.1732
     36  C          9.2910   54.7320   12.8840 C.2   153  ARG153      0.2655
     37  O          9.7950   53.6310   12.7130 O.2   153  ARG153     -0.2711
     38  CB         7.3220   53.9740   11.4570 C.3   153  ARG153      0.0348
     39  CG         8.1960   53.5970   10.2560 C.3   153  ARG153      0.0492
     40  CD         8.7560   54.7350    9.3740 C.3   153  ARG153      0.2205
     41  NE         9.0380   54.1650    8.0440 N.pl3 153  ARG153     -0.0865
     42  CZ        10.0490   54.5050    7.2500 C.cat 153  ARG153      0.5346
     43  NH1       10.9050   55.4440    7.6070 N.pl3 153  ARG153      0.1354
     44  NH2       10.1990   53.9010    6.0830 N.pl3 153  ARG153      0.1354
     45  N          9.9250   55.7200   13.5050 N.am  154  GLY154     -0.1730
     46  CA        11.2510   55.4900   14.0170 C.2   154  GLY154      0.1340
     47  C         11.9320   56.6740   14.6330 C.2   154  GLY154      0.2521
     48  O         11.3130   57.7050   14.8680 O.2   154  GLY154     -0.2816
     49  N         15.9620   58.9120   14.8860 N.3   156  HIS156     -0.1241
     50  CA        17.2630   59.2720   14.3080 C.3   156  HIS156      0.1621
     51  C         18.1940   59.6530   15.4220 C.2   156  HIS156      0.2264
     52  O         17.7630   60.1700   16.4460 O.2   156  HIS156     -0.2867
     53  CB        17.1490   60.4960   13.4290 C.3   156  HIS156      0.0745
     54  CG        16.1380   60.3670   12.3390 C.ar  156  HIS156      0.0817
     55  ND1       15.3020   61.4000   11.9920 N.ar  156  HIS156     -0.2268
     56  CD2       15.8340   59.3390   11.5210 C.ar  156  HIS156      0.1154
     57  CE1       14.5220   61.0120   10.9980 C.ar  156  HIS156      0.1986
     58  NE2       14.8190   59.7650   10.6920 N.ar  156  HIS156     -0.2212
     59  N         25.2030   62.0830    2.8430 N.3   300  HIS300     -0.1241
     60  CA        23.8250   61.6140    2.9950 C.3   300  HIS300      0.1621
     61  C         22.8690   62.6390    3.6340 C.2   300  HIS300      0.2264
     62  O         23.1210   63.1310    4.7400 O.2   300  HIS300     -0.2867
     63  CB        23.8130   60.3140    3.7970 C.3   300  HIS300      0.0745
     64  CG        22.4660   59.6650    3.8740 C.ar  300  HIS300      0.0817
     65  ND1       22.0250   58.7580    2.9370 N.ar  300  HIS300     -0.2268
     66  CD2       21.4640   59.8010    4.7750 C.ar  300  HIS300      0.1154
     67  CE1       20.8040   58.3610    3.2570 C.ar  300  HIS300      0.1986
     68  NE2       20.4410   58.9770    4.3640 N.ar  300  HIS300     -0.2212
     69  N         19.5740   63.7920    5.6390 N.3   302  LEU302     -0.1231
     70  CA        18.7260   63.2130    6.6580 C.3   302  LEU302      0.1693
     71  C         17.6900   64.2360    7.0720 C.2   302  LEU302      0.2591
     72  O         18.0130   65.4050    7.1690 O.2   302  LEU302     -0.2718
     73  CB        19.5430   62.7710    7.8760 C.3   302  LEU302      0.0284
     74  CG        18.7750   61.9870    8.9650 C.3   302  LEU302      0.0019
     75  CD1       18.0500   60.7470    8.4110 C.3   302  LEU302      0.0001
     76  CD2       19.6690   61.5990   10.1600 C.3   302  LEU302      0.0001
     77  N         16.4470   63.7920    7.2770 N.am  303  LYS303     -0.1980
     78  CA        15.3750   64.6340    7.8040 C.3   303  LYS303      0.1596
     79  C         15.8810   65.4900    8.9420 C.2   303  LYS303      0.2287
     80  O         16.5920   64.9910    9.8380 O.2   303  LYS303     -0.2864
     81  CB        14.2070   63.7890    8.3090 C.3   303  LYS303      0.0298
     82  CG        12.9250   64.6380    8.6490 C.3   303  LYS303      0.0038
     83  CD        11.7880   63.7960    9.3000 C.3   303  LYS303      0.0206
     84  CE        10.7680   63.3760    8.2820 C.3   303  LYS303      0.1093
     85  NZ         9.4700   64.1760    8.3470 N.3   303  LYS303     -0.1314
     86  N          6.1380   66.0900    9.6810 N.3   309  HIS309     -0.1241
     87  CA         5.9390   64.9570    8.8050 C.3   309  HIS309      0.1621
     88  C          4.7740   65.2530    7.9010 C.2   309  HIS309      0.2264
     89  O          3.6920   65.6020    8.3600 O.2   309  HIS309     -0.2867
     90  CB         5.7340   63.6550    9.5630 C.3   309  HIS309      0.0745
     91  CG         5.9470   62.4380    8.7150 C.ar  309  HIS309      0.0817
     92  ND1        4.9250   61.8220    8.0240 N.ar  309  HIS309     -0.2268
     93  CD2        7.0750   61.7410    8.4280 C.ar  309  HIS309      0.1154
     94  CE1        5.4080   60.7830    7.3610 C.ar  309  HIS309      0.1986
     95  NE2        6.7110   60.7170    7.5900 N.ar  309  HIS309     -0.2212
@<TRIPOS>BOND
     1    59    60    1
     2    65    67   ar
     3    65    64   ar
     4    60    61    1
     5    60    63    1
     6    67    68   ar
     7    61    62    2
     8    63    64    1
     9    64    66   ar
    10    68    66   ar
    11    32    31    1
    12    69    70    1
    13    33    31    1
    14    44    42    1
    15    31    30    2
    16    70    71    1
    17    70    73    1
    18    71    72    2
    19    71    77   am
    20    42    43    1
    21    42    41    2
    22    77    78    1
    23    94    95   ar
    24    94    92   ar
    25    95    93   ar
    26    16    14   ar
    27    30    29    1
    28    78    81    1
    29    78    79    1
    30    73    74    1
    31    88    89    2
    32    88    87    1
    33    92    91   ar
    34    41    40    1
    35     8     6   ar
    36    84    85    1
    37    84    83    1
    38    81    82    1
    39    29    28    1
    40    75    74    1
    41    93    91   ar
    42    82    83    1
    43    91    90    1
    44    87    90    1
    45    87    86    1
    46    14    15   ar
    47    14    13    1
    48    79    80    2
    49    74    76    1
    50     6     5    1
    51     6     7   ar
    52    40    39    1
    53    13    10    1
    54     5     2    1
    55    28    27    1
    56    39    38    1
    57    27    24    1
    58    58    57   ar
    59    58    56   ar
    60     4     3    2
    61    57    55   ar
    62    10    11    1
    63    10     9    1
    64    20    19    2
    65     2     3    1
    66     2     1    1
    67    38    35    1
    68    12    11    2
    69    56    54   ar
    70    24    23    1
    71    24    25    1
    72    34    35    1
    73    34    25   am
    74    55    54   ar
    75    22    21    1
    76    21    18    1
    77    54    53    1
    78    19    18    1
    79    35    36    1
    80    25    26    2
    81    37    36    2
    82    36    45    1
    83    18    17    1
    84    53    50    1
    85    45    46    2
    86    46    47    1
    87    50    49    1
    88    50    51    1
    89    47    48    2
    90    51    52    2
