@<TRIPOS>MOLECULE
tmp/4lipB00.pdb
 106 102 0 0 0
SMALL
GASTEIGER

@<TRIPOS>ATOM
      1  N         22.8260    4.9620   -4.3440 N.3    16  LEU16      -0.1245
      2  CA        23.7150    5.7980   -5.1450 C.3    16  LEU16       0.1561
      3  C         24.4540    5.0070   -6.2330 C.2    16  LEU16       0.2260
      4  O         24.9100    3.8980   -5.9830 O.2    16  LEU16      -0.2867
      5  CB        24.7150    6.4600   -4.2000 C.3    16  LEU16       0.0270
      6  CG        25.6620    7.5250   -4.7420 C.3    16  LEU16       0.0019
      7  CD1       24.9210    8.8240   -5.0290 C.3    16  LEU16       0.0001
      8  CD2       26.7590    7.7330   -3.6960 C.3    16  LEU16       0.0001
      9  N         22.5250   -5.1140   -9.8100 N.3    28  TYR28      -0.1241
     10  CA        22.9130   -4.2890   -8.7170 C.3    28  TYR28       0.1605
     11  C         22.7950   -5.2280   -7.5190 C.2    28  TYR28       0.2264
     12  O         23.7030   -5.3310   -6.6900 O.2    28  TYR28      -0.2867
     13  CB        22.0220   -3.0590   -8.4980 C.3    28  TYR28       0.0534
     14  CG        22.3460   -2.2000   -7.2870 C.ar   28  TYR28      -0.0201
     15  CD1       21.8320   -2.5110   -6.0220 C.ar   28  TYR28      -0.0009
     16  CD2       23.0840   -1.0200   -7.4290 C.ar   28  TYR28      -0.0009
     17  CE1       22.0340   -1.6570   -4.9300 C.ar   28  TYR28       0.0417
     18  CE2       23.2950   -0.1710   -6.3530 C.ar   28  TYR28       0.0417
     19  CZ        22.7660   -0.4920   -5.1080 C.ar   28  TYR28       0.1957
     20  OH        22.9570    0.3610   -4.0380 O.3    28  TYR28      -0.2866
     21  N         18.7040   -0.6020   -0.3180 N.3    85  HIS85      -0.1226
     22  CA        20.1150   -0.6070    0.0560 C.3    85  HIS85       0.1752
     23  C         20.6120    0.8240    0.0030 C.2    85  HIS85       0.2597
     24  O         20.3610    1.5360   -0.9630 O.2    85  HIS85      -0.2718
     25  CB        20.9720   -1.4470   -0.9130 C.3    85  HIS85       0.0759
     26  CG        22.4550   -1.3140   -0.6640 C.ar   85  HIS85       0.0818
     27  ND1       23.3220   -0.7880   -1.5950 N.ar   85  HIS85      -0.2268
     28  CD2       23.2230   -1.6440    0.4100 C.ar   85  HIS85       0.1154
     29  CE1       24.5530   -0.7920   -1.1170 C.ar   85  HIS85       0.1986
     30  NE2       24.5210   -1.3070    0.1010 N.ar   85  HIS85      -0.2212
     31  N         21.2940    1.2480    1.0550 N.am   86  SER86      -0.1938
     32  CA        21.8760    2.5710    1.1050 C.3    86  SER86       0.2055
     33  C         20.8080    3.6690    0.8730 C.2    86  SER86       0.2642
     34  O         19.7920    3.6800    1.5670 O.2    86  SER86      -0.2714
     35  CB        23.0190    2.6360    0.0820 C.3    86  SER86       0.2130
     36  OG        23.9220    3.7130    0.3920 O.3    86  SER86      -0.2179
     37  N         21.0190    4.5660   -0.0920 N.am   87  GLN87      -0.1976
     38  CA        20.0480    5.6340   -0.3420 C.3    87  GLN87       0.1601
     39  C         18.6680    5.0730   -0.6620 C.2    87  GLN87       0.2287
     40  O         17.6550    5.7380   -0.4180 O.2    87  GLN87      -0.2864
     41  CB        20.5190    6.5580   -1.4630 C.3    87  GLN87       0.0394
     42  CG        19.7820    7.8750   -1.4650 C.3    87  GLN87       0.0908
     43  CD        20.1950    8.7920   -2.6070 C.2    87  GLN87       0.2608
     44  OE1       19.5680    9.8350   -2.8350 O.2    87  GLN87      -0.2717
     45  NE2       21.2320    8.4100   -3.3350 N.am   87  GLN87      -0.0878
     46  N         22.0650    5.2890    5.0380 N.3   112  PRO112     -0.2116
     47  CA        22.5270    6.4390    5.8320 C.3   112  PRO112      0.1372
     48  C         21.3660    7.3410    6.2850 C.2   112  PRO112      0.2244
     49  O         21.1940    8.4430    5.7670 O.2   112  PRO112     -0.2868
     50  CB        23.4840    7.1590    4.8830 C.3   112  PRO112      0.0268
     51  CG        22.9120    6.8680    3.5210 C.3   112  PRO112      0.0207
     52  CD        22.4410    5.4300    3.6180 C.3   112  PRO112      0.0892
     53  N         26.1670   10.5020    5.7600 N.3   116  SER116     -0.1217
     54  CA        27.4880    9.9060    5.6750 C.3   116  SER116      0.1889
     55  C         28.6050   10.9140    5.8880 C.2   116  SER116      0.2288
     56  O         28.6460   11.9720    5.2450 O.2   116  SER116     -0.2866
     57  CB        27.6700    9.2600    4.2910 C.3   116  SER116      0.2089
     58  OG        29.0150    8.8340    4.0890 O.3   116  SER116     -0.2183
     59  N         31.4430   10.3960    4.9320 N.3   118  PHE118     -0.1227
     60  CA        32.2010   10.3660    3.6860 C.3   118  PHE118      0.1736
     61  C         31.6210   11.3880    2.6940 C.2   118  PHE118      0.2595
     62  O         32.3620   12.0200    1.9390 O.2   118  PHE118     -0.2718
     63  CB        32.2990    8.9600    3.0830 C.3   118  PHE118      0.0547
     64  CG        33.4580    8.8210    2.1230 C.ar  118  PHE118     -0.0202
     65  CD1       34.7620    8.7740    2.6070 C.ar  118  PHE118     -0.0042
     66  CD2       33.2540    8.8740    0.7500 C.ar  118  PHE118     -0.0042
     67  CE1       35.8600    8.7980    1.7420 C.ar  118  PHE118     -0.0003
     68  CE2       34.3440    8.8960   -0.1340 C.ar  118  PHE118     -0.0003
     69  CZ        35.6500    8.8620    0.3600 C.ar  118  PHE118     -0.0000
     70  N         30.2960   11.5640    2.7000 N.am  119  ALA119     -0.1980
     71  CA        29.6570   12.5680    1.8520 C.3   119  ALA119      0.1597
     72  C         30.0800   13.9540    2.3430 C.2   119  ALA119      0.2287
     73  O         30.3700   14.8520    1.5360 O.2   119  ALA119     -0.2864
     74  CB        28.1350   12.4250    1.9110 C.3   119  ALA119      0.0319
     75  N         23.1520   13.1030    0.8010 N.3   166  LEU166     -0.1245
     76  CA        23.8300   12.1550    1.6650 C.3   166  LEU166      0.1561
     77  C         24.7020   12.7420    2.7850 C.2   166  LEU166      0.2260
     78  O         25.2520   11.9890    3.5970 O.2   166  LEU166     -0.2867
     79  CB        24.6060   11.1490    0.8080 C.3   166  LEU166      0.0270
     80  CG        23.7100   10.3510   -0.1630 C.3   166  LEU166      0.0019
     81  CD1       24.5380    9.6120   -1.2020 C.3   166  LEU166      0.0001
     82  CD2       22.8370    9.3660    0.6080 C.3   166  LEU166      0.0001
     83  N         31.2060    3.5080    4.0680 N.3   265  VAL265     -0.1231
     84  CA        30.5870    4.8150    3.8130 C.3   265  VAL265      0.1692
     85  C         29.3720    5.1280    4.6920 C.2   265  VAL265      0.2591
     86  O         28.8980    6.2630    4.6980 O.2   265  VAL265     -0.2718
     87  CB        30.1980    5.0210    2.2970 C.3   265  VAL265      0.0266
     88  CG1       31.4430    5.3260    1.4440 C.3   265  VAL265      0.0020
     89  CG2       29.4930    3.7940    1.7480 C.3   265  VAL265      0.0020
     90  N         28.8840    4.1450    5.4460 N.am  266  VAL266     -0.1980
     91  CA        27.7210    4.3530    6.3340 C.3   266  VAL266      0.1595
     92  C         28.0580    3.8090    7.7240 C.2   266  VAL266      0.2287
     93  O         28.4680    2.6550    7.8640 O.2   266  VAL266     -0.2864
     94  CB        26.4620    3.6290    5.8220 C.3   266  VAL266      0.0276
     95  CG1       25.3050    3.8210    6.8130 C.3   266  VAL266      0.0022
     96  CG2       26.0790    4.1510    4.4280 C.3   266  VAL266      0.0022
     97  N         30.1570   -2.0380    2.4650 N.3   285  HIS285     -0.1241
     98  CA        28.9720   -1.5160    1.7850 C.3   285  HIS285      0.1621
     99  C         28.4640   -2.3240    0.5830 C.2   285  HIS285      0.2264
    100  O         27.2370   -2.4400    0.3630 O.2   285  HIS285     -0.2867
    101  CB        29.2340   -0.0680    1.3800 C.3   285  HIS285      0.0745
    102  CG        27.9910    0.7130    1.0980 C.ar  285  HIS285      0.0817
    103  ND1       27.0550    0.9960    2.0670 N.ar  285  HIS285     -0.2268
    104  CD2       27.5630    1.3380   -0.0250 C.ar  285  HIS285      0.1154
    105  CE1       26.1090    1.7670    1.5650 C.ar  285  HIS285      0.1986
    106  NE2       26.3970    1.9880    0.2920 N.ar  285  HIS285     -0.2212
@<TRIPOS>BOND
     1     9    10    1
     2    10    13    1
     3    10    11    1
     4    13    14    1
     5    11    12    2
     6    16    14   ar
     7    16    18   ar
     8    14    15   ar
     9    18    19   ar
    10     3     4    2
    11     3     2    1
    12    15    17   ar
    13     2     1    1
    14     2     5    1
    15    19    17   ar
    16    19    20    1
    17     7     6    1
    18     6     5    1
    19     6     8    1
    20    45    43   am
    21    44    43    2
    22    43    42    1
    23    27    29   ar
    24    27    26   ar
    25    42    41    1
    26    41    38    1
    27    81    80    1
    28    29    30   ar
    29    24    23    2
    30    25    26    1
    31    25    22    1
    32    26    28   ar
    33    39    40    2
    34    39    38    1
    35    38    37    1
    36    21    22    1
    37    80    82    1
    38    80    79    1
    39    68    69   ar
    40    68    66   ar
    41    37    33   am
    42   104   106   ar
    43   104   102   ar
    44    23    22    1
    45    23    31   am
    46    35    36    1
    47    35    32    1
    48    30    28   ar
    49   106   105   ar
    50    69    67   ar
    51   100    99    2
    52    99    98    1
    53    66    64   ar
    54    75    76    1
    55    79    76    1
    56    33    32    1
    57    33    34    2
    58    31    32    1
    59   102   101    1
    60   102   103   ar
    61   101    98    1
    62    88    87    1
    63    73    72    2
    64   105   103   ar
    65    76    77    1
    66    67    65   ar
    67    89    87    1
    68    98    97    1
    69    71    74    1
    70    71    72    1
    71    71    70    1
    72    62    61    2
    73    64    65   ar
    74    64    63    1
    75    87    84    1
    76    61    70   am
    77    61    60    1
    78    77    78    2
    79    63    60    1
    80    51    52    1
    81    51    50    1
    82    52    46    1
    83    60    59    1
    84    84    83    1
    85    84    85    1
    86    58    57    1
    87    57    54    1
    88    96    94    1
    89    85    86    2
    90    85    90   am
    91    50    47    1
    92    46    47    1
    93    56    55    2
    94    90    91    1
    95    54    53    1
    96    54    55    1
    97    49    48    2
    98    94    91    1
    99    94    95    1
   100    47    48    1
   101    91    92    1
   102    92    93    2
