@<TRIPOS>MOLECULE
tmp/4liqA01.pdb
 96 97 0 0 0
SMALL
GASTEIGER

@<TRIPOS>ATOM
      1  N        -21.1550  -43.3790  -25.1560 N.3   394  PRO394     -0.2102
      2  CA       -21.8770  -44.6610  -25.3690 C.3   394  PRO394      0.1504
      3  C        -23.3640  -44.5330  -25.0170 C.2   394  PRO394      0.2576
      4  O        -23.8100  -43.4680  -24.5690 O.2   394  PRO394     -0.2718
      5  CB       -21.1300  -45.6530  -24.4670 C.3   394  PRO394      0.0282
      6  CG       -19.8830  -44.9460  -24.0180 C.3   394  PRO394      0.0208
      7  CD       -20.2130  -43.4870  -24.0310 C.3   394  PRO394      0.0893
      8  N        -24.1370  -45.5950  -25.2660 N.am  395  GLN395     -0.1967
      9  CA       -25.5730  -45.6380  -25.0190 C.3   395  GLN395      0.1718
     10  C        -25.9560  -45.2390  -23.5930 C.2   395  GLN395      0.2458
     11  O        -25.4840  -45.8570  -22.6380 O.2   395  GLN395     -0.2730
     12  CB       -26.1260  -47.0190  -25.3490 C.3   395  GLN395      0.0407
     13  CG       -27.6320  -47.0370  -25.4180 C.3   395  GLN395      0.0908
     14  CD       -28.1710  -48.4120  -25.6200 C.2   395  GLN395      0.2608
     15  OE1      -28.9830  -48.8930  -24.8260 O.2   395  GLN395     -0.2717
     16  NE2      -27.7850  -49.0520  -26.7160 N.am  395  GLN395     -0.0878
     17  N        -26.8270  -44.2190  -23.4310 N.am  396  PRO396     -0.2716
     18  CA       -27.2240  -43.8100  -22.0790 C.3   396  PRO396      0.1536
     19  C        -28.3580  -44.6300  -21.4770 C.2   396  PRO396      0.2599
     20  O        -29.0370  -45.3610  -22.1960 O.2   396  PRO396     -0.2715
     21  CB       -27.6830  -42.3470  -22.2740 C.3   396  PRO396      0.0310
     22  CG       -27.8120  -42.1280  -23.7190 C.3   396  PRO396      0.0237
     23  CD       -27.4700  -43.3680  -24.4590 C.3   396  PRO396      0.0939
     24  N        -28.5870  -44.4770  -20.1480 N.am  397  ASN397     -0.1959
     25  CA       -29.7280  -45.0700  -19.4440 C.3   397  ASN397      0.1819
     26  C        -30.7640  -43.9500  -19.1880 C.2   397  ASN397      0.2621
     27  O        -30.4670  -42.7870  -19.4440 O.2   397  ASN397     -0.2715
     28  CB       -29.3180  -45.8170  -18.1590 C.3   397  ASN397      0.1195
     29  CG       -28.6470  -45.0430  -17.0480 C.2   397  ASN397      0.2630
     30  OD1      -28.7880  -43.8200  -16.9130 O.2   397  ASN397     -0.2716
     31  ND2      -27.9130  -45.7840  -16.1980 N.am  397  ASN397     -0.0877
     32  N        -31.9690  -44.2770  -18.7370 N.am  398  VAL398     -0.1963
     33  CA       -32.9760  -43.2400  -18.5100 C.3   398  VAL398      0.1727
     34  C        -33.5710  -43.3710  -17.1170 C.2   398  VAL398      0.2616
     35  O        -33.6800  -44.4780  -16.5860 O.2   398  VAL398     -0.2715
     36  CB       -34.0470  -43.2270  -19.6460 C.3   398  VAL398      0.0290
     37  CG1      -35.3620  -42.5970  -19.2060 C.3   398  VAL398      0.0023
     38  CG2      -33.5210  -42.5370  -20.9060 C.3   398  VAL398      0.0023
     39  N        -33.9350  -42.2440  -16.5160 N.am  399  THR399     -0.1951
     40  CA       -34.5810  -42.1990  -15.2120 C.3   399  THR399      0.1897
     41  C        -35.6690  -41.1320  -15.2390 C.2   399  THR399      0.2313
     42  O        -35.4490  -40.0360  -15.7500 O.2   399  THR399     -0.2863
     43  CB       -33.5510  -42.0180  -14.0870 C.3   399  THR399      0.1794
     44  OG1      -32.5890  -43.0720  -14.1730 O.3   399  THR399     -0.2208
     45  CG2      -34.1910  -42.0150  -12.6960 C.3   399  THR399      0.0378
     46  N        -36.9170  -46.1690  -13.0290 N.3   420  ASP420     -0.1239
     47  CA       -35.6520  -46.4330  -13.6990 C.3   420  ASP420      0.1674
     48  C        -35.9010  -47.2490  -14.9760 C.2   420  ASP420      0.2266
     49  O        -36.7080  -48.1800  -14.9530 O.2   420  ASP420     -0.2867
     50  CB       -34.6700  -47.1660  -12.7700 C.3   420  ASP420      0.1410
     51  CG       -34.3490  -46.4500  -11.4690 C.2   420  ASP420      0.3668
     52  OD1      -33.7690  -45.3400  -11.5260 O.co2 420  ASP420     -0.2456
     53  OD2      -34.6120  -47.0300  -10.3930 O.co2 420  ASP420     -0.2456
     54  N        -33.0660  -48.7170  -17.3050 N.3   422  PRO422     -0.2102
     55  CA       -31.6360  -48.8490  -17.6370 C.3   422  PRO422      0.1504
     56  C        -31.3560  -49.1470  -19.1070 C.2   422  PRO422      0.2575
     57  O        -30.3260  -48.7520  -19.6340 O.2   422  PRO422     -0.2718
     58  CB       -31.1640  -49.9850  -16.7160 C.3   422  PRO422      0.0282
     59  CG       -32.3760  -50.7460  -16.3890 C.3   422  PRO422      0.0208
     60  CD       -33.5110  -49.7870  -16.3840 C.3   422  PRO422      0.0893
     61  N        -32.2700  -49.8580  -19.7550 N.am  423  TYR423     -0.1977
     62  CA       -32.1170  -50.2240  -21.1470 C.3   423  TYR423      0.1639
     63  C        -33.3740  -49.8860  -21.8770 C.2   423  TYR423      0.2290
     64  O        -34.2250  -50.7630  -22.0310 O.2   423  TYR423     -0.2864
     65  CB       -31.7500  -51.7160  -21.3260 C.3   423  TYR423      0.0560
     66  CG       -30.5480  -52.1360  -20.5140 C.ar  423  TYR423     -0.0198
     67  CD1      -29.2530  -51.9300  -20.9880 C.ar  423  TYR423     -0.0009
     68  CD2      -30.6990  -52.6590  -19.2290 C.ar  423  TYR423     -0.0009
     69  CE1      -28.1390  -52.3090  -20.2360 C.ar  423  TYR423      0.0417
     70  CE2      -29.5930  -53.0060  -18.4550 C.ar  423  TYR423      0.0417
     71  CZ       -28.3160  -52.8460  -18.9690 C.ar  423  TYR423      0.1957
     72  OH       -27.2290  -53.2230  -18.2150 O.3   423  TYR423     -0.2866
     73  N        -27.9700  -40.7890  -18.3250 N.3   457  HIS457     -0.1226
     74  CA       -26.5550  -40.8950  -17.9860 C.3   457  HIS457      0.1752
     75  C        -25.8520  -41.9220  -18.8260 C.2   457  HIS457      0.2596
     76  O        -26.4280  -42.9320  -19.1840 O.2   457  HIS457     -0.2718
     77  CB       -26.3820  -41.3680  -16.5350 C.3   457  HIS457      0.0759
     78  CG       -27.2340  -40.6650  -15.5270 C.ar  457  HIS457      0.0818
     79  ND1      -26.8350  -39.4760  -14.9550 N.ar  457  HIS457     -0.2268
     80  CD2      -28.4110  -41.0480  -14.9770 C.ar  457  HIS457      0.1154
     81  CE1      -27.7990  -39.1440  -14.1160 C.ar  457  HIS457      0.1986
     82  NE2      -28.7590  -40.0700  -14.0800 N.ar  457  HIS457     -0.2212
     83  N        -24.5820  -41.6890  -19.0690 N.am  458  ASN458     -0.1960
     84  CA       -23.6420  -42.6040  -19.6910 C.3   458  ASN458      0.1819
     85  C        -22.2930  -42.3150  -18.9890 C.2   458  ASN458      0.2622
     86  O        -22.2800  -41.5690  -17.9930 O.2   458  ASN458     -0.2715
     87  CB       -23.5960  -42.4720  -21.2240 C.3   458  ASN458      0.1195
     88  CG       -23.0770  -41.1740  -21.7640 C.2   458  ASN458      0.2630
     89  OD1      -22.5230  -40.3140  -21.0430 O.2   458  ASN458     -0.2716
     90  ND2      -23.1960  -41.0390  -23.0750 N.am  458  ASN458     -0.0877
     91  N        -21.1850  -42.9050  -19.4840 N.am  459  SER459     -0.1950
     92  CA       -19.8590  -42.7420  -18.9040 C.3   459  SER459      0.1924
     93  C        -19.3050  -41.3260  -19.0470 C.2   459  SER459      0.2314
     94  O        -18.4300  -40.9440  -18.2780 O.2   459  SER459     -0.2863
     95  CB       -18.8970  -43.7530  -19.5200 C.3   459  SER459      0.2116
     96  OG       -18.7620  -43.5820  -20.9220 O.3   459  SER459     -0.2180
@<TRIPOS>BOND
     1    16    14   am
     2    14    13    1
     3    14    15    2
     4    13    12    1
     5     2     1    1
     6     2     3    1
     7     2     5    1
     8    12     9    1
     9     8     9    1
    10     8     3   am
    11     1     7    1
    12     9    10    1
    13     3     4    2
    14     5     6    1
    15    23    22    1
    16    23    17    1
    17     7     6    1
    18    22    21    1
    19    10    17   am
    20    10    11    2
    21    17    18    1
    22    90    88   am
    23    21    18    1
    24    20    19    2
    25    18    19    1
    26    64    63    2
    27    63    62    1
    28    88    87    1
    29    88    89    2
    30    19    24   am
    31    65    62    1
    32    65    66    1
    33    87    84    1
    34    62    61    1
    35    67    66   ar
    36    67    69   ar
    37    96    95    1
    38    38    36    1
    39    66    68   ar
    40    69    71   ar
    41    24    25    1
    42    61    56   am
    43    84    83    1
    44    84    85    1
    45    36    37    1
    46    36    33    1
    47    57    56    2
    48    95    92    1
    49    91    85   am
    50    91    92    1
    51    25    26    1
    52    25    28    1
    53    27    26    2
    54    68    70   ar
    55    26    32   am
    56    76    75    2
    57    56    55    1
    58    83    75   am
    59    93    92    1
    60    93    94    2
    61    85    86    2
    62    71    70   ar
    63    71    72    1
    64    75    74    1
    65    32    33    1
    66    33    34    1
    67    73    74    1
    68    28    29    1
    69    74    77    1
    70    55    54    1
    71    55    58    1
    72    54    60    1
    73    34    35    2
    74    34    39   am
    75    29    30    2
    76    29    31   am
    77    58    59    1
    78    77    78    1
    79    39    40    1
    80    59    60    1
    81    42    41    2
    82    78    80   ar
    83    78    79   ar
    84    41    40    1
    85    40    43    1
    86    80    82   ar
    87    48    49    2
    88    48    47    1
    89    79    81   ar
    90    44    43    1
    91    81    82   ar
    92    43    45    1
    93    47    46    1
    94    47    50    1
    95    50    51    1
    96    52    51   ar
    97    51    53   ar
