@<TRIPOS>MOLECULE
tmp/4liqA00.pdb
 93 94 0 0 0
SMALL
GASTEIGER

@<TRIPOS>ATOM
      1  N          4.3390  -39.4890  -53.8910 N.3   306  GLY306     -0.1210
      2  CA         3.0780  -38.9000  -53.4700 C.3   306  GLY306      0.1956
      3  C          2.5940  -39.4360  -52.1490 C.2   306  GLY306      0.2612
      4  O          2.8300  -40.6030  -51.8280 O.2   306  GLY306     -0.2717
      5  N          1.8990  -38.5770  -51.3850 N.am  307  PHE307     -0.1962
      6  CA         1.2350  -38.9200  -50.1170 C.3   307  PHE307      0.1771
      7  C          0.0880  -37.9560  -49.8150 C.2   307  PHE307      0.2620
      8  O          0.1340  -36.7710  -50.1810 O.2   307  PHE307     -0.2715
      9  CB         2.2130  -39.0230  -48.9210 C.3   307  PHE307      0.0574
     10  CG         3.0740  -37.7990  -48.7130 C.ar  307  PHE307     -0.0200
     11  CD1        2.5850  -36.6890  -48.0330 C.ar  307  PHE307     -0.0042
     12  CD2        4.3750  -37.7560  -49.1920 C.ar  307  PHE307     -0.0042
     13  CE1        3.3710  -35.5410  -47.8730 C.ar  307  PHE307     -0.0003
     14  CE2        5.1710  -36.6170  -49.0060 C.ar  307  PHE307     -0.0003
     15  CZ         4.6600  -35.5130  -48.3570 C.ar  307  PHE307     -0.0000
     16  N         -0.9460  -38.4680  -49.1350 N.am  308  ASN308     -0.1958
     17  CA        -2.0950  -37.6580  -48.7140 C.3   308  ASN308      0.1819
     18  C         -2.8460  -38.2710  -47.4970 C.2   308  ASN308      0.2621
     19  O         -2.5570  -39.4040  -47.0910 O.2   308  ASN308     -0.2715
     20  CB        -3.0470  -37.3750  -49.9190 C.3   308  ASN308      0.1195
     21  CG        -3.8800  -38.5260  -50.4280 C.2   308  ASN308      0.2630
     22  OD1       -4.0030  -39.5910  -49.8000 O.2   308  ASN308     -0.2716
     23  ND2       -4.4990  -38.3310  -51.5740 N.am  308  ASN308     -0.0877
     24  N         -3.8150  -37.4930  -46.9370 N.am  309  TRP309     -0.1960
     25  CA        -4.7980  -37.8550  -45.9050 C.3   309  TRP309      0.1771
     26  C         -6.1550  -37.5940  -46.5540 C.2   309  TRP309      0.2620
     27  O         -6.3480  -36.5540  -47.2080 O.2   309  TRP309     -0.2715
     28  CB        -4.6790  -37.0020  -44.6410 C.3   309  TRP309      0.0590
     29  CG        -3.6410  -37.4540  -43.6630 C.ar  309  TRP309      0.0006
     30  CD1       -2.4030  -36.9200  -43.4890 C.ar  309  TRP309      0.0946
     31  CD2       -3.7750  -38.4900  -42.6690 C.ar  309  TRP309      0.0152
     32  NE1       -1.7460  -37.5640  -42.4660 N.ar  309  TRP309     -0.2442
     33  CE2       -2.5450  -38.5640  -41.9770 C.ar  309  TRP309      0.0810
     34  CE3       -4.8020  -39.3850  -42.3200 C.ar  309  TRP309      0.0012
     35  CZ2       -2.3330  -39.4610  -40.9230 C.ar  309  TRP309      0.0191
     36  CZ3       -4.5780  -40.2980  -41.2970 C.ar  309  TRP309      0.0001
     37  CH2       -3.3610  -40.3270  -40.6080 C.ar  309  TRP309      0.0015
     38  N         -7.0720  -38.5500  -46.4110 N.am  310  THR310     -0.1951
     39  CA        -8.4060  -38.4660  -46.9830 C.3   310  THR310      0.1897
     40  C         -9.4330  -38.7840  -45.9100 C.2   310  THR310      0.2313
     41  O         -9.2670  -39.7480  -45.1580 O.2   310  THR310     -0.2863
     42  CB        -8.5740  -39.4320  -48.1950 C.3   310  THR310      0.1794
     43  OG1       -7.4930  -39.2550  -49.1040 O.3   310  THR310     -0.2208
     44  CG2       -9.9040  -39.2350  -48.9520 C.3   310  THR310      0.0378
     45  N        -11.7660  -32.0040  -46.8480 N.3   319  GLN319     -0.1231
     46  CA       -10.5080  -32.7280  -46.9680 C.3   319  GLN319      0.1683
     47  C         -9.2850  -32.0850  -46.2920 C.2   319  GLN319      0.2434
     48  O         -9.0990  -30.8710  -46.3860 O.2   319  GLN319     -0.2733
     49  CB       -10.2170  -32.9890  -48.4440 C.3   319  GLN319      0.0380
     50  CG       -10.0490  -34.4530  -48.7650 C.3   319  GLN319      0.0905
     51  CD       -11.2900  -35.2820  -48.6110 C.2   319  GLN319      0.2608
     52  OE1      -11.4690  -35.9790  -47.6190 O.2   319  GLN319     -0.2717
     53  NE2      -12.1310  -35.2840  -49.6260 N.am  319  GLN319     -0.0878
     54  N         -8.4140  -32.9140  -45.6520 N.am  320  PRO320     -0.2729
     55  CA        -7.1960  -32.3790  -45.0120 C.3   320  PRO320      0.1401
     56  C         -6.1860  -31.7220  -45.9600 C.2   320  PRO320      0.2269
     57  O         -6.2040  -31.9970  -47.1600 O.2   320  PRO320     -0.2865
     58  CB        -6.5790  -33.6210  -44.3470 C.3   320  PRO320      0.0296
     59  CG        -7.6920  -34.5860  -44.2030 C.3   320  PRO320      0.0237
     60  CD        -8.5130  -34.3740  -45.4350 C.3   320  PRO320      0.0939
     61  N         -2.5430  -42.3490  -47.2640 N.3   351  LEU351     -0.1245
     62  CA        -1.9670  -43.0620  -48.3870 C.3   351  LEU351      0.1561
     63  C         -0.5920  -42.5070  -48.7300 C.2   351  LEU351      0.2260
     64  O         -0.4010  -41.2870  -48.7390 O.2   351  LEU351     -0.2867
     65  CB        -2.8900  -42.9420  -49.6080 C.3   351  LEU351      0.0270
     66  CG        -2.5060  -43.7760  -50.8220 C.3   351  LEU351      0.0019
     67  CD1       -3.7080  -44.3820  -51.4370 C.3   351  LEU351      0.0001
     68  CD2       -1.7350  -42.9490  -51.8210 C.3   351  LEU351      0.0001
     69  N          2.7240  -43.4110  -51.7110 N.3   353  ARG353     -0.1245
     70  CA         3.1460  -44.1650  -52.8810 C.3   353  ARG353      0.1563
     71  C          4.5730  -43.8080  -53.3090 C.2   353  ARG353      0.2260
     72  O          4.9950  -42.6530  -53.1810 O.2   353  ARG353     -0.2867
     73  CB         2.1320  -44.0440  -54.0270 C.3   353  ARG353      0.0307
     74  CG         2.1920  -42.7250  -54.7750 C.3   353  ARG353      0.0489
     75  CD         1.1510  -42.5820  -55.8580 C.3   353  ARG353      0.2205
     76  NE         1.1160  -41.1950  -56.3260 N.pl3 353  ARG353     -0.0865
     77  CZ         1.8680  -40.7180  -57.3140 C.cat 353  ARG353      0.5346
     78  NH1        2.7020  -41.5200  -57.9710 N.pl3 353  ARG353      0.1354
     79  NH2        1.7870  -39.4390  -57.6600 N.pl3 353  ARG353      0.1354
     80  N          1.7330  -48.6540  -53.7680 N.3   358  TRP358     -0.1241
     81  CA         1.0480  -47.7410  -52.8450 C.3   358  TRP358      0.1605
     82  C          0.6190  -48.4760  -51.5930 C.2   358  TRP358      0.2264
     83  O          0.4170  -49.6940  -51.6180 O.2   358  TRP358     -0.2867
     84  CB        -0.1490  -47.0080  -53.4900 C.3   358  TRP358      0.0550
     85  CG        -1.2980  -47.8970  -53.8670 C.ar  358  TRP358      0.0003
     86  CD1       -1.4500  -48.5890  -55.0370 C.ar  358  TRP358      0.0946
     87  CD2       -2.4540  -48.2030  -53.0650 C.ar  358  TRP358      0.0152
     88  NE1       -2.6230  -49.3130  -55.0130 N.ar  358  TRP358     -0.2442
     89  CE2       -3.2570  -49.1000  -53.8120 C.ar  358  TRP358      0.0810
     90  CE3       -2.8720  -47.8370  -51.7730 C.ar  358  TRP358      0.0012
     91  CZ2       -4.4680  -49.6130  -53.3170 C.ar  358  TRP358      0.0191
     92  CZ3       -4.0620  -48.3560  -51.2790 C.ar  358  TRP358      0.0001
     93  CH2       -4.8480  -49.2300  -52.0480 C.ar  358  TRP358      0.0015
@<TRIPOS>BOND
     1    78    77    1
     2    79    77    1
     3    77    76    2
     4    76    75    1
     5    75    74    1
     6    86    88   ar
     7    86    85   ar
     8    88    89   ar
     9    74    73    1
    10    73    70    1
    11     1     2    1
    12    85    84    1
    13    85    87   ar
    14    89    91   ar
    15    89    87   ar
    16    80    81    1
    17    84    81    1
    18     2     3    1
    19    91    93   ar
    20    71    72    2
    21    71    70    1
    22    87    90   ar
    23    70    69    1
    24    81    82    1
    25     3     4    2
    26     3     5   am
    27    93    92   ar
    28    68    66    1
    29    90    92   ar
    30    83    82    2
    31    23    21   am
    32    67    66    1
    33     5     6    1
    34    66    65    1
    35    21    20    1
    36    21    22    2
    37     8     7    2
    38     6     7    1
    39     6     9    1
    40    20    17    1
    41     7    16   am
    42    53    51   am
    43    65    62    1
    44    12    14   ar
    45    12    10   ar
    46    16    17    1
    47    43    42    1
    48    14    15   ar
    49    44    42    1
    50     9    10    1
    51    50    51    1
    52    50    49    1
    53    64    63    2
    54    63    62    1
    55    17    18    1
    56    10    11   ar
    57    51    52    2
    58    49    46    1
    59    62    61    1
    60    15    13   ar
    61    42    39    1
    62    11    13   ar
    63    18    19    2
    64    18    24   am
    65    27    26    2
    66    57    56    2
    67    39    38    1
    68    39    40    1
    69    46    45    1
    70    46    47    1
    71    24    25    1
    72    26    38   am
    73    26    25    1
    74    48    47    2
    75    47    54   am
    76    56    55    1
    77    40    41    2
    78    25    28    1
    79    54    60    1
    80    54    55    1
    81    60    59    1
    82    55    58    1
    83    28    29    1
    84    58    59    1
    85    29    30   ar
    86    29    31   ar
    87    30    32   ar
    88    31    34   ar
    89    31    33   ar
    90    32    33   ar
    91    34    36   ar
    92    33    35   ar
    93    36    37   ar
    94    35    37   ar
