@<TRIPOS>MOLECULE
tmp/4lisA00.pdb
 236 228 0 0 0
SMALL
GASTEIGER

@<TRIPOS>ATOM
      1  N          1.9210    3.0760   15.5460 N.3    87  LYS87      -0.1245
      2  CA         2.1580    1.6640   15.8470 C.3    87  LYS87       0.1561
      3  C          1.0660    0.9560   16.6530 C.2    87  LYS87       0.2260
      4  O          1.1690   -0.2430   16.9110 O.2    87  LYS87      -0.2867
      5  CB         3.5040    1.4940   16.5550 C.3    87  LYS87       0.0271
      6  CG         3.5930    2.2120   17.8890 C.3    87  LYS87       0.0035
      7  CD         4.8410    1.8100   18.6510 C.3    87  LYS87       0.0206
      8  CE         4.8840    2.4630   20.0200 C.3    87  LYS87       0.1093
      9  NZ         6.0730    2.0310   20.8040 N.3    87  LYS87      -0.1314
     10  N         -1.9170   -1.0960   17.2010 N.3    89  VAL89      -0.1245
     11  CA        -2.6840   -2.0620   16.4170 C.3    89  VAL89       0.1561
     12  C         -4.1940   -1.8600   16.5470 C.2    89  VAL89       0.2260
     13  O         -4.9030   -1.7770   15.5450 O.2    89  VAL89      -0.2867
     14  CB        -2.3290   -3.5080   16.8160 C.3    89  VAL89       0.0252
     15  CG1       -3.2790   -4.4970   16.1580 C.3    89  VAL89       0.0019
     16  CG2       -0.8850   -3.8170   16.4520 C.3    89  VAL89       0.0019
     17  N          7.3840   -4.4820   10.8660 N.3   127  SER127     -0.1202
     18  CA         6.9770   -5.2390   12.0420 C.3   127  SER127      0.2020
     19  C          6.8090   -6.7170   11.7110 C.2   127  SER127      0.2619
     20  O          6.8400   -7.1070   10.5450 O.2   127  SER127     -0.2717
     21  CB         5.6770   -4.6730   12.6170 C.3   127  SER127      0.2103
     22  OG         5.2260   -5.4420   13.7180 O.3   127  SER127     -0.2182
     23  N          6.6300   -7.5340   12.7430 N.am  128  ALA128     -0.1965
     24  CA         6.4340   -8.9670   12.5570 C.3   128  ALA128      0.1728
     25  C          4.9600   -9.2840   12.3320 C.2   128  ALA128      0.2616
     26  O          4.5850  -10.4400   12.1380 O.2   128  ALA128     -0.2715
     27  CB         6.9690   -9.7370   13.7510 C.3   128  ALA128      0.0334
     28  N          4.1290   -8.2460   12.3580 N.am  129  THR129     -0.1951
     29  CA         2.6920   -8.4040   12.1630 C.3   129  THR129      0.1897
     30  C          2.3540   -8.6850   10.7020 C.2   129  THR129      0.2313
     31  O          1.2180   -9.0300   10.3760 O.2   129  THR129     -0.2863
     32  CB         1.9210   -7.1560   12.6300 C.3   129  THR129      0.1794
     33  OG1        0.5180   -7.3450   12.4070 O.3   129  THR129     -0.2208
     34  CG2        2.3880   -5.9290   11.8680 C.3   129  THR129      0.0378
     35  N         -2.7310   -1.7090   10.5700 N.3   155  TYR155     -0.1241
     36  CA        -1.3470   -1.3600   10.8720 C.3   155  TYR155      0.1605
     37  C         -0.3740   -2.2720   10.1310 C.2   155  TYR155      0.2264
     38  O          0.6400   -1.8150    9.6050 O.2   155  TYR155     -0.2867
     39  CB        -1.0810   -1.4220   12.3780 C.3   155  TYR155      0.0534
     40  CG         0.3890   -1.4310   12.7320 C.ar  155  TYR155     -0.0201
     41  CD1        1.0080   -2.5900   13.1800 C.ar  155  TYR155     -0.0009
     42  CD2        1.1610   -0.2830   12.6050 C.ar  155  TYR155     -0.0009
     43  CE1        2.3530   -2.6040   13.4990 C.ar  155  TYR155      0.0417
     44  CE2        2.5070   -0.2890   12.9210 C.ar  155  TYR155      0.0417
     45  CZ         3.0970   -1.4510   13.3680 C.ar  155  TYR155      0.1957
     46  OH         4.4360   -1.4620   13.6850 O.3   155  TYR155     -0.2866
     47  N         10.9260   -5.9410   12.9770 N.3   196  TYR196     -0.1227
     48  CA        11.0580   -6.0320   14.4260 C.3   196  TYR196      0.1736
     49  C         10.0240   -6.9960   14.9800 C.2   196  TYR196      0.2595
     50  O          8.9840   -7.2250   14.3650 O.2   196  TYR196     -0.2718
     51  CB        10.8530   -4.6660   15.0900 C.3   196  TYR196      0.0548
     52  CG        11.6890   -3.5390   14.5320 C.ar  196  TYR196     -0.0200
     53  CD1       12.9090   -3.7810   13.9160 C.ar  196  TYR196     -0.0009
     54  CD2       11.2540   -2.2250   14.6280 C.ar  196  TYR196     -0.0009
     55  CE1       13.6680   -2.7450   13.4060 C.ar  196  TYR196      0.0417
     56  CE2       12.0040   -1.1860   14.1260 C.ar  196  TYR196      0.0417
     57  CZ        13.2090   -1.4490   13.5150 C.ar  196  TYR196      0.1957
     58  OH        13.9530   -0.4080   13.0130 O.3   196  TYR196     -0.2866
     59  N         10.3140   -7.5570   16.1470 N.am  197  PHE197     -0.1962
     60  CA         9.3350   -8.3600   16.8640 C.3   197  PHE197      0.1771
     61  C          8.8700   -7.6020   18.1030 C.2   197  PHE197      0.2620
     62  O          8.2700   -6.5360   17.9840 O.2   197  PHE197     -0.2715
     63  CB         9.8970   -9.7430   17.2050 C.3   197  PHE197      0.0574
     64  CG         9.9040  -10.6920   16.0370 C.ar  197  PHE197     -0.0200
     65  CD1        8.9730  -11.7160   15.9530 C.ar  197  PHE197     -0.0042
     66  CD2       10.8250  -10.5460   15.0120 C.ar  197  PHE197     -0.0042
     67  CE1        8.9700  -12.5840   14.8750 C.ar  197  PHE197     -0.0003
     68  CE2       10.8260  -11.4090   13.9310 C.ar  197  PHE197     -0.0003
     69  CZ         9.8970  -12.4290   13.8630 C.ar  197  PHE197     -0.0000
     70  N          9.1530   -8.1280   19.2880 N.am  198  ASN198     -0.1959
     71  CA         8.7270   -7.4530   20.5120 C.3   198  ASN198      0.1804
     72  C          9.8850   -6.8510   21.3040 C.2   198  ASN198      0.2463
     73  O         10.6490   -7.5720   21.9420 O.2   198  ASN198     -0.2730
     74  CB         7.8980   -8.3910   21.3910 C.3   198  ASN198      0.1195
     75  CG         6.6790   -8.9350   20.6690 C.2   198  ASN198      0.2630
     76  OD1        6.7790   -9.4440   19.5520 O.2   198  ASN198     -0.2716
     77  ND2        5.5180   -8.8190   21.3010 N.am  198  ASN198     -0.0877
     78  N         10.0170   -5.5160   21.2590 N.am  199  PRO199     -0.2727
     79  CA        11.0740   -4.7970   21.9770 C.3   199  PRO199      0.1402
     80  C         10.7560   -4.6630   23.4620 C.2   199  PRO199      0.2269
     81  O          9.5850   -4.6540   23.8390 O.2   199  PRO199     -0.2865
     82  CB        11.0610   -3.4190   21.3150 C.3   199  PRO199      0.0296
     83  CG         9.6520   -3.2390   20.8740 C.3   199  PRO199      0.0237
     84  CD         9.1700   -4.6060   20.4670 C.3   199  PRO199      0.0939
     85  N         -0.1080    0.4340   26.1980 N.3   217  TYR217     -0.1227
     86  CA        -0.9400   -0.7150   25.8570 C.3   217  TYR217      0.1736
     87  C         -0.1270   -2.0020   25.7290 C.2   217  TYR217      0.2595
     88  O         -0.6900   -3.0970   25.6880 O.2   217  TYR217     -0.2718
     89  CB        -1.7210   -0.4490   24.5660 C.3   217  TYR217      0.0548
     90  CG        -0.8660    0.0530   23.4240 C.ar  217  TYR217     -0.0200
     91  CD1       -0.2090   -0.8320   22.5810 C.ar  217  TYR217     -0.0009
     92  CD2       -0.7190    1.4130   23.1880 C.ar  217  TYR217     -0.0009
     93  CE1        0.5720   -0.3780   21.5370 C.ar  217  TYR217      0.0417
     94  CE2        0.0600    1.8770   22.1460 C.ar  217  TYR217      0.0417
     95  CZ         0.7040    0.9770   21.3230 C.ar  217  TYR217      0.1957
     96  OH         1.4810    1.4320   20.2840 O.3   217  TYR217     -0.2866
     97  N          1.1930   -1.8670   25.6630 N.am  218  ASN218     -0.1960
     98  CA         2.0720   -3.0280   25.5790 C.3   218  ASN218      0.1819
     99  C          2.2090   -3.7340   26.9250 C.2   218  ASN218      0.2621
    100  O          1.8720   -3.1710   27.9640 O.2   218  ASN218     -0.2715
    101  CB         3.4460   -2.6310   25.0320 C.3   218  ASN218      0.1195
    102  CG         3.3860   -2.1630   23.5910 C.2   218  ASN218      0.2630
    103  OD1        3.3550   -0.9650   23.3130 O.2   218  ASN218     -0.2716
    104  ND2        3.3630   -3.1120   22.6650 N.am  218  ASN218     -0.0877
    105  N          2.7050   -4.9680   26.8980 N.am  219  LEU219     -0.1963
    106  CA         2.7740   -5.8000   28.0970 C.3   219  LEU219      0.1728
    107  C          3.6890   -5.2290   29.1800 C.2   219  LEU219      0.2616
    108  O          3.2510   -4.9740   30.3020 O.2   219  LEU219     -0.2715
    109  CB         3.2170   -7.2200   27.7360 C.3   219  LEU219      0.0311
    110  CG         3.3280   -8.2060   28.9010 C.3   219  LEU219      0.0022
    111  CD1        1.9910   -8.3410   29.6110 C.3   219  LEU219      0.0001
    112  CD2        3.8220   -9.5620   28.4190 C.3   219  LEU219      0.0001
    113  N          4.9590   -5.0370   28.8390 N.am  220  LEU220     -0.1977
    114  CA         5.9510   -4.5530   29.8020 C.3   220  LEU220      0.1596
    115  C          5.6810   -3.1550   30.3900 C.2   220  LEU220      0.2287
    116  O          5.8140   -2.9720   31.6010 O.2   220  LEU220     -0.2864
    117  CB         7.3750   -4.6490   29.2320 C.3   220  LEU220      0.0297
    118  CG         8.0290   -6.0350   29.1960 C.3   220  LEU220      0.0022
    119  CD1        7.8250   -6.7620   30.5200 C.3   220  LEU220      0.0001
    120  CD2        7.5300   -6.8770   28.0270 C.3   220  LEU220      0.0001
    121  N          2.8530   -1.7780   30.8410 N.3   222  LEU222     -0.1245
    122  CA         1.7210   -1.9460   31.7470 C.3   222  LEU222      0.1561
    123  C          2.1480   -2.6150   33.0500 C.2   222  LEU222      0.2260
    124  O          1.6710   -2.2560   34.1260 O.2   222  LEU222     -0.2867
    125  CB         0.5930   -2.7380   31.0810 C.3   222  LEU222      0.0270
    126  CG        -0.2610   -1.9710   30.0700 C.3   222  LEU222      0.0019
    127  CD1       -1.3800   -2.8470   29.5270 C.3   222  LEU222      0.0001
    128  CD2       -0.8240   -0.7050   30.6980 C.3   222  LEU222      0.0001
    129  N         -2.7200   -6.3640   36.3330 N.3   234  LEU234     -0.1231
    130  CA        -2.6070   -6.6210   34.9010 C.3   234  LEU234      0.1693
    131  C         -3.7440   -7.5180   34.4210 C.2   234  LEU234      0.2592
    132  O         -4.1920   -8.4060   35.1450 O.2   234  LEU234     -0.2718
    133  CB        -1.2610   -7.2710   34.5740 C.3   234  LEU234      0.0284
    134  CG        -0.9770   -7.5120   33.0890 C.3   234  LEU234      0.0019
    135  CD1       -0.6330   -6.2050   32.3870 C.3   234  LEU234      0.0001
    136  CD2        0.1230   -8.5430   32.8940 C.3   234  LEU234      0.0001
    137  N         -4.2080   -7.2810   33.1990 N.am  235  LEU235     -0.1966
    138  CA        -5.2600   -8.1030   32.6090 C.3   235  LEU235      0.1728
    139  C         -4.7030   -9.0420   31.5420 C.2   235  LEU235      0.2616
    140  O         -4.4720   -8.6340   30.4060 O.2   235  LEU235     -0.2715
    141  CB        -6.3610   -7.2210   32.0120 C.3   235  LEU235      0.0311
    142  CG        -7.6820   -7.1850   32.7830 C.3   235  LEU235      0.0022
    143  CD1       -7.4640   -6.7240   34.2130 C.3   235  LEU235      0.0001
    144  CD2       -8.6930   -6.2930   32.0830 C.3   235  LEU235      0.0001
    145  N         -4.4900  -10.3000   31.9150 N.am  236  VAL236     -0.1963
    146  CA        -3.9830  -11.2990   30.9810 C.3   236  VAL236      0.1727
    147  C         -5.0520  -11.6690   29.9590 C.2   236  VAL236      0.2616
    148  O         -6.1510  -12.0890   30.3210 O.2   236  VAL236     -0.2715
    149  CB        -3.5110  -12.5700   31.7090 C.3   236  VAL236      0.0290
    150  CG1       -2.9750  -13.5880   30.7130 C.3   236  VAL236      0.0023
    151  CG2       -2.4540  -12.2250   32.7470 C.3   236  VAL236      0.0023
    152  N         -4.7210  -11.5140   28.6810 N.am  237  PHE237     -0.1974
    153  CA        -5.6780  -11.7430   27.6010 C.3   237  PHE237      0.1639
    154  C         -5.6830  -13.1980   27.1310 C.2   237  PHE237      0.2290
    155  O         -4.9530  -13.5650   26.2100 O.2   237  PHE237     -0.2864
    156  CB        -5.3820  -10.8130   26.4230 C.3   237  PHE237      0.0560
    157  CG        -5.4650   -9.3480   26.7650 C.ar  237  PHE237     -0.0200
    158  CD1       -4.6640   -8.4250   26.1110 C.ar  237  PHE237     -0.0042
    159  CD2       -6.3480   -8.8930   27.7310 C.ar  237  PHE237     -0.0042
    160  CE1       -4.7370   -7.0800   26.4180 C.ar  237  PHE237     -0.0003
    161  CE2       -6.4260   -7.5490   28.0430 C.ar  237  PHE237     -0.0003
    162  CZ        -5.6200   -6.6400   27.3870 C.ar  237  PHE237     -0.0000
    163  N         -4.7550  -20.7370   25.4590 N.3   241  TYR241     -0.1241
    164  CA        -3.9350  -20.9170   24.2640 C.3   241  TYR241      0.1605
    165  C         -3.2150  -22.2640   24.2650 C.2   241  TYR241      0.2264
    166  O         -3.1770  -22.9590   25.2810 O.2   241  TYR241     -0.2867
    167  CB        -2.9300  -19.7730   24.1110 C.3   241  TYR241      0.0534
    168  CG        -3.5490  -18.4800   23.6280 C.ar  241  TYR241     -0.0201
    169  CD1       -3.9010  -18.3150   22.2940 C.ar  241  TYR241     -0.0009
    170  CD2       -3.7730  -17.4230   24.5010 C.ar  241  TYR241     -0.0009
    171  CE1       -4.4650  -17.1380   21.8440 C.ar  241  TYR241      0.0417
    172  CE2       -4.3370  -16.2400   24.0590 C.ar  241  TYR241      0.0417
    173  CZ        -4.6800  -16.1030   22.7290 C.ar  241  TYR241      0.1957
    174  OH        -5.2410  -14.9280   22.2830 O.3   241  TYR241     -0.2866
    175  N         -0.3220  -16.7100   25.4640 N.3   248  ALA248     -0.1245
    176  CA         0.2710  -16.5460   24.1370 C.3   248  ALA248      0.1562
    177  C          1.7940  -16.4380   24.1830 C.2   248  ALA248      0.2260
    178  O          2.3740  -16.1530   25.2290 O.2   248  ALA248     -0.2867
    179  CB        -0.3300  -15.3390   23.4320 C.3   248  ALA248      0.0290
    180  N          5.4350  -14.8330   22.5520 N.3   250  ARG250     -0.1245
    181  CA         6.0590  -13.7570   21.7850 C.3   250  ARG250      0.1563
    182  C          7.5830  -13.8350   21.8640 C.2   250  ARG250      0.2260
    183  O          8.1320  -14.5820   22.6720 O.2   250  ARG250     -0.2867
    184  CB         5.5850  -12.3880   22.2830 C.3   250  ARG250      0.0307
    185  CG         4.0980  -12.1190   22.0940 C.3   250  ARG250      0.0489
    186  CD         3.7230  -12.0730   20.6220 C.3   250  ARG250      0.2205
    187  NE         2.3110  -11.7540   20.4260 N.pl3 250  ARG250     -0.0865
    188  CZ         1.3400  -12.6590   20.3720 C.cat 250  ARG250      0.5346
    189  NH1        1.6240  -13.9470   20.5020 N.pl3 250  ARG250      0.1354
    190  NH2        0.0840  -12.2760   20.1890 N.pl3 250  ARG250      0.1354
    191  N         10.6100  -11.6120   22.7880 N.3   252  TYR252     -0.1241
    192  CA        11.0220  -10.3630   23.4190 C.3   252  TYR252      0.1605
    193  C         12.5220  -10.1160   23.2900 C.2   252  TYR252      0.2264
    194  O         13.3350  -10.8580   23.8400 O.2   252  TYR252     -0.2867
    195  CB        10.5960  -10.3400   24.8880 C.3   252  TYR252      0.0534
    196  CG         9.1040  -10.4810   25.0790 C.ar  252  TYR252     -0.0201
    197  CD1        8.2770   -9.3670   25.0880 C.ar  252  TYR252     -0.0009
    198  CD2        8.5210  -11.7300   25.2400 C.ar  252  TYR252     -0.0009
    199  CE1        6.9110   -9.4920   25.2570 C.ar  252  TYR252      0.0417
    200  CE2        7.1570  -11.8660   25.4100 C.ar  252  TYR252      0.0417
    201  CZ         6.3570  -10.7440   25.4180 C.ar  252  TYR252      0.1957
    202  OH         4.9980  -10.8760   25.5870 O.3   252  TYR252     -0.2866
    203  N          3.1510  -15.1820   28.3890 N.3   289  VAL289     -0.1245
    204  CA         2.7940  -14.0110   29.1860 C.3   289  VAL289      0.1561
    205  C          3.1160  -14.2380   30.6600 C.2   289  VAL289      0.2260
    206  O          3.6660  -13.3600   31.3260 O.2   289  VAL289     -0.2867
    207  CB         1.3010  -13.6570   29.0360 C.3   289  VAL289      0.0252
    208  CG1        0.9650  -12.4050   29.8330 C.3   289  VAL289      0.0019
    209  CG2        0.9440  -13.4710   27.5690 C.3   289  VAL289      0.0019
    210  N         -7.8390  -11.2940   23.4290 N.3   312  ARG312     -0.1245
    211  CA        -7.9090  -10.0330   22.7020 C.3   312  ARG312      0.1563
    212  C         -7.9910  -10.3180   21.2060 C.2   312  ARG312      0.2260
    213  O         -7.2350  -11.1370   20.6820 O.2   312  ARG312     -0.2867
    214  CB        -6.6930   -9.1590   23.0210 C.3   312  ARG312      0.0307
    215  CG        -6.7220   -7.7860   22.3680 C.3   312  ARG312      0.0489
    216  CD        -5.6010   -6.8950   22.8910 C.3   312  ARG312      0.2205
    217  NE        -4.2770   -7.4500   22.6190 N.pl3 312  ARG312     -0.0865
    218  CZ        -3.1360   -6.8630   22.9660 C.cat 312  ARG312      0.5346
    219  NH1       -3.1520   -5.6980   23.6030 N.pl3 312  ARG312      0.1354
    220  NH2       -1.9760   -7.4390   22.6790 N.pl3 312  ARG312      0.1354
    221  N         -5.1320  -11.4150   18.2270 N.3   315  ASP315     -0.1239
    222  CA        -3.9100  -11.9160   18.8460 C.3   315  ASP315      0.1674
    223  C         -3.5940  -13.3420   18.4070 C.2   315  ASP315      0.2266
    224  O         -4.3910  -14.2580   18.6120 O.2   315  ASP315     -0.2867
    225  CB        -4.0070  -11.8360   20.3720 C.3   315  ASP315      0.1410
    226  CG        -3.7600  -10.4370   20.8970 C.2   315  ASP315      0.3668
    227  OD1       -2.7650  -10.2410   21.6270 O.co2 315  ASP315     -0.2456
    228  OD2       -4.5530   -9.5290   20.5720 O.co2 315  ASP315     -0.2456
    229  N          4.5880  -15.9850   17.9430 N.3   319  LEU319     -0.1245
    230  CA         5.3280  -15.0230   17.1350 C.3   319  LEU319      0.1561
    231  C          6.8240  -15.1360   17.4020 C.2   319  LEU319      0.2260
    232  O          7.5150  -14.1280   17.5570 O.2   319  LEU319     -0.2867
    233  CB         4.8500  -13.5960   17.4130 C.3   319  LEU319      0.0270
    234  CG         3.8990  -12.9840   16.3830 C.3   319  LEU319      0.0019
    235  CD1        3.5400  -11.5550   16.7620 C.3   319  LEU319      0.0001
    236  CD2        4.5180  -13.0310   14.9960 C.3   319  LEU319      0.0001
@<TRIPOS>BOND
     1    38    37    2
     2    37    36    1
     3    31    30    2
     4    20    19    2
     5    35    36    1
     6    30    29    1
     7    17    18    1
     8    36    39    1
     9    19    18    1
    10    19    23   am
    11    34    32    1
    12    18    21    1
    13    26    25    2
    14    29    28    1
    15    29    32    1
    16    25    28   am
    17    25    24    1
    18    39    40    1
    19    33    32    1
    20    24    23    1
    21    24    27    1
    22    42    40   ar
    23    42    44   ar
    24    21    22    1
    25    40    41   ar
    26    44    45   ar
    27    47    48    1
    28    58    57    1
    29    41    43   ar
    30    45    43   ar
    31    45    46    1
    32    55    57   ar
    33    55    53   ar
    34    57    56   ar
    35    69    68   ar
    36    69    67   ar
    37    53    52   ar
    38    68    66   ar
    39    56    54   ar
    40    50    49    2
    41    48    49    1
    42    48    51    1
    43    52    54   ar
    44    52    51    1
    45    67    65   ar
    46    49    59   am
    47   236   234    1
    48    66    64   ar
    49    13    12    2
    50     1     2    1
    51     2     5    1
    52     2     3    1
    53    65    64   ar
    54    64    63    1
    55    59    60    1
    56    15    14    1
    57   234   235    1
    58   234   233    1
    59    11    12    1
    60    11    14    1
    61    11    10    1
    62    16    14    1
    63     5     6    1
    64     3     4    2
    65    60    63    1
    66    60    61    1
    67   230   231    1
    68   230   233    1
    69   230   229    1
    70   231   232    2
    71     6     7    1
    72    62    61    2
    73    61    70   am
    74   221   222    1
    75   223   224    2
    76   223   222    1
    77     7     8    1
    78   222   225    1
    79    70    71    1
    80    76    75    2
    81     8     9    1
    82   190   188    1
    83    96    95    1
    84   225   226    1
    85   188   187    2
    86   188   189    1
    87   187   186    1
    88    84    83    1
    89    84    78    1
    90    71    72    1
    91    71    74    1
    92   228   226   ar
    93   186   185    1
    94    75    77   am
    95    75    74    1
    96   213   212    2
    97    83    82    1
    98   226   227   ar
    99   212   211    1
   100    78    72   am
   101    78    79    1
   102    72    73    2
   103    82    79    1
   104    95    93   ar
   105    95    94   ar
   106    93    91   ar
   107   181   182    1
   108   181   184    1
   109   181   180    1
   110   171   169   ar
   111   171   173   ar
   112   182   183    2
   113    79    80    1
   114   185   184    1
   115    94    92   ar
   116   174   173    1
   117   169   168   ar
   118   215   216    1
   119   215   214    1
   120    91    90   ar
   121   217   216    1
   122   217   218    2
   123   104   102   am
   124   220   218    1
   125   211   214    1
   126   211   210    1
   127   173   172   ar
   128   191   192    1
   129   218   219    1
   130    92    90   ar
   131   193   192    1
   132   193   194    2
   133   103   102    2
   134   192   195    1
   135    90    89    1
   136   179   176    1
   137    80    81    2
   138   102   101    1
   139   168   167    1
   140   168   170   ar
   141   172   170   ar
   142   167   164    1
   143   176   177    1
   144   176   175    1
   145   177   178    2
   146   164   165    1
   147   164   163    1
   148   165   166    2
   149    89    86    1
   150   195   196    1
   151   101    98    1
   152   196   197   ar
   153   196   198   ar
   154   197   199   ar
   155   198   200   ar
   156   199   201   ar
   157   200   201   ar
   158   201   202    1
   159    98    97    1
   160    98    99    1
   161    97    87   am
   162    88    87    2
   163    87    86    1
   164    86    85    1
   165   158   160   ar
   166   158   157   ar
   167   155   154    2
   168   160   162   ar
   169   156   157    1
   170   156   153    1
   171   157   159   ar
   172   105    99   am
   173   105   106    1
   174    99   100    2
   175   154   153    1
   176   162   161   ar
   177   209   207    1
   178   153   152    1
   179   159   161   ar
   180   109   106    1
   181   109   110    1
   182   120   118    1
   183   106   107    1
   184   203   204    1
   185   112   110    1
   186   152   147   am
   187   113   107   am
   188   113   114    1
   189   110   111    1
   190   207   204    1
   191   207   208    1
   192   107   108    2
   193   204   205    1
   194   118   117    1
   195   118   119    1
   196   117   114    1
   197   127   126    1
   198   114   115    1
   199   147   148    2
   200   147   146    1
   201   126   128    1
   202   126   125    1
   203   115   116    2
   204   140   139    2
   205   205   206    2
   206   150   149    1
   207   121   122    1
   208   146   149    1
   209   146   145    1
   210   125   122    1
   211   139   145   am
   212   139   138    1
   213   149   151    1
   214   122   123    1
   215   141   138    1
   216   141   142    1
   217   144   142    1
   218   135   134    1
   219   138   137    1
   220   142   143    1
   221   136   134    1
   222   123   124    2
   223   134   133    1
   224   137   131   am
   225   131   130    1
   226   131   132    2
   227   133   130    1
   228   130   129    1
