@<TRIPOS>MOLECULE
tmp/4lisC00.pdb
 167 158 0 0 0
SMALL
GASTEIGER

@<TRIPOS>ATOM
      1  N        -20.3480   14.8070   68.8270 N.3    89  VAL89      -0.1245
      2  CA       -20.6350   16.0560   68.1260 C.3    89  VAL89       0.1561
      3  C        -19.7920   17.2220   68.6380 C.2    89  VAL89       0.2260
      4  O        -19.1670   17.9360   67.8550 O.2    89  VAL89      -0.2867
      5  CB       -22.1280   16.4270   68.2320 C.3    89  VAL89       0.0252
      6  CG1      -22.3900   17.7810   67.5890 C.3    89  VAL89       0.0019
      7  CG2      -22.9910   15.3510   67.5960 C.3    89  VAL89       0.0019
      8  N        -31.7380    8.0370   67.5030 N.3   198  ASN198     -0.1240
      9  CA       -31.2970    8.0030   68.8930 C.3   198  ASN198      0.1653
     10  C        -31.4240    6.6150   69.5160 C.2   198  ASN198      0.2266
     11  O        -32.5040    6.2220   69.9540 O.2   198  ASN198     -0.2867
     12  CB       -32.0610    9.0340   69.7260 C.3   198  ASN198      0.1155
     13  CG       -31.8340   10.4550   69.2470 C.2   198  ASN198      0.2627
     14  OD1      -32.4860   10.9180   68.3100 O.2   198  ASN198     -0.2716
     15  ND2      -30.9060   11.1560   69.8880 N.am  198  ASN198     -0.0877
     16  N        -21.8900   11.2300   77.3790 N.3   217  TYR217     -0.1227
     17  CA       -22.4900   12.5420   77.1500 C.3   217  TYR217      0.1736
     18  C        -23.9420   12.4330   76.6900 C.2   217  TYR217      0.2595
     19  O        -24.7040   13.3960   76.7840 O.2   217  TYR217     -0.2718
     20  CB       -21.6700   13.3400   76.1340 C.3   217  TYR217      0.0548
     21  CG       -21.3100   12.5610   74.8900 C.ar  217  TYR217     -0.0200
     22  CD1      -22.2080   12.4390   73.8390 C.ar  217  TYR217     -0.0009
     23  CD2      -20.0690   11.9520   74.7660 C.ar  217  TYR217     -0.0009
     24  CE1      -21.8810   11.7290   72.7010 C.ar  217  TYR217      0.0417
     25  CE2      -19.7340   11.2400   73.6340 C.ar  217  TYR217      0.0417
     26  CZ       -20.6430   11.1320   72.6050 C.ar  217  TYR217      0.1957
     27  OH       -20.3110   10.4270   71.4750 O.3   217  TYR217     -0.2866
     28  N        -24.3170   11.2600   76.1900 N.am  218  ASN218     -0.1960
     29  CA       -25.6900   11.0170   75.7640 C.3   218  ASN218      0.1819
     30  C        -26.6460   11.0220   76.9550 C.2   218  ASN218      0.2621
     31  O        -26.2300   10.8030   78.0910 O.2   218  ASN218     -0.2715
     32  CB       -25.7910    9.6990   74.9930 C.3   218  ASN218      0.1195
     33  CG       -24.9460    9.6940   73.7320 C.2   218  ASN218      0.2630
     34  OD1      -24.0060    8.9120   73.6030 O.2   218  ASN218     -0.2716
     35  ND2      -25.2800   10.5710   72.7930 N.am  218  ASN218     -0.0877
     36  N        -27.9250   11.2730   76.6860 N.am  219  LEU219     -0.1963
     37  CA       -28.9280   11.4280   77.7390 C.3   219  LEU219      0.1728
     38  C        -29.0550   10.2050   78.6460 C.2   219  LEU219      0.2616
     39  O        -28.8510   10.2970   79.8560 O.2   219  LEU219     -0.2715
     40  CB       -30.2920   11.7640   77.1290 C.3   219  LEU219      0.0311
     41  CG       -31.4490   11.9300   78.1150 C.3   219  LEU219      0.0022
     42  CD1      -31.1540   13.0550   79.0930 C.3   219  LEU219      0.0001
     43  CD2      -32.7580   12.1830   77.3810 C.3   219  LEU219      0.0001
     44  N        -29.3960    9.0660   78.0530 N.am  220  LEU220     -0.1977
     45  CA       -29.6080    7.8310   78.8090 C.3   220  LEU220      0.1596
     46  C        -28.3980    7.3300   79.6210 C.2   220  LEU220      0.2287
     47  O        -28.5650    6.9340   80.7760 O.2   220  LEU220     -0.2864
     48  CB       -30.1680    6.7170   77.9110 C.3   220  LEU220      0.0297
     49  CG       -31.6530    6.7830   77.5410 C.3   220  LEU220      0.0022
     50  CD1      -32.5020    7.0610   78.7760 C.3   220  LEU220      0.0001
     51  CD2      -31.9290    7.8080   76.4460 C.3   220  LEU220      0.0001
     52  N        -26.0620    9.1010   80.9100 N.3   222  LEU222     -0.1245
     53  CA       -25.8950   10.0280   82.0250 C.3   222  LEU222      0.1561
     54  C        -26.9680    9.8150   83.0890 C.2   222  LEU222      0.2260
     55  O        -26.6940    9.9170   84.2830 O.2   222  LEU222     -0.2867
     56  CB       -25.8940   11.4790   81.5390 C.3   222  LEU222      0.0270
     57  CG       -24.6700   11.9050   80.7220 C.3   222  LEU222      0.0019
     58  CD1      -24.7310   13.3860   80.3830 C.3   222  LEU222      0.0001
     59  CD2      -23.3860   11.5750   81.4650 C.3   222  LEU222      0.0001
     60  N        -28.8490   15.3450   86.8480 N.3   234  LEU234     -0.1231
     61  CA       -28.7840   15.5790   85.4090 C.3   234  LEU234      0.1693
     62  C        -29.0020   17.0510   85.0660 C.2   234  LEU234      0.2592
     63  O        -29.8010   17.7330   85.7030 O.2   234  LEU234     -0.2718
     64  CB       -29.8230   14.7220   84.6820 C.3   234  LEU234      0.0284
     65  CG       -29.8510   14.8340   83.1540 C.3   234  LEU234      0.0019
     66  CD1      -28.6730   14.0940   82.5360 C.3   234  LEU234      0.0001
     67  CD2      -31.1720   14.3330   82.5890 C.3   234  LEU234      0.0001
     68  N        -28.2840   17.5340   84.0570 N.am  235  LEU235     -0.1966
     69  CA       -28.4810   18.8910   83.5610 C.3   235  LEU235      0.1728
     70  C        -29.3790   18.8920   82.3260 C.2   235  LEU235      0.2616
     71  O        -29.0160   18.3440   81.2850 O.2   235  LEU235     -0.2715
     72  CB       -27.1400   19.5600   83.2420 C.3   235  LEU235      0.0311
     73  CG       -26.4380   20.3250   84.3650 C.3   235  LEU235      0.0022
     74  CD1      -25.9420   19.3920   85.4580 C.3   235  LEU235      0.0001
     75  CD2      -25.2930   21.1600   83.8140 C.3   235  LEU235      0.0001
     76  N        -30.5530   19.5030   82.4480 N.am  236  VAL236     -0.1963
     77  CA       -31.4770   19.6140   81.3250 C.3   236  VAL236      0.1727
     78  C        -31.1330   20.8320   80.4750 C.2   236  VAL236      0.2616
     79  O        -31.1690   21.9650   80.9550 O.2   236  VAL236     -0.2715
     80  CB       -32.9410   19.7090   81.7950 C.3   236  VAL236      0.0290
     81  CG1      -33.8660   19.9310   80.6100 C.3   236  VAL236      0.0023
     82  CG2      -33.3370   18.4540   82.5580 C.3   236  VAL236      0.0023
     83  N        -30.7990   20.5900   79.2120 N.am  237  PHE237     -0.1974
     84  CA       -30.3550   21.6530   78.3170 C.3   237  PHE237      0.1639
     85  C        -31.5230   22.3880   77.6610 C.2   237  PHE237      0.2290
     86  O        -31.9820   22.0090   76.5840 O.2   237  PHE237     -0.2864
     87  CB       -29.4190   21.0890   77.2420 C.3   237  PHE237      0.0560
     88  CG       -28.1760   20.4450   77.7940 C.ar  237  PHE237     -0.0200
     89  CD1      -27.5710   19.3940   77.1250 C.ar  237  PHE237     -0.0042
     90  CD2      -27.6080   20.8950   78.9760 C.ar  237  PHE237     -0.0042
     91  CE1      -26.4270   18.7990   77.6250 C.ar  237  PHE237     -0.0003
     92  CE2      -26.4640   20.3050   79.4820 C.ar  237  PHE237     -0.0003
     93  CZ       -25.8730   19.2550   78.8060 C.ar  237  PHE237     -0.0000
     94  N        -38.0350   25.4210   74.9010 N.3   241  TYR241     -0.1241
     95  CA       -38.3060   24.9190   73.5580 C.3   241  TYR241      0.1605
     96  C        -39.7980   24.9330   73.2380 C.2   241  TYR241      0.2264
     97  O        -40.6330   25.0490   74.1350 O.2   241  TYR241     -0.2867
     98  CB       -37.7310   23.5120   73.3730 C.3   241  TYR241      0.0534
     99  CG       -36.2260   23.4830   73.2340 C.ar  241  TYR241     -0.0201
    100  CD1      -35.6100   23.9400   72.0770 C.ar  241  TYR241     -0.0009
    101  CD2      -35.4230   22.9930   74.2540 C.ar  241  TYR241     -0.0009
    102  CE1      -34.2340   23.9160   71.9420 C.ar  241  TYR241      0.0417
    103  CE2      -34.0450   22.9640   74.1270 C.ar  241  TYR241      0.0417
    104  CZ       -33.4570   23.4260   72.9690 C.ar  241  TYR241      0.1957
    105  OH       -32.0880   23.4000   72.8360 O.3   241  TYR241     -0.2866
    106  N        -36.5370   19.6450   74.5520 N.3   248  ALA248     -0.1245
    107  CA       -36.3630   19.2350   73.1600 C.3   248  ALA248      0.1562
    108  C        -36.9330   17.8450   72.8850 C.2   248  ALA248      0.2260
    109  O        -37.1200   17.0500   73.8030 O.2   248  ALA248     -0.2867
    110  CB       -34.8930   19.2960   72.7690 C.3   248  ALA248      0.0290
    111  N        -36.7880   14.1600   70.6760 N.3   250  ARG250     -0.1245
    112  CA       -35.9560   13.2290   69.9160 C.3   250  ARG250      0.1563
    113  C        -36.6980   11.9210   69.6420 C.2   250  ARG250      0.2260
    114  O        -37.7460   11.6580   70.2300 O.2   250  ARG250     -0.2867
    115  CB       -34.6490   12.9360   70.6590 C.3   250  ARG250      0.0307
    116  CG       -33.7580   14.1470   70.8920 C.3   250  ARG250      0.0489
    117  CD       -33.2060   14.6970   69.5880 C.3   250  ARG250      0.2205
    118  NE       -32.2910   15.8140   69.8080 N.pl3 250  ARG250     -0.0865
    119  CZ       -32.6660   17.0880   69.8570 C.cat 250  ARG250      0.5346
    120  NH1      -33.9430   17.4120   69.7040 N.pl3 250  ARG250      0.1354
    121  NH2      -31.7650   18.0400   70.0610 N.pl3 250  ARG250      0.1354
    122  N        -36.2700    8.1510   70.1200 N.3   252  TYR252     -0.1241
    123  CA       -35.4960    7.1110   70.7910 C.3   252  TYR252      0.1605
    124  C        -35.9290    5.7040   70.3840 C.2   252  TYR252      0.2264
    125  O        -37.0520    5.2800   70.6600 O.2   252  TYR252     -0.2867
    126  CB       -35.5760    7.2790   72.3100 C.3   252  TYR252      0.0534
    127  CG       -35.0790    8.6240   72.7870 C.ar  252  TYR252     -0.0201
    128  CD1      -33.7320    8.8340   73.0550 C.ar  252  TYR252     -0.0009
    129  CD2      -35.9550    9.6880   72.9640 C.ar  252  TYR252     -0.0009
    130  CE1      -33.2740   10.0630   73.4890 C.ar  252  TYR252      0.0417
    131  CE2      -35.5050   10.9190   73.3980 C.ar  252  TYR252      0.0417
    132  CZ       -34.1640   11.1020   73.6590 C.ar  252  TYR252      0.1957
    133  OH       -33.7110   12.3280   74.0910 O.3   252  TYR252     -0.2866
    134  N        -37.3320   15.4810   76.7630 N.3   289  VAL289     -0.1245
    135  CA       -36.3310   15.1150   77.7590 C.3   289  VAL289      0.1561
    136  C        -36.9950   14.7210   79.0750 C.2   289  VAL289      0.2260
    137  O        -36.6180   13.7280   79.6970 O.2   289  VAL289     -0.2867
    138  CB       -35.3350   16.2650   78.0080 C.3   289  VAL289      0.0252
    139  CG1      -34.2760   15.8460   79.0170 C.3   289  VAL289      0.0019
    140  CG2      -34.6900   16.7010   76.7010 C.3   289  VAL289      0.0019
    141  N        -28.0700   23.8270   74.8550 N.3   312  ARG312     -0.1245
    142  CA       -26.7930   23.3890   74.3120 C.3   312  ARG312      0.1563
    143  C        -26.6570   23.8880   72.8790 C.2   312  ARG312      0.2260
    144  O        -27.6130   23.8370   72.1040 O.2   312  ARG312     -0.2867
    145  CB       -26.6710   21.8650   74.3640 C.3   312  ARG312      0.0307
    146  CG       -25.3470   21.3330   73.8350 C.3   312  ARG312      0.0489
    147  CD       -25.1420   19.8710   74.2010 C.3   312  ARG312      0.2205
    148  NE       -26.1520   19.0000   73.6070 N.pl3 312  ARG312     -0.0865
    149  CZ       -26.1740   17.6780   73.7510 C.cat 312  ARG312      0.5346
    150  NH1      -25.2380   17.0730   74.4700 N.pl3 312  ARG312      0.1354
    151  NH2      -27.1290   16.9600   73.1760 N.pl3 312  ARG312      0.1354
    152  N        -28.1660   22.2140   69.2900 N.3   315  ASP315     -0.1239
    153  CA       -29.3020   21.3200   69.4990 C.3   315  ASP315      0.1674
    154  C        -30.5560   21.8130   68.7820 C.2   315  ASP315      0.2266
    155  O        -31.0040   22.9410   68.9930 O.2   315  ASP315     -0.2867
    156  CB       -29.5800   21.1350   70.9930 C.3   315  ASP315      0.1410
    157  CG       -28.4930   20.3410   71.6940 C.2   315  ASP315      0.3668
    158  OD1      -28.8120   19.6290   72.6700 O.co2 315  ASP315     -0.2456
    159  OD2      -27.3220   20.4280   71.2690 O.co2 315  ASP315     -0.2456
    160  N        -36.3930   16.0730   66.1910 N.3   319  LEU319     -0.1245
    161  CA       -35.6690   15.0810   65.4040 C.3   319  LEU319      0.1561
    162  C        -36.4680   13.7860   65.3130 C.2   319  LEU319      0.2260
    163  O        -35.9410   12.7010   65.5560 O.2   319  LEU319     -0.2867
    164  CB       -34.2900   14.8080   66.0090 C.3   319  LEU319      0.0270
    165  CG       -33.0910   15.3880   65.2560 C.3   319  LEU319      0.0019
    166  CD1      -31.7870   14.9920   65.9310 C.3   319  LEU319      0.0001
    167  CD2      -33.1040   14.9340   63.8060 C.3   319  LEU319      0.0001
@<TRIPOS>BOND
     1   167   165    1
     2   165   166    1
     3   165   164    1
     4   162   161    1
     5   162   163    2
     6   161   164    1
     7   161   160    1
     8     8     9    1
     9     6     5    1
    10     7     5    1
    11     4     3    2
    12     2     5    1
    13     2     3    1
    14     2     1    1
    15    14    13    2
    16   154   155    2
    17   154   153    1
    18     9    10    1
    19     9    12    1
    20    13    12    1
    21    13    15   am
    22   152   153    1
    23   153   156    1
    24    10    11    2
    25   117   118    1
    26   117   116    1
    27   113   112    1
    28   113   114    2
    29   120   119    1
    30   118   119    2
    31   119   121    1
    32   112   115    1
    33   112   111    1
    34   122   123    1
    35   124   125    2
    36   124   123    1
    37   115   116    1
    38   123   126    1
    39   156   157    1
    40   159   157   ar
    41    27    26    1
    42   157   158   ar
    43   102   100   ar
    44   102   104   ar
    45   100    99   ar
    46   144   143    2
    47   126   127    1
    48    26    24   ar
    49    26    25   ar
    50    24    22   ar
    51   110   107    1
    52   127   129   ar
    53   127   128   ar
    54    35    33   am
    55   105   104    1
    56   143   142    1
    57   108   107    1
    58   108   109    2
    59   129   131   ar
    60   104   103   ar
    61   128   130   ar
    62   107   106    1
    63   151   149    1
    64    99    98    1
    65    99   101   ar
    66    96    95    1
    67    96    97    2
    68    98    95    1
    69   131   132   ar
    70   130   132   ar
    71    95    94    1
    72    34    33    2
    73   148   149    2
    74   148   147    1
    75    25    23   ar
    76   132   133    1
    77    33    32    1
    78   149   150    1
    79   146   147    1
    80   146   145    1
    81    22    21   ar
    82   103   101   ar
    83   142   145    1
    84   142   141    1
    85    23    21   ar
    86    21    20    1
    87    32    29    1
    88    29    28    1
    89    29    30    1
    90    20    17    1
    91    28    18   am
    92    51    49    1
    93    86    85    2
    94    36    30   am
    95    36    37    1
    96    18    19    2
    97    18    17    1
    98   140   138    1
    99   134   135    1
   100    30    31    2
   101    89    91   ar
   102    89    88   ar
   103    40    37    1
   104    40    41    1
   105    17    16    1
   106    87    88    1
   107    87    84    1
   108    43    41    1
   109    49    48    1
   110    49    50    1
   111    91    93   ar
   112    85    84    1
   113    37    38    1
   114   135   138    1
   115   135   136    1
   116    88    90   ar
   117    48    45    1
   118   138   139    1
   119    44    38   am
   120    44    45    1
   121    41    42    1
   122    84    83    1
   123    38    39    2
   124    93    92   ar
   125    45    46    1
   126    90    92   ar
   127   136   137    2
   128    83    78   am
   129    46    47    2
   130    58    57    1
   131    78    79    2
   132    78    77    1
   133    81    80    1
   134    57    59    1
   135    57    56    1
   136    52    53    1
   137    71    70    2
   138    77    80    1
   139    77    76    1
   140    56    53    1
   141    80    82    1
   142    53    54    1
   143    70    76   am
   144    70    69    1
   145    66    65    1
   146    67    65    1
   147    54    55    2
   148    65    64    1
   149    72    69    1
   150    72    73    1
   151    69    68    1
   152    75    73    1
   153    68    62   am
   154    73    74    1
   155    64    61    1
   156    62    61    1
   157    62    63    2
   158    61    60    1
