@<TRIPOS>MOLECULE
tmp/4litA00.pdb
 136 124 0 0 0
SMALL
GASTEIGER

@<TRIPOS>ATOM
      1  N         44.7160   57.0800   77.8690 N.3    51  ARG51      -0.1245
      2  CA        45.9330   56.5560   77.2630 C.3    51  ARG51       0.1563
      3  C         45.9260   56.6910   75.7460 C.2    51  ARG51       0.2260
      4  O         44.8660   56.7430   75.1160 O.2    51  ARG51      -0.2867
      5  CB        46.1780   55.1010   77.6870 C.3    51  ARG51       0.0307
      6  CG        45.3140   54.0550   76.9900 C.3    51  ARG51       0.0489
      7  CD        45.2760   52.7870   77.8310 C.3    51  ARG51       0.2205
      8  NE        44.8630   51.6010   77.0870 N.pl3  51  ARG51      -0.0865
      9  CZ        43.6160   51.1460   77.0250 C.cat  51  ARG51       0.5346
     10  NH1       42.6370   51.7880   77.6470 N.pl3  51  ARG51       0.1354
     11  NH2       43.3420   50.0490   76.3340 N.pl3  51  ARG51       0.1354
     12  N         45.2480   55.5430   68.6980 N.3    79  SER79      -0.1217
     13  CA        43.9500   55.7330   69.3060 C.3    79  SER79       0.1889
     14  C         44.0600   56.2790   70.7160 C.2    79  SER79       0.2288
     15  O         44.9010   55.8430   71.5010 O.2    79  SER79      -0.2866
     16  CB        43.1690   54.4170   69.3200 C.3    79  SER79       0.2089
     17  OG        41.9510   54.5770   70.0220 O.3    79  SER79      -0.2183
     18  N         42.1380   56.5930   74.2170 N.3    81  LEU81      -0.1245
     19  CA        41.0940   55.9560   74.9980 C.3    81  LEU81       0.1561
     20  C         40.9890   56.6150   76.3580 C.2    81  LEU81       0.2260
     21  O         41.9660   56.6790   77.1000 O.2    81  LEU81      -0.2867
     22  CB        41.3790   54.4590   75.1610 C.3    81  LEU81       0.0270
     23  CG        41.5520   53.6890   73.8480 C.3    81  LEU81       0.0019
     24  CD1       43.0120   53.6460   73.4230 C.3    81  LEU81       0.0001
     25  CD2       40.9630   52.2860   73.9700 C.3    81  LEU81       0.0001
     26  N         33.6010   54.2340   78.4990 N.3   111  MET111     -0.1245
     27  CA        34.9430   54.5510   78.0010 C.3   111  MET111      0.1570
     28  C         34.8480   54.9920   76.5450 C.2   111  MET111      0.2261
     29  O         34.2130   54.3270   75.7380 O.2   111  MET111     -0.2867
     30  CB        35.8680   53.3290   78.1330 C.3   111  MET111      0.0387
     31  CG        37.3030   53.5480   77.6350 C.3   111  MET111      0.0595
     32  SD        37.5840   53.2590   75.8590 S.3   111  MET111     -0.1393
     33  CE        37.6480   51.4570   75.8210 C.3   111  MET111      0.0692
     34  N         36.7870   55.8670   72.9350 N.3   113  SER113     -0.1217
     35  CA        37.9860   55.8660   72.1110 C.3   113  SER113      0.1889
     36  C         37.7710   56.6760   70.8470 C.2   113  SER113      0.2288
     37  O         36.6990   56.6560   70.2570 O.2   113  SER113     -0.2866
     38  CB        38.4150   54.4460   71.7420 C.3   113  SER113      0.2089
     39  OG        37.6560   53.9420   70.6590 O.3   113  SER113     -0.2183
     40  N         43.7860   51.3150   67.2040 N.3   120  GLY120     -0.1210
     41  CA        43.1210   50.3020   68.0040 C.3   120  GLY120      0.1956
     42  C         44.1000   49.7020   68.9930 C.2   120  GLY120      0.2611
     43  O         45.3090   49.9630   68.9050 O.2   120  GLY120     -0.2717
     44  N         43.5950   48.8960   69.9260 N.am  121  VAL121     -0.1979
     45  CA        44.4330   48.3850   71.0190 C.3   121  VAL121      0.1595
     46  C         44.8870   46.9320   70.8260 C.2   121  VAL121      0.2287
     47  O         45.5960   46.3760   71.6660 O.2   121  VAL121     -0.2864
     48  CB        43.7640   48.5870   72.4110 C.3   121  VAL121      0.0276
     49  CG1       43.4260   50.0430   72.6030 C.3   121  VAL121      0.0022
     50  CG2       42.5010   47.7340   72.5590 C.3   121  VAL121      0.0022
     51  N         42.5980   41.0960   72.2870 N.3   124  HIS124     -0.1241
     52  CA        42.6080   40.8730   73.7260 C.3   124  HIS124      0.1621
     53  C         41.2640   40.3120   74.1700 C.2   124  HIS124      0.2264
     54  O         40.3200   40.2420   73.3810 O.2   124  HIS124     -0.2867
     55  CB        42.8760   42.1900   74.4620 C.3   124  HIS124      0.0745
     56  CG        41.7620   43.1820   74.3310 C.ar  124  HIS124      0.0817
     57  ND1       41.5100   43.8730   73.1640 N.ar  124  HIS124     -0.2268
     58  CD2       40.8100   43.5780   75.2120 C.ar  124  HIS124      0.1154
     59  CE1       40.4640   44.6610   73.3350 C.ar  124  HIS124      0.1986
     60  NE2       40.0210   44.4990   74.5700 N.ar  124  HIS124     -0.2212
     61  N         38.4730   40.5890   77.7410 N.3   126  ASP126     -0.1239
     62  CA        38.1750   41.2840   78.9860 C.3   126  ASP126      0.1674
     63  C         37.4180   40.3820   79.9480 C.2   126  ASP126      0.2266
     64  O         36.8080   39.3940   79.5380 O.2   126  ASP126     -0.2867
     65  CB        37.3280   42.5200   78.6870 C.3   126  ASP126      0.1410
     66  CG        37.9670   43.4150   77.6720 C.2   126  ASP126      0.3668
     67  OD1       39.0980   43.8710   77.9130 O.co2 126  ASP126     -0.2456
     68  OD2       37.3560   43.6420   76.6100 O.co2 126  ASP126     -0.2456
     69  N         30.5650   44.0830   77.7030 N.3   130  VAL130     -0.1245
     70  CA        30.6900   45.4120   77.1290 C.3   130  VAL130      0.1561
     71  C         29.7710   45.5990   75.9250 C.2   130  VAL130      0.2260
     72  O         29.5800   44.6680   75.1370 O.2   130  VAL130     -0.2867
     73  CB        32.1710   45.7280   76.7680 C.3   130  VAL130      0.0252
     74  CG1       32.6350   44.9000   75.5680 C.3   130  VAL130      0.0019
     75  CG2       32.3610   47.2090   76.5080 C.3   130  VAL130      0.0019
     76  N         29.8460   48.0200   72.7410 N.3   132  ILE132     -0.1245
     77  CA        30.6690   48.9820   72.0400 C.3   132  ILE132      0.1561
     78  C         29.8140   49.6530   70.9780 C.2   132  ILE132      0.2260
     79  O         29.4330   49.0340   69.9830 O.2   132  ILE132     -0.2867
     80  CB        31.8950   48.3000   71.3950 C.3   132  ILE132      0.0252
     81  CG1       32.7150   47.5730   72.4600 C.3   132  ILE132      0.0019
     82  CG2       32.7770   49.3210   70.6840 C.3   132  ILE132      0.0019
     83  CD1       33.8040   46.6760   71.9070 C.3   132  ILE132      0.0001
     84  N         34.6130   51.2120   61.9590 N.3   139  ARG139     -0.1245
     85  CA        35.6610   50.3360   62.4680 C.3   139  ARG139      0.1563
     86  C         35.3810   48.8900   62.1080 C.2   139  ARG139      0.2260
     87  O         34.2270   48.4570   62.0600 O.2   139  ARG139     -0.2867
     88  CB        35.7810   50.4490   63.9870 C.3   139  ARG139      0.0307
     89  CG        36.1250   51.8330   64.4720 C.3   139  ARG139      0.0489
     90  CD        36.5210   51.8210   65.9160 C.3   139  ARG139      0.2205
     91  NE        37.9480   51.5980   66.1090 N.pl3 139  ARG139     -0.0865
     92  CZ        38.4950   51.3330   67.2940 C.cat 139  ARG139      0.5346
     93  NH1       37.7270   51.2490   68.3760 N.pl3 139  ARG139      0.1354
     94  NH2       39.8050   51.1500   67.4010 N.pl3 139  ARG139      0.1354
     95  N         35.5070   45.3240   63.5150 N.3   141  TRP141     -0.1241
     96  CA        35.5430   44.5550   64.7530 C.3   141  TRP141      0.1605
     97  C         35.4610   43.0620   64.4810 C.2   141  TRP141      0.2264
     98  O         34.6370   42.5960   63.6920 O.2   141  TRP141     -0.2867
     99  CB        34.4180   44.9880   65.6960 C.3   141  TRP141      0.0550
    100  CG        34.7860   46.1740   66.5390 C.ar  141  TRP141      0.0003
    101  CD1       34.4130   47.4700   66.3420 C.ar  141  TRP141      0.0946
    102  CD2       35.6250   46.1680   67.7040 C.ar  141  TRP141      0.0152
    103  NE1       34.9530   48.2720   67.3220 N.ar  141  TRP141     -0.2442
    104  CE2       35.7000   47.4970   68.1710 C.ar  141  TRP141      0.0810
    105  CE3       36.3060   45.1640   68.4050 C.ar  141  TRP141      0.0012
    106  CZ2       36.4330   47.8520   69.3010 C.ar  141  TRP141      0.0191
    107  CZ3       37.0400   45.5180   69.5190 C.ar  141  TRP141      0.0001
    108  CH2       37.0990   46.8560   69.9580 C.ar  141  TRP141      0.0015
    109  N         38.6350   39.7030   71.2310 N.3   175  HIS175     -0.1241
    110  CA        38.1770   40.6600   70.2380 C.3   175  HIS175      0.1621
    111  C         39.2650   41.6280   69.7930 C.2   175  HIS175      0.2264
    112  O         40.2920   41.7930   70.4570 O.2   175  HIS175     -0.2867
    113  CB        36.9210   41.4080   70.7060 C.3   175  HIS175      0.0745
    114  CG        37.0560   42.0450   72.0520 C.ar  175  HIS175      0.0817
    115  ND1       36.9050   41.3370   73.2260 N.ar  175  HIS175     -0.2268
    116  CD2       37.3040   43.3270   72.4130 C.ar  175  HIS175      0.1154
    117  CE1       37.0620   42.1560   74.2520 C.ar  175  HIS175      0.1986
    118  NE2       37.3100   43.3660   73.7870 N.ar  175  HIS175     -0.2212
    119  N         39.6190   45.4100   67.3820 N.3   177  GLY177     -0.1225
    120  CA        38.9530   46.4660   66.6540 C.3   177  GLY177      0.1811
    121  C         39.9320   47.4990   66.1460 C.2   177  GLY177      0.2280
    122  O         40.8690   47.8750   66.8560 O.2   177  GLY177     -0.2866
    123  N         34.2740   55.4190   69.3010 N.3   185  ASN185     -0.1240
    124  CA        33.6070   54.2730   69.8930 C.3   185  ASN185      0.1653
    125  C         33.2710   54.5860   71.3530 C.2   185  ASN185      0.2266
    126  O         34.0580   55.2290   72.0540 O.2   185  ASN185     -0.2867
    127  CB        34.4850   53.0180   69.7980 C.3   185  ASN185      0.1155
    128  CG        34.2760   52.2400   68.4930 C.2   185  ASN185      0.2627
    129  OD1       34.7430   51.1110   68.3540 O.2   185  ASN185     -0.2716
    130  ND2       33.5830   52.8480   67.5330 N.am  185  ASN185     -0.0877
    131  N         32.1600   52.6640   74.7670 N.3   187  SER187     -0.1217
    132  CA        32.0210   51.3830   75.4480 C.3   187  SER187      0.1889
    133  C         31.2790   51.5150   76.7670 C.2   187  SER187      0.2288
    134  O         31.8210   52.0400   77.7560 O.2   187  SER187     -0.2866
    135  CB        33.3920   50.7620   75.6940 C.3   187  SER187      0.2089
    136  OG        33.9530   50.3040   74.4850 O.3   187  SER187     -0.2183
@<TRIPOS>BOND
     1    84    85    1
     2    87    86    2
     3    86    85    1
     4    85    88    1
     5    95    96    1
     6    98    97    2
     7    88    89    1
     8    89    90    1
     9    97    96    1
    10    96    99    1
    11    99   100    1
    12    90    91    1
    13    91    92    2
    14   121   120    1
    15   121   122    2
    16   101   100   ar
    17   101   103   ar
    18   100   102   ar
    19   120   119    1
    20    40    41    1
    21    92    94    1
    22    92    93    1
    23   103   104   ar
    24   130   128   am
    25   102   104   ar
    26   102   105   ar
    27    41    42    1
    28   104   106   ar
    29   129   128    2
    30   105   107   ar
    31   128   127    1
    32    12    13    1
    33    43    42    2
    34    42    44   am
    35   106   108   ar
    36   123   124    1
    37    13    16    1
    38    13    14    1
    39    16    17    1
    40   107   108   ar
    41   111   110    1
    42   111   112    2
    43   127   124    1
    44   124   125    1
    45    44    45    1
    46    79    78    2
    47   110   113    1
    48   110   109    1
    49    37    36    2
    50    39    38    1
    51    82    80    1
    52   113   114    1
    53    14    15    2
    54    46    45    1
    55    46    47    2
    56    36    35    1
    57    78    77    1
    58    45    48    1
    59   125   126    2
    60    80    77    1
    61    80    81    1
    62    38    35    1
    63    83    81    1
    64    77    76    1
    65   114   116   ar
    66   114   115   ar
    67    35    34    1
    68    51    52    1
    69    48    50    1
    70    48    49    1
    71   116   118   ar
    72    57    59   ar
    73    57    56   ar
    74   115   117   ar
    75    59    60   ar
    76    54    53    2
    77    24    23    1
    78    52    53    1
    79    52    55    1
    80   118   117   ar
    81    23    25    1
    82    23    22    1
    83    18    19    1
    84    56    55    1
    85    56    58   ar
    86   136   135    1
    87    60    58   ar
    88   131   132    1
    89    19    22    1
    90    19    20    1
    91     4     3    2
    92    72    71    2
    93   132   135    1
    94   132   133    1
    95    74    73    1
    96    29    28    2
    97     3     2    1
    98    33    32    1
    99    32    31    1
   100    71    70    1
   101    11     9    1
   102    20    21    2
   103    75    73    1
   104    28    27    1
   105    68    66   ar
   106   133   134    2
   107    73    70    1
   108     6     5    1
   109     6     7    1
   110     9     8    2
   111     9    10    1
   112     8     7    1
   113    70    69    1
   114     2     5    1
   115     2     1    1
   116    31    30    1
   117    66    67   ar
   118    66    65    1
   119    61    62    1
   120    27    30    1
   121    27    26    1
   122    65    62    1
   123    62    63    1
   124    64    63    2
