@<TRIPOS>MOLECULE
tmp/4livA00.pdb
 129 118 0 0 0
SMALL
GASTEIGER

@<TRIPOS>ATOM
      1  N         -7.3430  -20.5100  -26.8420 N.3    51  ARG51      -0.1245
      2  CA        -8.5740  -19.9730  -27.4060 C.3    51  ARG51       0.1563
      3  C         -8.5430  -19.9920  -28.9300 C.2    51  ARG51       0.2260
      4  O         -7.4950  -19.8290  -29.5470 O.2    51  ARG51      -0.2867
      5  CB        -8.8510  -18.5580  -26.8870 C.3    51  ARG51       0.0307
      6  CG        -8.0390  -17.4580  -27.5540 C.3    51  ARG51       0.0489
      7  CD        -8.2080  -16.1420  -26.8140 C.3    51  ARG51       0.2205
      8  NE        -7.6030  -15.0210  -27.5270 N.pl3  51  ARG51      -0.0865
      9  CZ        -6.3030  -14.7480  -27.5290 C.cat  51  ARG51       0.5346
     10  NH1       -5.4570  -15.5220  -26.8610 N.pl3  51  ARG51       0.1354
     11  NH2       -5.8460  -13.7020  -28.2060 N.pl3  51  ARG51       0.1354
     12  N         -7.9190  -18.9080  -35.9880 N.3    79  SER79      -0.1217
     13  CA        -6.6140  -19.0790  -35.3650 C.3    79  SER79       0.1889
     14  C         -6.7180  -19.6930  -33.9710 C.2    79  SER79       0.2288
     15  O         -7.5840  -19.3260  -33.1810 O.2    79  SER79      -0.2866
     16  CB        -5.8790  -17.7390  -35.2920 C.3    79  SER79       0.2089
     17  OG        -4.6990  -17.8530  -34.5210 O.3    79  SER79      -0.2183
     18  N         -4.7860  -19.9080  -30.4820 N.3    81  LEU81      -0.1245
     19  CA        -3.7480  -19.2400  -29.7110 C.3    81  LEU81       0.1561
     20  C         -3.6130  -19.9100  -28.3540 C.2    81  LEU81       0.2260
     21  O         -4.5890  -20.0380  -27.6100 O.2    81  LEU81      -0.2867
     22  CB        -4.0590  -17.7530  -29.5400 C.3    81  LEU81       0.0270
     23  CG        -4.2320  -16.9400  -30.8230 C.3    81  LEU81       0.0019
     24  CD1       -5.6910  -16.9140  -31.2590 C.3    81  LEU81       0.0001
     25  CD2       -3.6960  -15.5340  -30.6340 C.3    81  LEU81       0.0001
     26  N          3.6540  -17.4840  -26.1020 N.3   111  MET111     -0.1245
     27  CA         2.3350  -17.7960  -26.6370 C.3   111  MET111      0.1570
     28  C          2.4640  -18.2110  -28.0970 C.2   111  MET111      0.2261
     29  O          3.0950  -17.5170  -28.8830 O.2   111  MET111     -0.2867
     30  CB         1.4140  -16.5760  -26.5000 C.3   111  MET111      0.0387
     31  CG        -0.0370  -16.8050  -26.9250 C.3   111  MET111      0.0595
     32  SD        -0.3460  -16.6410  -28.6970 S.3   111  MET111     -0.1393
     33  CE        -0.1310  -14.8820  -28.9300 C.3   111  MET111      0.0692
     34  N          0.6060  -19.0820  -31.7350 N.3   113  SER113     -0.1217
     35  CA        -0.5920  -19.0820  -32.5580 C.3   113  SER113      0.1889
     36  C         -0.3880  -19.8730  -33.8400 C.2   113  SER113      0.2288
     37  O          0.6780  -19.8340  -34.4510 O.2   113  SER113     -0.2866
     38  CB        -1.0380  -17.6580  -32.8860 C.3   113  SER113      0.2089
     39  OG        -0.1160  -17.0180  -33.7510 O.3   113  SER113     -0.2183
     40  N         -6.5910  -14.4400  -37.5460 N.3   120  GLY120     -0.1210
     41  CA        -5.9520  -13.4460  -36.7040 C.3   120  GLY120      0.1956
     42  C         -6.8910  -12.9820  -35.6080 C.2   120  GLY120      0.2611
     43  O         -8.0500  -13.3870  -35.5690 O.2   120  GLY120     -0.2717
     44  N         -6.3950  -12.1290  -34.7170 N.am  121  VAL121     -0.1979
     45  CA        -7.1980  -11.6550  -33.5950 C.3   121  VAL121      0.1595
     46  C         -7.6800  -10.2210  -33.7900 C.2   121  VAL121      0.2287
     47  O         -8.2340   -9.6150  -32.8770 O.2   121  VAL121     -0.2864
     48  CB        -6.4300  -11.7650  -32.2620 C.3   121  VAL121      0.0276
     49  CG1       -6.1310  -13.2190  -31.9510 C.3   121  VAL121      0.0022
     50  CG2       -5.1460  -10.9420  -32.3020 C.3   121  VAL121      0.0022
     51  N         -5.5940   -4.6090  -32.4010 N.3   124  HIS124     -0.1241
     52  CA        -5.6120   -4.4280  -30.9580 C.3   124  HIS124      0.1621
     53  C         -4.3610   -3.7150  -30.4640 C.2   124  HIS124      0.2264
     54  O         -3.4590   -3.3900  -31.2350 O.2   124  HIS124     -0.2867
     55  CB        -5.7560   -5.7790  -30.2490 C.3   124  HIS124      0.0745
     56  CG        -4.4790   -6.5450  -30.1490 C.ar  124  HIS124      0.0817
     57  ND1       -4.0770   -7.4580  -31.0990 N.ar  124  HIS124     -0.2268
     58  CD2       -3.5000   -6.5340  -29.2070 C.ar  124  HIS124      0.1154
     59  CE1       -2.9120   -7.9740  -30.7520 C.ar  124  HIS124      0.1986
     60  NE2       -2.5410   -7.4240  -29.6050 N.ar  124  HIS124     -0.2212
     61  N         -1.5780   -3.9270  -27.0540 N.3   126  ASP126     -0.1239
     62  CA        -1.1420   -4.6460  -25.8710 C.3   126  ASP126      0.1674
     63  C         -0.5500   -3.6990  -24.8440 C.2   126  ASP126      0.2266
     64  O         -0.4510   -2.5020  -25.0900 O.2   126  ASP126     -0.2867
     65  CB        -0.1430   -5.7480  -26.2510 C.3   126  ASP126      0.1410
     66  CG        -0.8160   -6.9490  -26.8530 C.2   126  ASP126      0.3668
     67  OD1       -1.8600   -7.3600  -26.3200 O.co2 126  ASP126     -0.2456
     68  OD2       -0.3100   -7.4450  -27.8730 O.co2 126  ASP126     -0.2456
     69  N          7.3720  -11.0860  -31.8100 N.3   132  ILE132     -0.1245
     70  CA         6.5740  -12.0470  -32.5610 C.3   132  ILE132      0.1561
     71  C          7.4210  -12.7470  -33.6170 C.2   132  ILE132      0.2260
     72  O          7.8480  -12.1330  -34.5900 O.2   132  ILE132     -0.2867
     73  CB         5.3500  -11.3800  -33.2050 C.3   132  ILE132      0.0252
     74  CG1        4.5680  -10.5960  -32.1470 C.3   132  ILE132      0.0019
     75  CG2        4.4660  -12.4220  -33.8700 C.3   132  ILE132      0.0019
     76  CD1        3.2720  -10.0140  -32.6460 C.3   132  ILE132      0.0001
     77  N          2.7100  -14.2660  -42.6480 N.3   139  ARG139     -0.1245
     78  CA         1.7090  -13.4090  -42.0260 C.3   139  ARG139      0.1563
     79  C          1.9520  -11.9630  -42.4370 C.2   139  ARG139      0.2260
     80  O          3.0960  -11.5280  -42.5490 O.2   139  ARG139     -0.2867
     81  CB         1.7640  -13.5260  -40.5000 C.3   139  ARG139      0.0307
     82  CG         1.5060  -14.9240  -39.9550 C.3   139  ARG139      0.0489
     83  CD         0.1190  -15.0420  -39.3510 C.3   139  ARG139      0.2205
     84  NE         0.1160  -14.7950  -37.9140 N.pl3 139  ARG139     -0.0865
     85  CZ        -0.9830  -14.6010  -37.1920 C.cat 139  ARG139      0.5346
     86  NH1       -2.1740  -14.6130  -37.7710 N.pl3 139  ARG139      0.1354
     87  NH2       -0.8880  -14.3870  -35.8890 N.pl3 139  ARG139      0.1354
     88  N          1.7680   -8.3350  -41.1160 N.3   141  TRP141     -0.1241
     89  CA         1.7060   -7.6360  -39.8450 C.3   141  TRP141      0.1605
     90  C          1.7650   -6.1370  -40.0690 C.2   141  TRP141      0.2264
     91  O          2.5400   -5.6460  -40.8950 O.2   141  TRP141     -0.2867
     92  CB         2.8400   -8.0810  -38.9200 C.3   141  TRP141      0.0550
     93  CG         2.4890   -9.2620  -38.0820 C.ar  141  TRP141      0.0003
     94  CD1        2.8630  -10.5580  -38.2870 C.ar  141  TRP141      0.0946
     95  CD2        1.6830   -9.2550  -36.8960 C.ar  141  TRP141      0.0152
     96  NE1        2.3410  -11.3600  -37.2980 N.ar  141  TRP141     -0.2442
     97  CE2        1.6170  -10.5880  -36.4400 C.ar  141  TRP141      0.0810
     98  CE3        1.0200   -8.2550  -36.1860 C.ar  141  TRP141      0.0012
     99  CZ2        0.9020  -10.9370  -35.2950 C.ar  141  TRP141      0.0191
    100  CZ3        0.3130   -8.6070  -35.0560 C.ar  141  TRP141      0.0001
    101  CH2        0.2600   -9.9370  -34.6190 C.ar  141  TRP141      0.0015
    102  N         -1.4560   -2.9810  -33.2330 N.3   174  HIS174     -0.1241
    103  CA        -0.9600   -3.9100  -34.2350 C.3   174  HIS174      0.1621
    104  C         -2.0410   -4.8780  -34.6980 C.2   174  HIS174      0.2264
    105  O         -3.0090   -5.1360  -33.9820 O.2   174  HIS174     -0.2867
    106  CB         0.2620   -4.6680  -33.7080 C.3   174  HIS174      0.0745
    107  CG         0.0570   -5.2860  -32.3580 C.ar  174  HIS174      0.0817
    108  ND1        0.0800   -4.5510  -31.1910 N.ar  174  HIS174     -0.2268
    109  CD2       -0.1680   -6.5680  -31.9910 C.ar  174  HIS174      0.1154
    110  CE1       -0.1260   -5.3550  -30.1640 C.ar  174  HIS174      0.1986
    111  NE2       -0.2820   -6.5840  -30.6200 N.ar  174  HIS174     -0.2212
    112  N         -2.2110   -8.6160  -37.1930 N.3   176  GLY176     -0.1225
    113  CA        -1.5530   -9.5980  -38.0270 C.3   176  GLY176      0.1811
    114  C         -2.5060  -10.6830  -38.4730 C.2   176  GLY176      0.2280
    115  O         -3.3780  -11.1050  -37.7140 O.2   176  GLY176     -0.2866
    116  N          3.0890  -18.5450  -35.3550 N.3   184  ASN184     -0.1240
    117  CA         3.7270  -17.3930  -34.7300 C.3   184  ASN184      0.1653
    118  C          4.0640  -17.6830  -33.2760 C.2   184  ASN184      0.2266
    119  O          3.3030  -18.3480  -32.5730 O.2   184  ASN184     -0.2867
    120  CB         2.8470  -16.1440  -34.8280 C.3   184  ASN184      0.1155
    121  CG         3.0070  -15.4160  -36.1490 C.2   184  ASN184      0.2627
    122  OD1        2.3510  -14.4000  -36.3940 O.2   184  ASN184     -0.2716
    123  ND2        3.8770  -15.9330  -37.0120 N.am  184  ASN184     -0.0877
    124  N          5.0280  -15.7130  -29.9120 N.3   186  SER186     -0.1217
    125  CA         5.1320  -14.4820  -29.1390 C.3   186  SER186      0.1889
    126  C          5.9090  -14.6810  -27.8470 C.2   186  SER186      0.2288
    127  O          5.3960  -15.2530  -26.8790 O.2   186  SER186     -0.2866
    128  CB         3.7390  -13.9330  -28.8180 C.3   186  SER186      0.2089
    129  OG         3.1070  -13.4080  -29.9730 O.3   186  SER186     -0.2183
@<TRIPOS>BOND
     1    77    78    1
     2    80    79    2
     3    79    78    1
     4    78    81    1
     5    88    89    1
     6    91    90    2
     7    81    82    1
     8    90    89    1
     9    82    83    1
    10    89    92    1
    11    83    84    1
    12    92    93    1
    13   114   113    1
    14   114   115    2
    15    94    93   ar
    16    94    96   ar
    17    93    95   ar
    18   113   112    1
    19    84    85    2
    20    86    85    1
    21    40    41    1
    22    96    97   ar
    23    85    87    1
    24   123   121   am
    25    95    97   ar
    26    95    98   ar
    27    41    42    1
    28    97    99   ar
    29   122   121    2
    30    98   100   ar
    31   121   120    1
    32    12    13    1
    33    42    43    2
    34    42    44   am
    35    13    16    1
    36    13    14    1
    37   116   117    1
    38    99   101   ar
    39    16    17    1
    40   100   101   ar
    41   120   117    1
    42   117   118    1
    43    44    45    1
    44   104   103    1
    45   104   105    2
    46    72    71    2
    47    37    36    2
    48   103   106    1
    49   103   102    1
    50    14    15    2
    51    75    73    1
    52    36    35    1
    53    46    45    1
    54    46    47    2
    55    39    38    1
    56   106   107    1
    57    71    70    1
    58    45    48    1
    59   118   119    2
    60    73    70    1
    61    73    74    1
    62    38    35    1
    63    76    74    1
    64    70    69    1
    65    35    34    1
    66    51    52    1
    67   107   109   ar
    68   107   108   ar
    69    50    48    1
    70    48    49    1
    71   109   111   ar
    72    24    23    1
    73    54    53    2
    74   108   110   ar
    75    57    59   ar
    76    57    56   ar
    77    52    53    1
    78    52    55    1
    79    23    25    1
    80    23    22    1
    81    59    60   ar
    82   111   110   ar
    83    18    19    1
    84    55    56    1
    85    56    58   ar
    86   129   128    1
    87   124   125    1
    88    19    22    1
    89    19    20    1
    90    60    58   ar
    91     4     3    2
    92   125   128    1
    93   125   126    1
    94    33    32    1
    95     3     2    1
    96    29    28    2
    97    32    31    1
    98    20    21    2
    99    11     9    1
   100    28    27    1
   101    68    66   ar
   102   126   127    2
   103     6     5    1
   104     6     7    1
   105     9     8    2
   106     9    10    1
   107     8     7    1
   108     2     5    1
   109     2     1    1
   110    61    62    1
   111    31    30    1
   112    66    67   ar
   113    66    65    1
   114    27    30    1
   115    27    26    1
   116    65    62    1
   117    62    63    1
   118    64    63    2
