@<TRIPOS>MOLECULE
tmp/4lizA00.pdb
 90 84 0 0 0
SMALL
GASTEIGER

@<TRIPOS>ATOM
      1  N         25.9060   17.6160   15.6050 N.3    29  GLY29      -0.1210
      2  CA        25.6410   18.5100   14.5010 C.3    29  GLY29       0.1956
      3  C         24.5380   18.0210   13.6220 C.2    29  GLY29       0.2612
      4  O         23.9670   16.9320   13.7590 O.2    29  GLY29      -0.2717
      5  N         24.1110   18.8990   12.7330 N.am   30  VAL30      -0.1965
      6  CA        22.9290   18.6860   11.9290 C.3    30  VAL30       0.1727
      7  C         23.3010   18.7060   10.4670 C.2    30  VAL30       0.2616
      8  O         23.8160   19.7400    9.9900 O.2    30  VAL30      -0.2715
      9  CB        21.8450   19.7780   12.3290 C.3    30  VAL30       0.0290
     10  CG1       20.5720   19.5890   11.5140 C.3    30  VAL30       0.0023
     11  CG2       21.4340   19.7060   13.7440 C.3    30  VAL30       0.0023
     12  N         23.0360   17.6160    9.7640 N.am   31  GLN31      -0.1963
     13  CA        23.1790   17.5310    8.3040 C.3    31  GLN31       0.1733
     14  C         21.7880   17.5420    7.6770 C.2    31  GLN31       0.2617
     15  O         20.7890   17.1930    8.2680 O.2    31  GLN31      -0.2715
     16  CB        23.9010   16.2720    7.8850 C.3    31  GLN31       0.0408
     17  CG        25.3200   16.2130    8.3960 C.3    31  GLN31       0.0908
     18  CD        26.0380   14.9210    8.0440 C.2    31  GLN31       0.2608
     19  OE1       25.4420   13.9720    7.4670 O.2    31  GLN31      -0.2717
     20  NE2       27.2970   14.8510    8.4060 N.am   31  GLN31      -0.0878
     21  N         21.7410   18.0530    6.4200 N.am   32  THR32      -0.1951
     22  CA        20.5120   18.0540    5.6300 C.3    32  THR32       0.1897
     23  C         20.7340   17.2680    4.3240 C.2    32  THR32       0.2313
     24  O         21.8870   16.9420    3.9600 O.2    32  THR32      -0.2863
     25  CB        20.0530   19.4820    5.3530 C.3    32  THR32       0.1794
     26  OG1       21.0940   20.1660    4.6480 O.3    32  THR32      -0.2208
     27  CG2       19.7510   20.2250    6.6820 C.3    32  THR32       0.0378
     28  N         24.4270   14.0340   13.5530 N.3    38  VAL38      -0.1245
     29  CA        25.7150   13.3160   13.5970 C.3    38  VAL38       0.1561
     30  C         26.4500   13.7190   14.8360 C.2    38  VAL38       0.2260
     31  O         26.2290   14.8150   15.4170 O.2    38  VAL38      -0.2867
     32  CB        26.5590   13.5920   12.3310 C.3    38  VAL38       0.0252
     33  CG1       25.7490   13.0540   11.1050 C.3    38  VAL38       0.0019
     34  CG2       26.9920   15.0400   12.1880 C.3    38  VAL38       0.0019
     35  N         29.3930   15.5130   16.4030 N.3    40  ASP40      -0.1239
     36  CA        30.4840   16.4530   16.1990 C.3    40  ASP40       0.1674
     37  C         31.6570   16.2650   17.1470 C.2    40  ASP40       0.2266
     38  O         32.7580   16.4020   16.7750 O.2    40  ASP40      -0.2867
     39  CB        29.9790   17.9060   16.3130 C.3    40  ASP40       0.1410
     40  CG        29.1560   18.3600   15.1210 C.2    40  ASP40       0.3668
     41  OD1       29.0990   17.6870   14.1220 O.co2  40  ASP40      -0.2456
     42  OD2       28.5640   19.4200   15.2590 O.co2  40  ASP40      -0.2456
     43  N         29.7650   25.9270   17.0630 N.3    55  LYS55      -0.1245
     44  CA        30.2310   26.7310   15.9010 C.3    55  LYS55       0.1561
     45  C         29.2130   27.8440   15.6240 C.2    55  LYS55       0.2260
     46  O         28.0000   27.6630   15.6650 O.2    55  LYS55      -0.2867
     47  CB        30.4150   25.8460   14.7180 C.3    55  LYS55       0.0271
     48  CG        31.4080   24.6990   14.8550 C.3    55  LYS55       0.0035
     49  CD        32.7650   25.2250   15.3650 C.3    55  LYS55       0.0206
     50  CE        33.7620   24.0750   15.5600 C.3    55  LYS55       0.1093
     51  NZ        34.6750   24.4810   16.6530 N.3    55  LYS55      -0.1314
     52  N         28.2630   29.3260   13.0810 N.3    57  ASP57      -0.1225
     53  CA        27.4100   29.1560   11.9140 C.3    57  ASP57       0.1805
     54  C         26.5540   27.9230   11.8450 C.2    57  ASP57       0.2598
     55  O         26.0570   27.5350   10.7870 O.2    57  ASP57      -0.2718
     56  CB        28.2180   29.3240   10.6340 C.3    57  ASP57       0.1424
     57  CG        29.1720   28.2060   10.4140 C.2    57  ASP57       0.3668
     58  OD1       29.4520   27.4670   11.3780 O.co2  57  ASP57      -0.2456
     59  OD2       29.6110   28.0230    9.2680 O.co2  57  ASP57      -0.2456
     60  N         26.3670   27.2590   13.0430 N.am   58  ALA58      -0.1966
     61  CA        25.7360   25.9860   13.0640 C.3    58  ALA58       0.1728
     62  C         24.5340   25.9010   14.0180 C.2    58  ALA58       0.2616
     63  O         24.5020   26.5980   15.0130 O.2    58  ALA58      -0.2715
     64  CB        26.7810   24.8940   13.4650 C.3    58  ALA58       0.0334
     65  N         23.7000   24.9410   13.7030 N.am   59  LEU59      -0.1963
     66  CA        22.6260   24.4490   14.6200 C.3    59  LEU59       0.1728
     67  C         23.1720   23.1430   15.2550 C.2    59  LEU59       0.2616
     68  O         23.4860   22.2100   14.5210 O.2    59  LEU59      -0.2715
     69  CB        21.3600   24.1680   13.7820 C.3    59  LEU59       0.0311
     70  CG        20.1120   24.0740   14.6360 C.3    59  LEU59       0.0022
     71  CD1       18.8170   23.7660   13.8210 C.3    59  LEU59       0.0001
     72  CD2       20.1560   22.9200   15.5110 C.3    59  LEU59       0.0001
     73  N         23.2500   23.1010   16.5580 N.am   60  GLN60      -0.1977
     74  CA        23.8350   21.9400   17.2690 C.3    60  GLN60       0.1601
     75  C         23.0620   21.6220   18.5220 C.2    60  GLN60       0.2287
     76  O         22.2270   22.4460   18.9780 O.2    60  GLN60      -0.2864
     77  CB        25.3090   22.1810   17.5550 C.3    60  GLN60       0.0394
     78  CG        26.2300   22.2740   16.3350 C.3    60  GLN60       0.0908
     79  CD        27.5480   22.8820   16.6520 C.2    60  GLN60       0.2608
     80  OE1       27.6710   24.0490   16.9210 O.2    60  GLN60      -0.2717
     81  NE2       28.5510   22.0130   16.7820 N.am   60  GLN60      -0.0878
     82  N         21.0260   30.0460    6.8280 N.3    90  LYS90      -0.1245
     83  CA        19.6670   29.7340    6.3120 C.3    90  LYS90       0.1561
     84  C         18.5940   29.8860    7.3640 C.2    90  LYS90       0.2260
     85  O         18.5260   29.0530    8.2840 O.2    90  LYS90      -0.2867
     86  CB        19.6510   28.3730    5.7710 C.3    90  LYS90       0.0271
     87  CG        20.7470   28.1570    4.6860 C.3    90  LYS90       0.0035
     88  CD        20.5990   26.8620    3.9160 C.3    90  LYS90       0.0206
     89  CE        20.5510   25.6170    4.8150 C.3    90  LYS90       0.1093
     90  NZ        21.6330   25.4800    5.8560 N.3    90  LYS90      -0.1314
@<TRIPOS>BOND
     1    88    87    1
     2    88    89    1
     3    24    23    2
     4    23    22    1
     5    26    25    1
     6    87    86    1
     7    89    90    1
     8    25    22    1
     9    25    27    1
    10    22    21    1
    11    86    83    1
    12    83    82    1
    13    83    84    1
    14    21    14   am
    15    84    85    2
    16    19    18    2
    17    14    15    2
    18    14    13    1
    19    16    13    1
    20    16    17    1
    21    18    17    1
    22    18    20   am
    23    13    12    1
    24    59    57   ar
    25    12     7   am
    26     8     7    2
    27    57    56    1
    28    57    58   ar
    29     7     6    1
    30    56    53    1
    31    55    54    2
    32    33    32    1
    33    10     9    1
    34    54    53    1
    35    54    60   am
    36    53    52    1
    37     6     9    1
    38     6     5    1
    39    34    32    1
    40     9    11    1
    41    32    29    1
    42     5     3   am
    43    60    61    1
    44    61    64    1
    45    61    62    1
    46    28    29    1
    47    29    30    1
    48     3     4    2
    49     3     2    1
    50    65    62   am
    51    65    66    1
    52    69    66    1
    53    69    70    1
    54    71    70    1
    55    62    63    2
    56    41    40   ar
    57     2     1    1
    58    68    67    2
    59    66    67    1
    60    70    72    1
    61    47    48    1
    62    47    44    1
    63    30    31    2
    64    48    49    1
    65    40    42   ar
    66    40    39    1
    67    67    73   am
    68    49    50    1
    69    50    51    1
    70    45    46    2
    71    45    44    1
    72    44    43    1
    73    36    39    1
    74    36    35    1
    75    36    37    1
    76    78    79    1
    77    78    77    1
    78    73    74    1
    79    79    81   am
    80    79    80    2
    81    38    37    2
    82    74    77    1
    83    74    75    1
    84    75    76    2
