@<TRIPOS>MOLECULE
tmp/4lj0A00.pdb
 119 119 0 0 0
SMALL
GASTEIGER

@<TRIPOS>ATOM
      1  N        -33.0430   31.1900  -21.2620 N.3     9  ASN9       -0.1225
      2  CA       -32.5800   31.8600  -22.4760 C.3     9  ASN9        0.1785
      3  C        -31.1280   32.2990  -22.3580 C.2     9  ASN9        0.2597
      4  O        -30.7710   33.4170  -22.7280 O.2     9  ASN9       -0.2718
      5  CB       -33.4710   33.0650  -22.7980 C.3     9  ASN9        0.1169
      6  CG       -34.8920   32.6620  -23.1370 C.2     9  ASN9        0.2627
      7  OD1      -35.8490   33.1320  -22.5220 O.2     9  ASN9       -0.2716
      8  ND2      -35.0360   31.7800  -24.1180 N.am    9  ASN9       -0.0877
      9  N        -30.2960   31.4060  -21.8360 N.am   10  CYS10      -0.1956
     10  CA       -28.8760   31.6720  -21.6900 C.3    10  CYS10       0.1843
     11  C        -28.1530   31.3960  -23.0060 C.2    10  CYS10       0.2625
     12  O        -28.2780   30.3120  -23.5730 O.2    10  CYS10      -0.2714
     13  CB       -28.2940   30.8050  -20.5770 C.3    10  CYS10       0.0997
     14  SG       -26.5550   31.1360  -20.2530 S.3    10  CYS10      -0.0797
     15  N        -27.3930   32.3810  -23.4770 N.am   11  ALA11      -0.1963
     16  CA       -26.7230   32.3000  -24.7740 C.3    11  ALA11       0.1728
     17  C        -25.2360   31.9640  -24.6520 C.2    11  ALA11       0.2616
     18  O        -24.5330   31.8740  -25.6600 O.2    11  ALA11      -0.2715
     19  CB       -26.8960   33.6080  -25.5220 C.3    11  ALA11       0.0334
     20  N        -24.7590   31.7880  -23.4240 N.am   12  ASN12      -0.1959
     21  CA       -23.3560   31.4690  -23.1860 C.3    12  ASN12       0.1804
     22  C        -23.1960   29.9710  -22.9400 C.2    12  ASN12       0.2463
     23  O        -23.5300   29.4850  -21.8610 O.2    12  ASN12      -0.2730
     24  CB       -22.8310   32.2600  -21.9870 C.3    12  ASN12       0.1195
     25  CG       -21.3370   32.0820  -21.7700 C.2    12  ASN12       0.2630
     26  OD1      -20.7090   31.1880  -22.3410 O.2    12  ASN12      -0.2716
     27  ND2      -20.7610   32.9320  -20.9270 N.am   12  ASN12      -0.0877
     28  N        -22.6850   29.2280  -23.9380 N.am   13  PRO13      -0.2727
     29  CA       -22.5580   27.7770  -23.7560 C.3    13  PRO13       0.1402
     30  C        -21.6020   27.3800  -22.6330 C.2    13  PRO13       0.2269
     31  O        -21.6660   26.2440  -22.1620 O.2    13  PRO13      -0.2865
     32  CB       -22.0250   27.2910  -25.1110 C.3    13  PRO13       0.0296
     33  CG       -21.4360   28.4950  -25.7560 C.3    13  PRO13       0.0237
     34  CD       -22.2510   29.6510  -25.2820 C.3    13  PRO13       0.0939
     35  N        -41.4400   32.3050  -12.7420 N.3    43  THR43      -0.1204
     36  CA       -41.4310   33.6620  -13.2660 C.3    43  THR43       0.1979
     37  C        -42.6440   33.8800  -14.1670 C.2    43  THR43       0.2460
     38  O        -42.8160   33.1580  -15.1510 O.2    43  THR43      -0.2732
     39  CB       -40.1540   33.9290  -14.0880 C.3    43  THR43       0.1783
     40  OG1      -39.0010   33.7200  -13.2630 O.3    43  THR43      -0.2211
     41  CG2      -40.1400   35.3550  -14.6220 C.3    43  THR43       0.0376
     42  N        -43.4960   34.8670  -13.8350 N.am   44  PRO44      -0.2717
     43  CA       -44.6550   35.1340  -14.6970 C.3    44  PRO44       0.1535
     44  C        -44.2980   35.5850  -16.1130 C.2    44  PRO44       0.2599
     45  O        -43.3310   36.3190  -16.3120 O.2    44  PRO44      -0.2715
     46  CB       -45.4120   36.2460  -13.9520 C.3    44  PRO44       0.0310
     47  CG       -44.5040   36.7240  -12.8800 C.3    44  PRO44       0.0237
     48  CD       -43.5770   35.6080  -12.5630 C.3    44  PRO44       0.0939
     49  N        -45.0770   35.1260  -17.0880 N.am   45  CYS45      -0.1954
     50  CA       -44.9400   35.5810  -18.4650 C.3    45  CYS45       0.1843
     51  C        -45.3630   37.0390  -18.5510 C.2    45  CYS45       0.2625
     52  O        -46.3590   37.4360  -17.9450 O.2    45  CYS45      -0.2714
     53  CB       -45.8040   34.7290  -19.3940 C.3    45  CYS45       0.0997
     54  SG       -45.8550   35.3120  -21.0900 S.3    45  CYS45      -0.0797
     55  N        -44.6070   37.8310  -19.3050 N.am   46  LYS46      -0.1963
     56  CA       -44.8150   39.2760  -19.3560 C.3    46  LYS46       0.1728
     57  C        -45.7730   39.6930  -20.4690 C.2    46  LYS46       0.2616
     58  O        -46.1960   40.8450  -20.5210 O.2    46  LYS46      -0.2715
     59  CB       -43.4730   39.9940  -19.5390 C.3    46  LYS46       0.0311
     60  CG       -42.7910   39.7050  -20.8680 C.3    46  LYS46       0.0038
     61  CD       -41.4130   40.3450  -20.9540 C.3    46  LYS46       0.0206
     62  CE       -40.7350   40.0160  -22.2800 C.3    46  LYS46       0.1093
     63  NZ       -39.4250   40.7100  -22.4460 N.3    46  LYS46      -0.1314
     64  N        -46.1180   38.7610  -21.3530 N.am   47  PHE47      -0.1974
     65  CA       -46.9520   39.0830  -22.5090 C.3    47  PHE47       0.1639
     66  C        -48.4390   38.9420  -22.2060 C.2    47  PHE47       0.2290
     67  O        -48.8720   37.9540  -21.6130 O.2    47  PHE47      -0.2864
     68  CB       -46.5800   38.1940  -23.6930 C.3    47  PHE47       0.0560
     69  CG       -45.1950   38.4350  -24.2130 C.ar   47  PHE47      -0.0200
     70  CD1      -44.9540   39.4400  -25.1320 C.ar   47  PHE47      -0.0042
     71  CD2      -44.1320   37.6630  -23.7760 C.ar   47  PHE47      -0.0042
     72  CE1      -43.6820   39.6680  -25.6100 C.ar   47  PHE47      -0.0003
     73  CE2      -42.8580   37.8860  -24.2520 C.ar   47  PHE47      -0.0003
     74  CZ       -42.6320   38.8900  -25.1700 C.ar   47  PHE47      -0.0000
     75  N        -51.9330   39.4650  -24.4580 N.3    49  PRO49      -0.2102
     76  CA       -51.8900   38.0090  -24.2780 C.3    49  PRO49       0.1504
     77  C        -50.5590   37.4080  -24.7130 C.2    49  PRO49       0.2576
     78  O        -49.8470   38.0120  -25.5150 O.2    49  PRO49      -0.2718
     79  CB       -53.0020   37.5200  -25.2040 C.3    49  PRO49       0.0282
     80  CG       -53.0360   38.5220  -26.2890 C.3    49  PRO49       0.0208
     81  CD       -52.7330   39.8400  -25.6360 C.3    49  PRO49       0.0893
     82  N        -50.2310   36.2330  -24.1830 N.am   50  CYS50      -0.1957
     83  CA       -49.0800   35.4740  -24.6570 C.3    50  CYS50       0.1843
     84  C        -49.5310   34.5260  -25.7600 C.2    50  CYS50       0.2626
     85  O        -50.4720   33.7560  -25.5730 O.2    50  CYS50      -0.2714
     86  CB       -48.4480   34.6730  -23.5200 C.3    50  CYS50       0.0997
     87  SG       -47.1810   33.5050  -24.0840 S.3    50  CYS50      -0.0797
     88  N        -48.8590   34.5850  -26.9050 N.am   51  THR51      -0.1936
     89  CA       -49.2260   33.7650  -28.0580 C.3    51  THR51       0.2028
     90  C        -48.1020   32.8130  -28.4620 C.2    51  THR51       0.2642
     91  O        -48.1250   32.2360  -29.5450 O.2    51  THR51      -0.2714
     92  CB       -49.6090   34.6360  -29.2550 C.3    51  THR51       0.1808
     93  OG1      -48.5140   35.4930  -29.5960 O.3    51  THR51      -0.2208
     94  CG2      -50.8320   35.4780  -28.9260 C.3    51  THR51       0.0379
     95  N        -47.1210   32.6480  -27.5810 N.am   52  ASN52      -0.1971
     96  CA       -46.0920   31.6370  -27.7700 C.3    52  ASN52       0.1688
     97  C        -46.5760   30.3350  -27.1360 C.2    52  ASN52       0.2292
     98  O        -46.6140   30.2100  -25.9170 O.2    52  ASN52      -0.2864
     99  CB       -44.7800   32.1020  -27.1370 C.3    52  ASN52       0.1181
    100  CG       -43.6860   31.0540  -27.2120 C.2    52  ASN52       0.2629
    101  OD1      -43.8750   29.9760  -27.7760 O.2    52  ASN52      -0.2716
    102  ND2      -42.5240   31.3750  -26.6520 N.am   52  ASN52      -0.0877
    103  N        -44.2910   28.6890  -24.6730 N.3    55  CYS55      -0.1235
    104  CA       -43.7760   29.6000  -23.6530 C.3    55  CYS55       0.1677
    105  C        -43.5790   28.8550  -22.3340 C.2    55  CYS55       0.2270
    106  O        -44.5230   28.2510  -21.8280 O.2    55  CYS55      -0.2867
    107  CB       -44.7480   30.7650  -23.4460 C.3    55  CYS55       0.0956
    108  SG       -44.1550   32.0430  -22.3140 S.3    55  CYS55      -0.0801
    109  N        -42.7510   30.2290  -19.4350 N.3    57  PHE57      -0.1241
    110  CA       -43.0210   31.0600  -18.2750 C.3    57  PHE57       0.1605
    111  C        -44.3880   30.7470  -17.6660 C.2    57  PHE57       0.2264
    112  O        -45.1440   29.9320  -18.1940 O.2    57  PHE57      -0.2867
    113  CB       -42.8650   32.5280  -18.6470 C.3    57  PHE57       0.0534
    114  CG       -41.4420   32.9090  -18.9410 C.ar   57  PHE57      -0.0203
    115  CD1      -40.9350   32.8150  -20.2250 C.ar   57  PHE57      -0.0042
    116  CD2      -40.6000   33.3230  -17.9230 C.ar   57  PHE57      -0.0042
    117  CE1      -39.6190   33.1520  -20.4930 C.ar   57  PHE57      -0.0003
    118  CE2      -39.2840   33.6580  -18.1840 C.ar   57  PHE57      -0.0003
    119  CZ       -38.7940   33.5730  -19.4720 C.ar   57  PHE57      -0.0000
@<TRIPOS>BOND
     1    93    92    1
     2    91    90    2
     3    92    94    1
     4    92    89    1
     5    90    89    1
     6    90    95   am
     7    89    88    1
     8   101   100    2
     9    96    95    1
    10    96    99    1
    11    96    97    1
    12   100    99    1
    13   100   102   am
    14    97    98    2
    15    88    84   am
    16    80    81    1
    17    80    79    1
    18    84    85    2
    19    84    83    1
    20    33    34    1
    21    33    32    1
    22    18    17    2
    23    81    75    1
    24    72    74   ar
    25    72    70   ar
    26    19    16    1
    27    78    77    2
    28    34    28    1
    29    79    76    1
    30    74    73   ar
    31    70    69   ar
    32    32    29    1
    33    16    17    1
    34    16    15    1
    35    77    76    1
    36    77    82   am
    37   103   104    1
    38    83    82    1
    39    83    86    1
    40    17    20   am
    41    75    76    1
    42    73    71   ar
    43    69    71   ar
    44    69    68    1
    45     8     6   am
    46    87    86    1
    47    28    29    1
    48    28    22   am
    49    29    30    1
    50    68    65    1
    51   104   107    1
    52   104   105    1
    53    12    11    2
    54    15    11   am
    55   107   108    1
    56    20    21    1
    57    21    22    1
    58    21    24    1
    59     6     5    1
    60     6     7    2
    61    11    10    1
    62    22    23    2
    63     5     2    1
    64     4     3    2
    65    30    31    2
    66    65    66    1
    67    65    64    1
    68     2     3    1
    69     2     1    1
    70    63    62    1
    71     3     9   am
    72    26    25    2
    73   105   106    2
    74    62    61    1
    75    66    67    2
    76    24    25    1
    77     9    10    1
    78    25    27   am
    79    10    13    1
    80    64    57   am
    81    54    53    1
    82    61    60    1
    83    60    59    1
    84    13    14    1
    85    58    57    2
    86   117   115   ar
    87   117   119   ar
    88    57    56    1
    89   115   114   ar
    90    59    56    1
    91   119   118   ar
    92   109   110    1
    93    53    50    1
    94    56    55    1
    95    55    51   am
    96   114   113    1
    97   114   116   ar
    98   113   110    1
    99    51    50    1
   100    51    52    2
   101    50    49    1
   102   110   111    1
   103   112   111    2
   104   118   116   ar
   105    49    44   am
   106    45    44    2
   107    44    43    1
   108    38    37    2
   109    43    46    1
   110    43    42    1
   111    41    39    1
   112    37    42   am
   113    37    36    1
   114    39    36    1
   115    39    40    1
   116    46    47    1
   117    42    48    1
   118    36    35    1
   119    47    48    1
