@<TRIPOS>MOLECULE
tmp/4lj3B00.pdb
 230 216 0 0 0
SMALL
GASTEIGER

@<TRIPOS>ATOM
      1  N          0.6590   19.1020    1.5060 N.3    24  GLN24      -0.1245
      2  CA        -0.3250   18.0890    1.8520 C.3    24  GLN24       0.1566
      3  C         -1.6820   18.7670    1.9430 C.2    24  GLN24       0.2260
      4  O         -1.8120   19.7640    2.6390 O.2    24  GLN24      -0.2867
      5  CB         0.0350   17.3900    3.1620 C.3    24  GLN24       0.0367
      6  CG        -0.9230   16.2640    3.5220 C.3    24  GLN24       0.0905
      7  CD        -0.5090   15.4660    4.7480 C.2    24  GLN24       0.2608
      8  OE1        0.0830   16.0000    5.7150 O.2    24  GLN24      -0.2717
      9  NE2       -0.8520   14.1830    4.7410 N.am   24  GLN24      -0.0878
     10  N         -0.8880   22.0370    4.1360 N.3    38  GLU38      -0.1231
     11  CA         0.2870   22.2770    4.9500 C.3    38  GLU38       0.1699
     12  C          1.5060   22.1080    4.0480 C.2    38  GLU38       0.2592
     13  O          1.5930   21.1530    3.2750 O.2    38  GLU38      -0.2718
     14  CB         0.3980   21.3150    6.1410 C.3    38  GLU38       0.0402
     15  CG         1.5870   21.7040    7.0210 C.3    38  GLU38       0.1161
     16  CD         1.8180   20.7610    8.1910 C.2    38  GLU38       0.3649
     17  OE1        2.7790   20.9680    8.9380 O.co2  38  GLU38      -0.2457
     18  OE2        1.0560   19.7980    8.3460 O.co2  38  GLU38      -0.2457
     19  N          2.4240   23.0640    4.1280 N.am   39  VAL39      -0.1966
     20  CA         3.7030   23.0040    3.3870 C.3    39  VAL39       0.1727
     21  C          4.7340   22.2590    4.2470 C.2    39  VAL39       0.2616
     22  O          4.9160   22.6110    5.4200 O.2    39  VAL39      -0.2715
     23  CB         4.2320   24.4200    3.0580 C.3    39  VAL39       0.0290
     24  CG1        5.6030   24.3550    2.3550 C.3    39  VAL39       0.0023
     25  CG2        3.2510   25.1870    2.1960 C.3    39  VAL39       0.0023
     26  N          5.3620   21.2250    3.6810 N.am   40  LEU40      -0.1963
     27  CA         6.3250   20.4090    4.4110 C.3    40  LEU40       0.1728
     28  C          7.5570   20.3580    3.5730 C.2    40  LEU40       0.2616
     29  O          7.4680   20.0250    2.3830 O.2    40  LEU40      -0.2715
     30  CB         5.7600   19.0110    4.6510 C.3    40  LEU40       0.0311
     31  CG         4.6200   19.0550    5.6860 C.3    40  LEU40       0.0022
     32  CD1        3.6640   17.8980    5.6040 C.3    40  LEU40       0.0001
     33  CD2        5.2180   19.1640    7.0770 C.3    40  LEU40       0.0001
     34  N          8.6750   20.7400    4.1780 N.am   41  VAL41      -0.1963
     35  CA         9.9420   20.8520    3.4550 C.3    41  VAL41       0.1727
     36  C         10.5480   19.4770    3.1210 C.2    41  VAL41       0.2616
     37  O         10.4560   18.5130    3.8880 O.2    41  VAL41      -0.2715
     38  CB        10.9440   21.7710    4.1950 C.3    41  VAL41       0.0290
     39  CG1       11.4590   21.1390    5.4680 C.3    41  VAL41       0.0023
     40  CG2       12.1140   22.1670    3.2840 C.3    41  VAL41       0.0023
     41  N         11.1570   19.4060    1.9440 N.am   42  ARG42      -0.1977
     42  CA        11.8970   18.2300    1.5020 C.3    42  ARG42       0.1597
     43  C         13.2120   18.6880    0.9190 C.2    42  ARG42       0.2287
     44  O         13.2460   19.6380    0.1400 O.2    42  ARG42      -0.2864
     45  CB        11.1000   17.4610    0.4440 C.3    42  ARG42       0.0334
     46  CG         9.8100   16.8350    0.9550 C.3    42  ARG42       0.0492
     47  CD        10.0560   15.6810    1.9160 C.3    42  ARG42       0.2205
     48  NE         8.8130   15.0540    2.3920 N.pl3  42  ARG42      -0.0865
     49  CZ         8.1030   15.4440    3.4600 C.cat  42  ARG42       0.5346
     50  NH1        8.4720   16.5000    4.1690 N.pl3  42  ARG42       0.1354
     51  NH2        6.9970   14.7880    3.8000 N.pl3  42  ARG42       0.1354
     52  N         14.1100   13.6060    4.2610 N.3    52  PRO52      -0.2103
     53  CA        12.9920   14.1710    5.0020 C.3    52  PRO52       0.1489
     54  C         13.4030   15.1120    6.1610 C.2    52  PRO52       0.2418
     55  O         14.5460   15.1440    6.5980 O.2    52  PRO52      -0.2734
     56  CB        12.2800   12.9280    5.5290 C.3    52  PRO52       0.0282
     57  CG        13.4030   11.9860    5.8180 C.3    52  PRO52       0.0208
     58  CD        14.3820   12.2160    4.6890 C.3    52  PRO52       0.0893
     59  N         12.4580   15.9130    6.6430 N.am   53  PRO53      -0.2718
     60  CA        12.8020   16.9660    7.6000 C.3    53  PRO53       0.1535
     61  C         13.4360   16.5020    8.9180 C.2    53  PRO53       0.2598
     62  O         14.2590   17.2020    9.4700 O.2    53  PRO53      -0.2715
     63  CB        11.4600   17.6810    7.8580 C.3    53  PRO53       0.0310
     64  CG        10.4240   16.9680    7.0450 C.3    53  PRO53       0.0237
     65  CD        11.0910   16.0160    6.1190 C.3    53  PRO53       0.0939
     66  N         13.0630   15.3330    9.4220 N.am   54  ASP54      -0.1972
     67  CA        13.6530   14.8400   10.6800 C.3    54  ASP54       0.1709
     68  C         15.1810   14.6950   10.6260 C.2    54  ASP54       0.2293
     69  O         15.8340   14.6980   11.6570 O.2    54  ASP54      -0.2864
     70  CB        12.9950   13.5260   11.1100 C.3    54  ASP54       0.1436
     71  CG        11.5840   13.7160   11.6300 C.2    54  ASP54       0.3671
     72  OD1       11.1630   14.8800   11.8570 O.co2  54  ASP54      -0.2456
     73  OD2       10.8680   12.6830   11.8010 O.co2  54  ASP54      -0.2456
     74  N         15.9340   19.3880    9.9800 N.3    57  ILE57      -0.1245
     75  CA        15.2700   20.5160   10.6160 C.3    57  ILE57       0.1561
     76  C         15.8650   20.8520   11.9760 C.2    57  ILE57       0.2260
     77  O         16.1610   22.0130   12.2470 O.2    57  ILE57      -0.2867
     78  CB        13.7340   20.2890   10.6690 C.3    57  ILE57       0.0252
     79  CG1       13.1460   20.5750    9.2830 C.3    57  ILE57       0.0019
     80  CG2       13.0650   21.1370   11.7380 C.3    57  ILE57       0.0019
     81  CD1       13.2410   22.0210    8.8510 C.3    57  ILE57       0.0001
     82  N         17.2200   24.5060   12.8180 N.3    61  GLU61      -0.1245
     83  CA        16.7520   25.3170   13.9430 C.3    61  GLU61       0.1567
     84  C         17.9070   25.7470   14.8710 C.2    61  GLU61       0.2260
     85  O         18.1100   26.9410   15.0800 O.2    61  GLU61      -0.2867
     86  CB        15.6000   24.6110   14.6930 C.3    61  GLU61       0.0388
     87  CG        14.3350   24.5290   13.8320 C.3    61  GLU61       0.1160
     88  CD        13.0530   24.0240   14.4870 C.2    61  GLU61       0.3649
     89  OE1       12.9310   24.0950   15.7080 O.co2  61  GLU61      -0.2457
     90  OE2       12.1350   23.5800   13.7540 O.co2  61  GLU61      -0.2457
     91  N         17.4840   27.7830    9.6030 N.3    66  ILE66      -0.1245
     92  CA        16.0460   27.6720    9.4030 C.3    66  ILE66       0.1561
     93  C         15.4340   28.9790    8.8990 C.2    66  ILE66       0.2260
     94  O         14.4890   28.9430    8.1110 O.2    66  ILE66      -0.2867
     95  CB        15.3270   27.1860   10.6870 C.3    66  ILE66       0.0252
     96  CG1       13.8880   26.7800   10.3780 C.3    66  ILE66       0.0019
     97  CG2       15.4100   28.2340   11.8030 C.3    66  ILE66       0.0019
     98  CD1       13.7720   25.4210    9.7330 C.3    66  ILE66       0.0001
     99  N         13.0590   28.9110    5.6780 N.3    70  THR70      -0.1218
    100  CA        11.6220   29.2250    5.7200 C.3    70  THR70       0.1862
    101  C         11.3140   30.3880    4.7600 C.2    70  THR70       0.2287
    102  O         10.3190   30.3740    4.0630 O.2    70  THR70      -0.2866
    103  CB        11.2190   29.5280    7.1540 C.3    70  THR70       0.1770
    104  OG1       11.5260   28.3800    7.9610 O.3    70  THR70      -0.2211
    105  CG2        9.7110   29.8810    7.2930 C.3    70  THR70       0.0375
    106  N         11.1710   28.8150    1.4150 N.3    73  LEU73      -0.1245
    107  CA         9.9560   28.0050    1.3110 C.3    73  LEU73       0.1561
    108  C          8.7100   28.8620    1.0980 C.2    73  LEU73       0.2260
    109  O          7.7980   28.4770    0.3510 O.2    73  LEU73      -0.2867
    110  CB         9.7680   27.1380    2.5530 C.3    73  LEU73       0.0270
    111  CG        10.7750   25.9950    2.5950 C.3    73  LEU73       0.0019
    112  CD1       10.8220   25.3780    3.9890 C.3    73  LEU73       0.0001
    113  CD2       10.4490   24.9420    1.5410 C.3    73  LEU73       0.0001
    114  N          2.1700   27.0050    7.1880 N.3    96  ILE96      -0.1231
    115  CA         3.6150   27.0880    7.1330 C.3    96  ILE96       0.1692
    116  C          4.1200   26.7990    8.5260 C.2    96  ILE96       0.2592
    117  O          3.7290   27.4690    9.5080 O.2    96  ILE96      -0.2718
    118  CB         4.1540   28.5020    6.7700 C.3    96  ILE96       0.0266
    119  CG1        3.5230   29.0610    5.4870 C.3    96  ILE96       0.0019
    120  CG2        5.6950   28.4920    6.7180 C.3    96  ILE96       0.0020
    121  CD1        3.8010   28.3080    4.2230 C.3    96  ILE96       0.0001
    122  N          5.0110   25.8220    8.6250 N.am   97  ASN97      -0.1974
    123  CA         5.6620   25.5520    9.9010 C.3    97  ASN97       0.1688
    124  C          6.6310   26.6180   10.2700 C.2    97  ASN97       0.2292
    125  O          7.6360   26.8180    9.5700 O.2    97  ASN97      -0.2864
    126  CB         6.3560   24.2120    9.8740 C.3    97  ASN97       0.1181
    127  CG         5.3650   23.0940    9.7820 C.2    97  ASN97       0.2629
    128  OD1        4.6160   22.8470   10.7410 O.2    97  ASN97      -0.2716
    129  ND2        5.2300   22.5390    8.6240 N.am   97  ASN97      -0.0877
    130  N          9.2810   27.9540   13.1000 N.3    99  SER99      -0.1217
    131  CA         9.9940   27.8100   14.3390 C.3    99  SER99       0.1889
    132  C         10.2330   29.1670   15.0190 C.2    99  SER99       0.2288
    133  O         10.0850   30.2330   14.4180 O.2    99  SER99      -0.2866
    134  CB        11.3280   27.1180   14.0870 C.3    99  SER99       0.2089
    135  OG        12.1910   28.0290   13.4850 O.3    99  SER99      -0.2183
    136  N          4.8400   25.4320   17.4370 N.3   131  THR131     -0.1218
    137  CA         4.9570   24.2730   18.2970 C.3   131  THR131      0.1862
    138  C          5.5140   24.6620   19.6610 C.2   131  THR131      0.2287
    139  O          6.2910   25.6160   19.7920 O.2   131  THR131     -0.2866
    140  CB         5.7940   23.1550   17.6420 C.3   131  THR131      0.1770
    141  OG1        5.9400   22.0420   18.5400 O.3   131  THR131     -0.2211
    142  CG2        7.1350   23.6990   17.2800 C.3   131  THR131      0.0375
    143  N          0.6570   23.2220   16.5150 N.3   159  ASP159     -0.1225
    144  CA         1.0350   21.8590   16.1730 C.3   159  ASP159      0.1805
    145  C          1.0790   20.9340   17.3970 C.2   159  ASP159      0.2597
    146  O          1.3320   21.3680   18.5080 O.2   159  ASP159     -0.2718
    147  CB         2.4490   21.8350   15.5780 C.3   159  ASP159      0.1424
    148  CG         2.4780   21.7920   14.0650 C.2   159  ASP159      0.3668
    149  OD1        1.6310   21.1270   13.4310 O.co2 159  ASP159     -0.2456
    150  OD2        3.4270   22.3860   13.5180 O.co2 159  ASP159     -0.2456
    151  N          0.9410   19.6350   17.1480 N.am  160  ASP160     -0.1974
    152  CA         1.3610   18.6230   18.1160 C.3   160  ASP160      0.1709
    153  C          0.6240   18.7660   19.4470 C.2   160  ASP160      0.2293
    154  O          1.1950   18.5200   20.5360 O.2   160  ASP160     -0.2864
    155  CB         2.8650   18.7630   18.4070 C.3   160  ASP160      0.1436
    156  CG         3.7620   18.6580   17.1550 C.2   160  ASP160      0.3671
    157  OD1        3.4940   17.8740   16.2070 O.co2 160  ASP160     -0.2456
    158  OD2        4.7670   19.4290   17.1480 O.co2 160  ASP160     -0.2456
    159  N         -0.6530   13.5240   15.6570 N.3   183  LYS183     -0.1245
    160  CA        -0.9520   12.3030   14.9420 C.3   183  LYS183      0.1561
    161  C         -0.9530   11.0900   15.8550 C.2   183  LYS183      0.2260
    162  O         -1.7250   10.1680   15.6480 O.2   183  LYS183     -0.2867
    163  CB         0.0290   12.0790   13.7910 C.3   183  LYS183      0.0271
    164  CG         1.4540   12.4970   14.0590 C.3   183  LYS183      0.0035
    165  CD         2.2840   12.3210   12.8150 C.3   183  LYS183      0.0206
    166  CE         3.0600   11.0270   12.8340 C.3   183  LYS183      0.1093
    167  NZ         3.8800   10.9250   11.6170 N.3   183  LYS183     -0.1314
    168  N         -4.3710    8.5770   15.6870 N.3   187  GLN187     -0.1245
    169  CA        -4.2990    7.1920   15.2290 C.3   187  GLN187      0.1566
    170  C         -4.6450    6.1810   16.2960 C.2   187  GLN187      0.2260
    171  O         -4.6330    4.9850   16.0080 O.2   187  GLN187     -0.2867
    172  CB        -2.8890    6.9000   14.6960 C.3   187  GLN187      0.0367
    173  CG        -2.6090    7.7490   13.4760 C.3   187  GLN187      0.0905
    174  CD        -1.2090    7.5980   12.9480 C.2   187  GLN187      0.2608
    175  OE1       -0.3700    6.8960   13.5430 O.2   187  GLN187     -0.2717
    176  NE2       -0.9660    8.1830   11.7820 N.am  187  GLN187     -0.0878
    177  N         -4.7090   15.6600   12.3860 N.3   216  GLU216     -0.1231
    178  CA        -3.6500   15.3080   11.4360 C.3   216  GLU216      0.1699
    179  C         -3.2990   13.8570   11.5910 C.2   216  GLU216      0.2592
    180  O         -3.3930   13.2770   12.6930 O.2   216  GLU216     -0.2718
    181  CB        -2.3740   16.1240   11.6670 C.3   216  GLU216      0.0402
    182  CG        -1.5390   15.6180   12.8440 C.3   216  GLU216      0.1161
    183  CD        -0.2500   16.3670   13.0900 C.2   216  GLU216      0.3649
    184  OE1       -0.0330   17.4300   12.4650 O.co2 216  GLU216     -0.2457
    185  OE2        0.5670   15.8830   13.9020 O.co2 216  GLU216     -0.2457
    186  N         -2.8480   13.2790   10.5000 N.am  217  GLY217     -0.1957
    187  CA        -2.2790   11.9440   10.5160 C.3   217  GLY217      0.1869
    188  C         -3.3520   10.8860   10.3390 C.2   217  GLY217      0.2309
    189  O         -3.1660    9.7710   10.7710 O.2   217  GLY217     -0.2863
    190  N         -5.1640    8.0090    8.9070 N.3   219  GLU219     -0.1245
    191  CA        -4.7130    6.9180    8.0440 C.3   219  GLU219      0.1567
    192  C         -5.8160    5.9430    7.6770 C.2   219  GLU219      0.2260
    193  O         -5.6630    5.2090    6.7030 O.2   219  GLU219     -0.2867
    194  CB        -3.5560    6.1660    8.7110 C.3   219  GLU219      0.0388
    195  CG        -2.2500    6.9380    8.6600 C.3   219  GLU219      0.1160
    196  CD        -1.0740    6.2410    9.3100 C.2   219  GLU219      0.3649
    197  OE1       -1.2450    5.2320   10.0430 O.co2 219  GLU219     -0.2457
    198  OE2        0.0590    6.7130    9.1040 O.co2 219  GLU219     -0.2457
    199  N         -6.5730   15.8560    7.8630 N.3   236  GLN236     -0.1230
    200  CA        -5.3290   15.8740    7.1130 C.3   236  GLN236      0.1701
    201  C         -4.6770   14.5130    7.3210 C.2   236  GLN236      0.2632
    202  O         -4.5910   14.0550    8.4390 O.2   236  GLN236     -0.2714
    203  CB        -4.4250   16.9890    7.6590 C.3   236  GLN236      0.0381
    204  CG        -3.1040   17.1830    6.9280 C.3   236  GLN236      0.0905
    205  CD        -2.2030   18.2080    7.5780 C.2   236  GLN236      0.2608
    206  OE1       -2.6420   19.0180    8.4000 O.2   236  GLN236     -0.2717
    207  NE2       -0.9170   18.1690    7.2290 N.am  236  GLN236     -0.0878
    208  N         -4.2670   13.8420    6.2520 N.am  237  GLY237     -0.1718
    209  CA        -3.5860   12.5660    6.4230 C.2   237  GLY237      0.1480
    210  C         -3.4220   11.7160    5.1860 C.2   237  GLY237      0.2820
    211  O         -3.9500   12.0420    4.1370 O.2   237  GLY237     -0.2669
    212  N         -2.6510   10.6360    5.3450 N.am  238  TYR238     -0.1939
    213  CA        -2.3250    9.7110    4.2590 C.3   238  TYR238      0.1642
    214  C         -3.5720    9.0610    3.6470 C.2   238  TYR238      0.2290
    215  O         -3.5400    8.6500    2.4810 O.2   238  TYR238     -0.2864
    216  CB        -1.3720    8.6150    4.7590 C.3   238  TYR238      0.0560
    217  CG         0.0730    9.0130    5.0370 C.ar  238  TYR238     -0.0198
    218  CD1        0.5500   10.3070    4.8120 C.ar  238  TYR238     -0.0009
    219  CD2        0.9770    8.0610    5.4940 C.ar  238  TYR238     -0.0009
    220  CE1        1.8680   10.6410    5.0610 C.ar  238  TYR238      0.0417
    221  CE2        2.3030    8.3810    5.7420 C.ar  238  TYR238      0.0417
    222  CZ         2.7500    9.6590    5.5220 C.ar  238  TYR238      0.1957
    223  OH         4.0550    9.9720    5.7800 O.3   238  TYR238     -0.2866
    224  N          2.0230   14.3270    1.7150 N.3   243  PRO243     -0.2116
    225  CA         2.5400   15.5020    1.0380 C.3   243  PRO243      0.1372
    226  C          3.0720   15.1130   -0.3470 C.2   243  PRO243      0.2244
    227  O          3.6230   14.0120   -0.5330 O.2   243  PRO243     -0.2868
    228  CB         3.6730   15.9960    1.9620 C.3   243  PRO243      0.0268
    229  CG         3.4580   15.2770    3.2650 C.3   243  PRO243      0.0207
    230  CD         2.7920   13.9980    2.9250 C.3   243  PRO243      0.0892
@<TRIPOS>BOND
     1   227   226    2
     2   226   225    1
     3    44    43    2
     4   109   108    2
     5    45    46    1
     6    45    42    1
     7    43    42    1
     8    46    47    1
     9   225   224    1
    10   225   228    1
    11   108   107    1
    12   107   106    1
    13   107   110    1
    14    42    41    1
    15     1     2    1
    16   113   111    1
    17   224   230    1
    18     2     3    1
    19     2     5    1
    20    47    48    1
    21     3     4    2
    22    41    36   am
    23   228   229    1
    24    25    23    1
    25    24    23    1
    26    29    28    2
    27    48    49    2
    28   215   214    2
    29   110   111    1
    30   111   112    1
    31   230   229    1
    32    23    20    1
    33    36    35    1
    34    36    37    2
    35     5     6    1
    36    13    12    2
    37    40    38    1
    38    20    19    1
    39    20    21    1
    40    35    34    1
    41    35    38    1
    42    49    51    1
    43    49    50    1
    44     6     7    1
    45    28    34   am
    46    28    27    1
    47   214   213    1
    48    26    21   am
    49    26    27    1
    50    12    19   am
    51    12    11    1
    52   102   101    2
    53    10    11    1
    54   211   210    2
    55    38    39    1
    56   121   119    1
    57    21    22    2
    58   213   216    1
    59   213   212    1
    60    52    58    1
    61    52    53    1
    62    27    30    1
    63    30    31    1
    64    58    57    1
    65     9     7   am
    66     7     8    2
    67   216   217    1
    68   101   100    1
    69   218   217   ar
    70   218   220   ar
    71    11    14    1
    72    53    56    1
    73    53    54    1
    74   217   219   ar
    75   220   222   ar
    76   210   212   am
    77   210   209    1
    78   119   118    1
    79   219   221   ar
    80   222   221   ar
    81   222   223    1
    82    56    57    1
    83    32    31    1
    84    99   100    1
    85    31    33    1
    86   100   103    1
    87    65    59    1
    88    65    64    1
    89    14    15    1
    90    54    55    2
    91    54    59   am
    92   208   209    2
    93   208   201    1
    94    59    60    1
    95   193   192    2
    96   120   118    1
    97   118   115    1
    98   204   205    1
    99   204   203    1
   100    15    16    1
   101    64    63    1
   102   200   201    1
   103   200   203    1
   104   200   199    1
   105   115   114    1
   106   115   116    1
   107   103   105    1
   108   103   104    1
   109   207   205   am
   110   201   202    2
   111   205   206    2
   112    60    63    1
   113    60    61    1
   114   192   191    1
   115   191   194    1
   116   191   190    1
   117    94    93    2
   118    16    18   ar
   119    16    17   ar
   120   116   122   am
   121   116   117    2
   122   129   127   am
   123   122   123    1
   124   195   194    1
   125   195   196    1
   126    81    79    1
   127    93    92    1
   128    61    66   am
   129    61    62    2
   130   198   196   ar
   131    79    78    1
   132   196   197   ar
   133    92    91    1
   134    92    95    1
   135    66    67    1
   136   125   124    2
   137    98    96    1
   138   127   126    1
   139   127   128    2
   140   126   123    1
   141   123   124    1
   142    74    75    1
   143   188   187    1
   144   188   189    2
   145    96    95    1
   146   186   187    1
   147   186   179   am
   148    75    78    1
   149    75    76    1
   150    68    67    1
   151    68    69    2
   152    78    80    1
   153    67    70    1
   154    95    97    1
   155    70    71    1
   156   178   179    1
   157   178   181    1
   158   178   177    1
   159   179   180    2
   160   167   166    1
   161    71    73   ar
   162    71    72   ar
   163   181   182    1
   164   176   174   am
   165    76    77    2
   166   184   183   ar
   167   165   166    1
   168   165   164    1
   169    82    83    1
   170   182   183    1
   171   174   173    1
   172   174   175    2
   173   183   185   ar
   174   130   131    1
   175   149   148   ar
   176   173   172    1
   177   135   134    1
   178   150   148   ar
   179    90    88   ar
   180   163   164    1
   181   163   160    1
   182    87    88    1
   183    87    86    1
   184    83    86    1
   185    83    84    1
   186   148   147    1
   187   134   131    1
   188   131   132    1
   189   133   132    2
   190    88    89   ar
   191   172   169    1
   192    84    85    2
   193   160   159    1
   194   160   161    1
   195   169   168    1
   196   169   170    1
   197   147   144    1
   198   162   161    2
   199   171   170    2
   200   144   143    1
   201   144   145    1
   202   157   156   ar
   203   151   145   am
   204   151   152    1
   205   158   156   ar
   206   156   155    1
   207   142   140    1
   208   145   146    2
   209   136   137    1
   210   140   137    1
   211   140   141    1
   212   152   155    1
   213   152   153    1
   214   137   138    1
   215   153   154    2
   216   138   139    2
