@<TRIPOS>MOLECULE
tmp/4lj5A00.pdb
 153 145 0 0 0
SMALL
GASTEIGER

@<TRIPOS>ATOM
      1  N         40.3850   24.2900   48.5990 N.3    37  ARG37      -0.1231
      2  CA        41.8130   24.3430   48.9190 C.3    37  ARG37       0.1694
      3  C         42.7420   24.0140   47.7420 C.2    37  ARG37       0.2592
      4  O         43.8930   24.4460   47.7380 O.2    37  ARG37      -0.2718
      5  CB        42.1150   23.4050   50.0890 C.3    37  ARG37       0.0321
      6  CG        41.5820   23.9060   51.4250 C.3    37  ARG37       0.0489
      7  CD        41.8840   22.9310   52.5490 C.3    37  ARG37       0.2205
      8  NE        43.3140   22.6490   52.6540 N.pl3  37  ARG37      -0.0865
      9  CZ        43.8460   21.6900   53.4090 C.cat  37  ARG37       0.5346
     10  NH1       43.0740   20.9020   54.1550 N.pl3  37  ARG37       0.1354
     11  NH2       45.1640   21.5240   53.4170 N.pl3  37  ARG37       0.1354
     12  N         42.2570   23.2560   46.7580 N.am   38  VAL38      -0.1966
     13  CA        43.0820   22.8510   45.6120 C.3    38  VAL38       0.1727
     14  C         42.6770   23.6150   44.3500 C.2    38  VAL38       0.2616
     15  O         41.5820   23.4240   43.8230 O.2    38  VAL38      -0.2715
     16  CB        42.9870   21.3320   45.3510 C.3    38  VAL38       0.0290
     17  CG1       43.9140   20.9180   44.2030 C.3    38  VAL38       0.0023
     18  CG2       43.3350   20.5500   46.6140 C.3    38  VAL38       0.0023
     19  N         43.5760   24.4710   43.8730 N.am   39  VAL39      -0.1977
     20  CA        43.3270   25.3180   42.7080 C.3    39  VAL39       0.1596
     21  C         43.7030   24.5790   41.4270 C.2    39  VAL39       0.2287
     22  O         44.8080   24.0490   41.3100 O.2    39  VAL39      -0.2864
     23  CB        44.1390   26.6280   42.7950 C.3    39  VAL39       0.0276
     24  CG1       43.8900   27.5090   41.5760 C.3    39  VAL39       0.0022
     25  CG2       43.7980   27.3760   44.0760 C.3    39  VAL39       0.0022
     26  N         43.8960   21.6760   38.5770 N.3    41  GLN41      -0.1245
     27  CA        44.0550   20.2190   38.5980 C.3    41  GLN41       0.1566
     28  C         42.6970   19.5030   38.6000 C.2    41  GLN41       0.2260
     29  O         42.4730   18.5700   39.3800 O.2    41  GLN41      -0.2867
     30  CB        44.9080   19.7760   39.8000 C.3    41  GLN41       0.0367
     31  CG        46.2260   20.5370   39.9920 C.3    41  GLN41       0.0905
     32  CD        47.2440   20.3300   38.8700 C.2    41  GLN41       0.2608
     33  OE1       47.0100   19.5930   37.9130 O.2    41  GLN41      -0.2717
     34  NE2       48.3910   20.9900   38.9970 N.am   41  GLN41      -0.0878
     35  N         55.0580   17.5830   37.7330 N.3    74  PRO74      -0.2102
     36  CA        56.1580   18.2870   38.3880 C.3    74  PRO74       0.1504
     37  C         55.9670   18.5580   39.8880 C.2    74  PRO74       0.2576
     38  O         54.9300   18.2280   40.4640 O.2    74  PRO74      -0.2718
     39  CB        56.2290   19.6070   37.6120 C.3    74  PRO74       0.0282
     40  CG        54.8390   19.8500   37.1560 C.3    74  PRO74       0.0208
     41  CD        54.2120   18.4980   36.9410 C.3    74  PRO74       0.0893
     42  N         56.9880   19.1580   40.4950 N.am   75  THR75      -0.1939
     43  CA        56.9920   19.4980   41.9160 C.3    75  THR75       0.2028
     44  C         56.2070   20.7850   42.1870 C.2    75  THR75       0.2643
     45  O         56.2220   21.7120   41.3760 O.2    75  THR75      -0.2714
     46  CB        58.4450   19.7030   42.4150 C.3    75  THR75       0.1808
     47  OG1       59.2210   18.5350   42.1230 O.3    75  THR75      -0.2208
     48  CG2       58.4890   19.9750   43.9160 C.3    75  THR75       0.0379
     49  N         55.5280   20.8250   43.3320 N.am   76  GLY76      -0.1939
     50  CA        54.8990   22.0460   43.8350 C.3    76  GLY76       0.2014
     51  C         53.6860   22.5380   43.0670 C.2    76  GLY76       0.2639
     52  O         53.4730   23.7470   42.9650 O.2    76  GLY76      -0.2714
     53  N         52.8850   21.6120   42.5400 N.am   77  VAL77      -0.1963
     54  CA        51.6900   21.9740   41.7600 C.3    77  VAL77       0.1727
     55  C         50.3670   21.4230   42.3180 C.2    77  VAL77       0.2617
     56  O         49.3160   21.6190   41.7020 O.2    77  VAL77      -0.2715
     57  CB        51.8350   21.5890   40.2580 C.3    77  VAL77       0.0290
     58  CG1       52.9720   22.3790   39.6180 C.3    77  VAL77       0.0023
     59  CG2       52.0500   20.0910   40.0810 C.3    77  VAL77       0.0023
     60  N         50.4120   20.7490   43.4710 N.am   78  GLY78      -0.1940
     61  CA        49.1940   20.3870   44.2070 C.3    78  GLY78       0.2014
     62  C         48.9990   18.9410   44.6490 C.2    78  GLY78       0.2639
     63  O         47.9480   18.6140   45.1990 O.2    78  GLY78      -0.2714
     64  N         49.9890   18.0770   44.4300 N.am   79  LYS79      -0.1963
     65  CA        49.8500   16.6490   44.7610 C.3    79  LYS79       0.1728
     66  C         49.6020   16.4000   46.2560 C.2    79  LYS79       0.2617
     67  O         48.6690   15.6830   46.6230 O.2    79  LYS79      -0.2715
     68  CB        51.0830   15.8620   44.3030 C.3    79  LYS79       0.0311
     69  CG        51.2190   15.7470   42.7930 C.3    79  LYS79       0.0038
     70  CD        52.5470   15.1240   42.4120 C.3    79  LYS79       0.0206
     71  CE        52.6740   14.9330   40.9120 C.3    79  LYS79       0.1093
     72  NZ        54.0090   14.3910   40.5320 N.3    79  LYS79      -0.1314
     73  N         50.4420   16.9930   47.1000 N.am   80  THR80      -0.1937
     74  CA        50.3280   16.8650   48.5560 C.3    80  THR80       0.2028
     75  C         49.1300   17.6410   49.1140 C.2    80  THR80       0.2642
     76  O         48.4710   17.1760   50.0420 O.2    80  THR80      -0.2714
     77  CB        51.6170   17.3520   49.2460 C.3    80  THR80       0.1808
     78  OG1       52.7390   16.6270   48.7270 O.3    80  THR80      -0.2208
     79  CG2       51.5550   17.1700   50.7680 C.3    80  THR80       0.0379
     80  N         48.8540   18.8210   48.5590 N.am   81  GLU81      -0.1976
     81  CA        47.6800   19.5990   48.9700 C.3    81  GLU81       0.1602
     82  C         46.3770   18.8290   48.7740 C.2    81  GLU81       0.2287
     83  O         45.4730   18.9230   49.6010 O.2    81  GLU81      -0.2864
     84  CB        47.5960   20.9310   48.2170 C.3    81  GLU81       0.0415
     85  CG        48.3890   22.0560   48.8420 C.3    81  GLU81       0.1163
     86  CD        47.8820   22.4630   50.2210 C.2    81  GLU81       0.3649
     87  OE1       48.7120   22.8530   51.0680 O.co2  81  GLU81      -0.2457
     88  OE2       46.6580   22.4010   50.4610 O.co2  81  GLU81      -0.2457
     89  N         55.6280    8.9210   48.6600 N.3   138  ASP138     -0.1239
     90  CA        56.3280    9.8890   47.8090 C.3   138  ASP138      0.1674
     91  C         57.5820    9.2930   47.1710 C.2   138  ASP138      0.2266
     92  O         58.3180    8.5530   47.8210 O.2   138  ASP138     -0.2867
     93  CB        56.7130   11.1360   48.6120 C.3   138  ASP138      0.1410
     94  CG        55.5460   12.0780   48.8320 C.2   138  ASP138      0.3668
     95  OD1       55.3520   12.5150   49.9840 O.co2 138  ASP138     -0.2456
     96  OD2       54.8240   12.3920   47.8590 O.co2 138  ASP138     -0.2456
     97  N         50.9380   25.2040   36.6190 N.3   228  LEU228     -0.1245
     98  CA        49.8550   26.1320   36.9330 C.3   228  LEU228      0.1561
     99  C         49.8900   27.3610   36.0260 C.2   228  LEU228      0.2260
    100  O         50.9650   27.8730   35.7090 O.2   228  LEU228     -0.2867
    101  CB        49.9540   26.5720   38.3970 C.3   228  LEU228      0.0270
    102  CG        49.9790   25.4550   39.4470 C.3   228  LEU228      0.0019
    103  CD1       50.3600   26.0110   40.8030 C.3   228  LEU228      0.0001
    104  CD2       48.6380   24.7440   39.5210 C.3   228  LEU228      0.0001
    105  N         46.4270   31.0210   44.4420 N.3   236  ILE236     -0.1245
    106  CA        47.2650   30.4280   45.5000 C.3   236  ILE236      0.1561
    107  C         47.7120   31.5280   46.4650 C.2   236  ILE236      0.2260
    108  O         47.6060   31.3800   47.6830 O.2   236  ILE236     -0.2867
    109  CB        48.5590   29.7340   44.9590 C.3   236  ILE236      0.0252
    110  CG1       48.2830   28.8190   43.7580 C.3   236  ILE236      0.0019
    111  CG2       49.2500   28.9410   46.0760 C.3   236  ILE236      0.0019
    112  CD1       47.3670   27.6750   44.0340 C.3   236  ILE236      0.0001
    113  N         45.0110   32.5050   48.7640 N.3   239  ILE239     -0.1231
    114  CA        44.8360   31.4760   49.7960 C.3   239  ILE239      0.1692
    115  C         45.9400   31.5500   50.8610 C.2   239  ILE239      0.2591
    116  O         45.6600   31.4180   52.0530 O.2   239  ILE239     -0.2718
    117  CB        44.7780   30.0480   49.1810 C.3   239  ILE239      0.0266
    118  CG1       43.4730   29.8660   48.4000 C.3   239  ILE239      0.0019
    119  CG2       44.8800   28.9700   50.2670 C.3   239  ILE239      0.0020
    120  CD1       43.4730   28.6820   47.4520 C.3   239  ILE239      0.0001
    121  N         47.1830   31.7650   50.4270 N.am  240  GLN240     -0.1979
    122  CA        48.3310   31.8290   51.3410 C.3   240  GLN240      0.1601
    123  C         48.3280   33.0460   52.2680 C.2   240  GLN240      0.2287
    124  O         48.9760   33.0210   53.3140 O.2   240  GLN240     -0.2864
    125  CB        49.6530   31.7970   50.5580 C.3   240  GLN240      0.0394
    126  CG        49.9490   30.4590   49.8990 C.3   240  GLN240      0.0908
    127  CD        50.1710   29.3490   50.9050 C.2   240  GLN240      0.2608
    128  OE1       51.0890   29.4130   51.7210 O.2   240  GLN240     -0.2717
    129  NE2       49.3290   28.3210   50.8520 N.am  240  GLN240     -0.0878
    130  N         55.2140   26.1120   43.2710 N.3   276  ALA276     -0.1231
    131  CA        54.8150   27.1930   44.1810 C.3   276  ALA276      0.1694
    132  C         55.3800   27.0370   45.6030 C.2   276  ALA276      0.2591
    133  O         54.9130   27.7000   46.5310 O.2   276  ALA276     -0.2718
    134  CB        53.2940   27.2940   44.2270 C.3   276  ALA276      0.0304
    135  N         56.3850   26.1740   45.7660 N.am  277  ARG277     -0.1980
    136  CA        57.0600   25.9790   47.0590 C.3   277  ARG277      0.1597
    137  C         57.7400   27.2350   47.6250 C.2   277  ARG277      0.2287
    138  O         57.6980   27.4590   48.8360 O.2   277  ARG277     -0.2864
    139  CB        58.1090   24.8630   46.9640 C.3   277  ARG277      0.0334
    140  CG        57.5500   23.4440   47.0050 C.3   277  ARG277      0.0492
    141  CD        58.6560   22.4510   47.3440 C.3   277  ARG277      0.2205
    142  NE        59.2200   22.7220   48.6690 N.pl3 277  ARG277     -0.0865
    143  CZ        60.4500   22.4000   49.0710 C.cat 277  ARG277      0.5346
    144  NH1       61.3020   21.7730   48.2620 N.pl3 277  ARG277      0.1354
    145  NH2       60.8330   22.7140   50.3040 N.pl3 277  ARG277      0.1354
    146  N         56.8190   30.2600   47.5150 N.3   279  LEU279     -0.1245
    147  CA        55.8700   31.3400   47.8010 C.3   279  LEU279      0.1561
    148  C         55.8150   31.7640   49.2730 C.2   279  LEU279      0.2260
    149  O         55.7670   32.9570   49.5640 O.2   279  LEU279     -0.2867
    150  CB        54.4660   30.9560   47.3170 C.3   279  LEU279      0.0270
    151  CG        53.3520   32.0020   47.4670 C.3   279  LEU279      0.0019
    152  CD1       53.7300   33.3350   46.8280 C.3   279  LEU279      0.0001
    153  CD2       52.0530   31.4790   46.8690 C.3   279  LEU279      0.0001
@<TRIPOS>BOND
     1   100    99    2
     2    99    98    1
     3    97    98    1
     4    98   101    1
     5    41    40    1
     6    41    35    1
     7    40    39    1
     8    39    36    1
     9    35    36    1
    10    33    32    2
    11    36    37    1
    12   101   102    1
    13    26    27    1
    14    27    28    1
    15    27    30    1
    16    28    29    2
    17    32    34   am
    18    32    31    1
    19   102   104    1
    20   102   103    1
    21    58    57    1
    22    30    31    1
    23    37    38    2
    24    37    42   am
    25    59    57    1
    26    57    54    1
    27    42    43    1
    28    72    71    1
    29    71    70    1
    30    22    21    2
    31    45    44    2
    32    21    20    1
    33    24    23    1
    34    56    55    2
    35    54    55    1
    36    54    53    1
    37    43    44    1
    38    43    46    1
    39    47    46    1
    40    44    49   am
    41    55    60   am
    42    70    69    1
    43    46    48    1
    44    53    51   am
    45    20    23    1
    46    20    19    1
    47    69    68    1
    48    23    25    1
    49    52    51    2
    50    51    50    1
    51   130   131    1
    52    49    50    1
    53    60    61    1
    54   110   112    1
    55   110   109    1
    56    15    14    2
    57    19    14   am
    58   131   134    1
    59   131   132    1
    60    17    16    1
    61    61    62    1
    62    68    65    1
    63    14    13    1
    64    64    62   am
    65    64    65    1
    66   105   106    1
    67    62    63    2
    68    65    66    1
    69   109   106    1
    70   109   111    1
    71    16    13    1
    72    16    18    1
    73   106   107    1
    74   132   135   am
    75   132   133    2
    76    13    12    1
    77   135   136    1
    78    66    67    2
    79    66    73   am
    80   107   108    2
    81    12     3   am
    82   152   151    1
    83   153   151    1
    84   139   140    1
    85   139   136    1
    86   140   141    1
    87   136   137    1
    88    73    74    1
    89    91    90    1
    90    91    92    2
    91   150   151    1
    92   150   147    1
    93   141   142    1
    94   120   118    1
    95   146   147    1
    96   137   138    2
    97     4     3    2
    98     3     2    1
    99   147   148    1
   100    90    93    1
   101    90    89    1
   102    96    94   ar
   103    84    85    1
   104    84    81    1
   105   144   143    1
   106   118   117    1
   107    74    75    1
   108    74    77    1
   109    80    81    1
   110    80    75   am
   111     1     2    1
   112    93    94    1
   113   142   143    2
   114    78    77    1
   115   113   114    1
   116    82    81    1
   117    82    83    2
   118    94    95   ar
   119    85    86    1
   120     2     5    1
   121   143   145    1
   122    75    76    2
   123   117   114    1
   124   117   119    1
   125    77    79    1
   126   148   149    2
   127   114   115    1
   128   126   125    1
   129   126   127    1
   130     5     6    1
   131    86    88   ar
   132    86    87   ar
   133   121   115   am
   134   121   122    1
   135   125   122    1
   136   129   127   am
   137   115   116    2
   138   127   128    2
   139   122   123    1
   140     6     7    1
   141   123   124    2
   142     7     8    1
   143     8     9    2
   144     9    11    1
   145     9    10    1
