@<TRIPOS>MOLECULE
tmp/4lj6A00.pdb
 181 170 0 0 0
SMALL
GASTEIGER

@<TRIPOS>ATOM
      1  N         -3.6400   41.6090   -9.0930 N.3    39  ARG39      -0.1231
      2  CA        -4.3730   40.3790   -9.3660 C.3    39  ARG39       0.1694
      3  C         -4.5860   39.4960   -8.1440 C.2    39  ARG39       0.2592
      4  O         -5.6120   38.8350   -8.0550 O.2    39  ARG39      -0.2718
      5  CB        -3.6580   39.5790  -10.4450 C.3    39  ARG39       0.0321
      6  CG        -3.7720   40.1940  -11.8170 C.3    39  ARG39       0.0489
      7  CD        -3.0700   39.3410  -12.8510 C.3    39  ARG39       0.2205
      8  NE        -3.6770   38.0150  -12.9600 N.pl3  39  ARG39      -0.0865
      9  CZ        -3.1790   37.0110  -13.6760 C.cat  39  ARG39       0.5346
     10  NH1       -2.0510   37.1610  -14.3650 N.pl3  39  ARG39       0.1354
     11  NH2       -3.8150   35.8460  -13.7050 N.pl3  39  ARG39       0.1354
     12  N         -3.6340   39.4750   -7.2140 N.am   40  VAL40      -0.1966
     13  CA        -3.7390   38.6310   -6.0260 C.3    40  VAL40       0.1727
     14  C         -4.1650   39.4600   -4.8240 C.2    40  VAL40       0.2616
     15  O         -3.4550   40.3710   -4.4170 O.2    40  VAL40      -0.2715
     16  CB        -2.4070   37.9210   -5.7100 C.3    40  VAL40       0.0290
     17  CG1       -2.5670   36.9600   -4.5240 C.3    40  VAL40       0.0023
     18  CG2       -1.9060   37.1740   -6.9320 C.3    40  VAL40       0.0023
     19  N         -5.3300   39.1340   -4.2690 N.am   41  VAL41      -0.1977
     20  CA        -5.8880   39.8220   -3.1180 C.3    41  VAL41       0.1596
     21  C         -5.4130   39.1230   -1.8480 C.2    41  VAL41       0.2287
     22  O         -5.4970   37.9040   -1.7320 O.2    41  VAL41      -0.2864
     23  CB        -7.4340   39.8060   -3.1600 C.3    41  VAL41       0.0276
     24  CG1       -8.0230   40.4240   -1.9020 C.3    41  VAL41       0.0022
     25  CG2       -7.9320   40.5230   -4.4080 C.3    41  VAL41       0.0022
     26  N         -2.9900   37.4960    0.9680 N.3    43  GLN43      -0.1245
     27  CA        -1.8040   36.6420    0.9600 C.3    43  GLN43       0.1566
     28  C         -0.5100   37.4630    0.9110 C.2    43  GLN43       0.2260
     29  O          0.4080   37.1410    0.1510 O.2    43  GLN43      -0.2867
     30  CB        -1.8490   35.6340   -0.1980 C.3    43  GLN43       0.0367
     31  CG        -3.1700   34.8850   -0.3740 C.3    43  GLN43       0.0905
     32  CD        -3.5720   34.0120    0.8120 C.2    43  GLN43       0.2608
     33  OE1       -2.8140   33.8310    1.7710 O.2    43  GLN43      -0.2717
     34  NE2       -4.7810   33.4600    0.7440 N.am   43  GLN43      -0.0878
     35  N         -5.1370   26.0790    2.3770 N.3    76  PRO76      -0.2102
     36  CA        -6.2870   25.5400    1.6640 C.3    76  PRO76       0.1504
     37  C         -6.3790   25.8580    0.1680 C.2    76  PRO76       0.2576
     38  O         -5.5950   26.6330   -0.3710 O.2    76  PRO76      -0.2718
     39  CB        -7.4780   26.1450    2.4140 C.3    76  PRO76       0.0282
     40  CG        -6.9510   27.3760    3.0590 C.3    76  PRO76       0.0208
     41  CD        -5.5030   27.1950    3.2740 C.3    76  PRO76       0.0893
     42  N         -7.3630   25.2300   -0.4580 N.am   77  THR77      -0.1939
     43  CA        -7.6520   25.3510   -1.8780 C.3    77  THR77       0.2028
     44  C         -8.3750   26.6460   -2.1970 C.2    77  THR77       0.2643
     45  O         -9.2060   27.1090   -1.4180 O.2    77  THR77      -0.2714
     46  CB        -8.5870   24.1890   -2.3090 C.3    77  THR77       0.1808
     47  OG1       -7.9180   22.9450   -2.0970 O.3    77  THR77      -0.2208
     48  CG2       -9.0090   24.2970   -3.7670 C.3    77  THR77       0.0379
     49  N         -8.0570   27.2220   -3.3480 N.am   78  GLY78      -0.1939
     50  CA        -8.8720   28.2790   -3.9280 C.3    78  GLY78       0.2014
     51  C         -8.6910   29.6380   -3.2970 C.2    78  GLY78       0.2639
     52  O         -9.6000   30.4540   -3.3360 O.2    78  GLY78      -0.2714
     53  N         -7.5240   29.8910   -2.7150 N.am   79  VAL79      -0.1963
     54  CA        -7.2850   31.1610   -2.0440 C.3    79  VAL79       0.1727
     55  C         -6.0780   31.9350   -2.5850 C.2    79  VAL79       0.2617
     56  O         -5.6420   32.8920   -1.9610 O.2    79  VAL79      -0.2715
     57  CB        -7.1870   30.9670   -0.5060 C.3    79  VAL79       0.0290
     58  CG1       -8.4790   30.3780    0.0260 C.3    79  VAL79       0.0023
     59  CG2       -6.0170   30.0890   -0.1300 C.3    79  VAL79       0.0023
     60  N         -5.5420   31.5270   -3.7380 N.am   80  GLY80      -0.1940
     61  CA        -4.5880   32.3550   -4.4690 C.3    80  GLY80       0.2014
     62  C         -3.2530   31.7630   -4.8880 C.2    80  GLY80       0.2639
     63  O         -2.4300   32.4870   -5.4540 O.2    80  GLY80      -0.2714
     64  N         -3.0140   30.4770   -4.6260 N.am   81  LYS81      -0.1963
     65  CA        -1.7100   29.8790   -4.9270 C.3    81  LYS81       0.1728
     66  C         -1.4200   29.9080   -6.4210 C.2    81  LYS81       0.2617
     67  O         -0.3940   30.4330   -6.8360 O.2    81  LYS81      -0.2715
     68  CB        -1.6260   28.4360   -4.4310 C.3    81  LYS81       0.0311
     69  CG        -1.6710   28.2720   -2.9290 C.3    81  LYS81       0.0038
     70  CD        -1.6370   26.8010   -2.5560 C.3    81  LYS81       0.0206
     71  CE        -2.0390   26.5670   -1.1290 C.3    81  LYS81       0.1093
     72  NZ        -1.7990   25.1530   -0.7130 N.3    81  LYS81      -0.1314
     73  N         -2.3250   29.3500   -7.2180 N.am   82  THR82      -0.1937
     74  CA        -2.1570   29.3490   -8.6830 C.3    82  THR82       0.2028
     75  C         -2.2760   30.7600   -9.2590 C.2    82  THR82       0.2642
     76  O         -1.5490   31.1120  -10.1820 O.2    82  THR82      -0.2714
     77  CB        -3.1450   28.3890   -9.3680 C.3    82  THR82       0.1808
     78  OG1       -3.0000   27.0780   -8.8120 O.3    82  THR82      -0.2208
     79  CG2       -2.8970   28.3180  -10.8660 C.3    82  THR82       0.0379
     80  N         -3.1800   31.5700   -8.7130 N.am   83  GLU83      -0.1976
     81  CA        -3.3270   32.9560   -9.1690 C.3    83  GLU83       0.1602
     82  C         -2.0300   33.7370   -8.9770 C.2    83  GLU83       0.2287
     83  O         -1.6680   34.5510   -9.8280 O.2    83  GLU83      -0.2864
     84  CB        -4.4810   33.6630   -8.4460 C.3    83  GLU83       0.0415
     85  CG        -4.9530   34.9710   -9.1070 C.3    83  GLU83       0.1163
     86  CD        -5.6390   34.7840  -10.4550 C.2    83  GLU83       0.3649
     87  OE1       -5.9510   33.6380  -10.8510 O.co2  83  GLU83      -0.2457
     88  OE2       -5.8770   35.8040  -11.1310 O.co2  83  GLU83      -0.2457
     89  N          0.5230   32.3630  -11.6540 N.3    86  LYS86      -0.1245
     90  CA         0.1750   32.9360  -12.9580 C.3    86  LYS86       0.1561
     91  C          0.5430   34.4090  -13.0410 C.2    86  LYS86       0.2260
     92  O          1.0770   34.8580  -14.0510 O.2    86  LYS86      -0.2867
     93  CB        -1.3220   32.7990  -13.2520 C.3    86  LYS86       0.0271
     94  CG        -1.8200   31.3940  -13.5850 C.3    86  LYS86       0.0035
     95  CD        -3.3580   31.3570  -13.5560 C.3    86  LYS86       0.0206
     96  CE        -3.9220   30.0220  -14.0080 C.3    86  LYS86       0.1093
     97  NZ        -5.3980   29.9000  -13.7390 N.3    86  LYS86      -0.1314
     98  N          2.9610   24.2660  -15.5250 N.3   101  ARG101     -0.1245
     99  CA         2.2920   23.5670  -14.4410 C.3   101  ARG101      0.1563
    100  C          2.4700   22.0590  -14.5700 C.2   101  ARG101      0.2260
    101  O          2.1590   21.4780  -15.6090 O.2   101  ARG101     -0.2867
    102  CB         0.8080   23.9090  -14.4170 C.3   101  ARG101      0.0307
    103  CG         0.1210   23.4140  -13.1670 C.3   101  ARG101      0.0489
    104  CD        -1.3050   23.8920  -13.0860 C.3   101  ARG101      0.2205
    105  NE        -2.0410   23.1320  -12.0830 N.pl3 101  ARG101     -0.0865
    106  CZ        -2.5160   21.8990  -12.2630 C.cat 101  ARG101      0.5346
    107  NH1       -2.3570   21.2560  -13.4160 N.pl3 101  ARG101      0.1354
    108  NH2       -3.1670   21.3030  -11.2710 N.pl3 101  ARG101      0.1354
    109  N          2.0730   21.0270   -8.5020 N.3   141  ASP141     -0.1239
    110  CA         0.8880   20.9670   -7.6430 C.3   141  ASP141      0.1674
    111  C          0.7620   19.6200   -6.9440 C.2   141  ASP141      0.2266
    112  O          0.9240   18.5840   -7.5760 O.2   141  ASP141     -0.2867
    113  CB        -0.3860   21.2890   -8.4360 C.3   141  ASP141      0.1410
    114  CG        -0.6520   22.7870   -8.5440 C.2   141  ASP141      0.3668
    115  OD1       -0.3240   23.5390   -7.5980 O.co2 141  ASP141     -0.2456
    116  OD2       -1.1930   23.2210   -9.5790 O.co2 141  ASP141     -0.2456
    117  N         -2.0810   21.0080   -0.2410 N.3   183  ASN183     -0.1240
    118  CA        -3.1240   21.4020    0.7180 C.3   183  ASN183      0.1653
    119  C         -3.0740   20.5610    1.9750 C.2   183  ASN183      0.2266
    120  O         -3.9510   20.6780    2.8240 O.2   183  ASN183     -0.2867
    121  CB        -4.5080   21.3000    0.0920 C.3   183  ASN183      0.1155
    122  CG        -4.6200   22.0980   -1.1680 C.2   183  ASN183      0.2627
    123  OD1       -4.7320   21.5400   -2.2610 O.2   183  ASN183     -0.2716
    124  ND2       -4.5820   23.4150   -1.0350 N.am  183  ASN183     -0.0877
    125  N         -9.6780   33.4030    3.0590 N.3   231  LEU231     -0.1245
    126  CA        -9.9380   34.8000    2.7220 C.3   231  LEU231      0.1561
    127  C        -10.9670   35.4490    3.6460 C.2   231  LEU231      0.2260
    128  O        -11.9230   34.8060    4.0670 O.2   231  LEU231     -0.2867
    129  CB       -10.4150   34.8890    1.2770 C.3   231  LEU231      0.0270
    130  CG        -9.4710   34.2970    0.2280 C.3   231  LEU231      0.0019
    131  CD1      -10.1700   34.2450   -1.1170 C.3   231  LEU231      0.0001
    132  CD2       -8.1770   35.0950    0.1440 C.3   231  LEU231      0.0001
    133  N        -12.1740   40.2670   -4.7240 N.3   239  ILE239     -0.1245
    134  CA       -12.0590   39.2480   -5.7540 C.3   239  ILE239      0.1561
    135  C        -13.2970   39.2740   -6.6530 C.2   239  ILE239      0.2260
    136  O        -13.1640   39.1480   -7.8590 O.2   239  ILE239     -0.2867
    137  CB       -11.8340   37.8420   -5.1440 C.3   239  ILE239      0.0252
    138  CG1      -10.4580   37.7870   -4.4690 C.3   239  ILE239      0.0019
    139  CG2      -11.9450   36.7660   -6.2130 C.3   239  ILE239      0.0019
    140  CD1      -10.3040   36.6650   -3.4750 C.3   239  ILE239      0.0001
    141  N        -12.7120   42.0650   -9.0850 N.3   242  ILE242     -0.1231
    142  CA       -11.7480   41.6570  -10.1130 C.3   242  ILE242      0.1692
    143  C        -12.4160   40.7330  -11.1270 C.2   242  ILE242      0.2591
    144  O        -12.2100   40.8840  -12.3240 O.2   242  ILE242     -0.2718
    145  CB       -10.4910   40.9710   -9.5150 C.3   242  ILE242      0.0266
    146  CG1       -9.6680   41.9750   -8.7120 C.3   242  ILE242      0.0019
    147  CG2       -9.6170   40.3660  -10.6270 C.3   242  ILE242      0.0020
    148  CD1       -8.6280   41.3480   -7.8030 C.3   242  ILE242      0.0001
    149  N        -13.2210   39.7850  -10.6500 N.am  243  GLN243     -0.1979
    150  CA       -13.8840   38.8280  -11.5300 C.3   243  GLN243      0.1601
    151  C        -15.0410   39.4340  -12.3300 C.2   243  GLN243      0.2287
    152  O        -15.5190   38.8090  -13.2640 O.2   243  GLN243     -0.2864
    153  CB       -14.3620   37.6020  -10.7440 C.3   243  GLN243      0.0394
    154  CG       -13.2360   36.7220  -10.1990 C.3   243  GLN243      0.0908
    155  CD       -12.3070   36.1870  -11.2770 C.2   243  GLN243      0.2608
    156  OE1      -12.7530   35.6950  -12.3160 O.2   243  GLN243     -0.2717
    157  NE2      -11.0110   36.2810  -11.0350 N.am  243  GLN243     -0.0878
    158  N        -12.3740   30.2510   -3.4350 N.3   279  ALA279     -0.1231
    159  CA       -13.1080   31.0380   -4.4280 C.3   279  ALA279      0.1694
    160  C        -13.2360   30.3610   -5.7960 C.2   279  ALA279      0.2591
    161  O        -13.6570   31.0000   -6.7550 O.2   279  ALA279     -0.2718
    162  CB       -12.4460   32.3900   -4.5890 C.3   279  ALA279      0.0304
    163  N        -12.8830   29.0810   -5.8950 N.am  280  ARG280     -0.1980
    164  CA       -13.1120   28.3130   -7.1260 C.3   280  ARG280      0.1597
    165  C        -14.5570   28.3460   -7.6540 C.2   280  ARG280      0.2287
    166  O        -14.7480   28.3910   -8.8670 O.2   280  ARG280     -0.2864
    167  CB       -12.6860   26.8540   -6.9500 C.3   280  ARG280      0.0334
    168  CG       -11.1760   26.6270   -6.8930 C.3   280  ARG280      0.0492
    169  CD       -10.8420   25.1690   -7.2040 C.3   280  ARG280      0.2205
    170  NE       -11.3170   24.8350   -8.5430 N.pl3 280  ARG280     -0.0865
    171  CZ       -11.7560   23.6460   -8.9480 C.cat 280  ARG280      0.5346
    172  NH1      -11.8060   22.5940   -8.1330 N.pl3 280  ARG280      0.1354
    173  NH2      -12.1570   23.5110  -10.1970 N.pl3 280  ARG280      0.1354
    174  N        -16.6490   30.8370   -7.5910 N.3   282  LEU282     -0.1245
    175  CA       -17.1130   32.1810   -7.9280 C.3   282  LEU282      0.1561
    176  C        -17.3840   32.4410   -9.4160 C.2   282  LEU282      0.2260
    177  O        -18.3970   33.0450   -9.7560 O.2   282  LEU282     -0.2867
    178  CB       -16.1350   33.2240   -7.3870 C.3   282  LEU282      0.0270
    179  CG       -16.4470   34.6960   -7.6690 C.3   282  LEU282      0.0019
    180  CD1      -17.8050   35.1190   -7.1200 C.3   282  LEU282      0.0001
    181  CD2      -15.3490   35.5380   -7.0690 C.3   282  LEU282      0.0001
@<TRIPOS>BOND
     1   101   100    2
     2    98    99    1
     3   100    99    1
     4    99   102    1
     5   102   103    1
     6    10     9    1
     7    92    91    2
     8    96    97    1
     9    96    95    1
    10    11     9    1
    11     9     8    2
    12    94    95    1
    13    94    93    1
    14   107   106    1
    15   152   151    2
    16    93    90    1
    17   103   104    1
    18   104   105    1
    19    91    90    1
    20     8     7    1
    21    90    89    1
    22     7     6    1
    23   151   150    1
    24   144   143    2
    25   156   155    2
    26   106   105    2
    27   106   108    1
    28     6     5    1
    29   150   153    1
    30   150   149    1
    31   155   157   am
    32   155   154    1
    33    88    86   ar
    34   143   149   am
    35   143   142    1
    36    79    77    1
    37    87    86   ar
    38   153   154    1
    39   147   145    1
    40    86    85    1
    41     5     2    1
    42   173   171    1
    43    76    75    2
    44   142   145    1
    45   142   141    1
    46    83    82    2
    47   177   176    2
    48   116   114   ar
    49   145   146    1
    50   176   175    1
    51    77    78    1
    52    77    74    1
    53     2     1    1
    54     2     3    1
    55    75    80   am
    56    75    74    1
    57    81    82    1
    58    81    80    1
    59    81    84    1
    60    85    84    1
    61   171   170    2
    62   171   172    1
    63   166   165    2
    64   146   148    1
    65    74    73    1
    66   114   113    1
    67   114   115   ar
    68   170   169    1
    69   109   110    1
    70   113   110    1
    71     3     4    2
    72     3    12   am
    73   175   174    1
    74   175   178    1
    75   136   135    2
    76   179   178    1
    77   179   180    1
    78   179   181    1
    79   165   164    1
    80   110   111    1
    81   112   111    2
    82    73    66   am
    83    12    13    1
    84   169   168    1
    85   164   167    1
    86   164   163    1
    87   167   168    1
    88    18    16    1
    89    67    66    2
    90   161   160    2
    91   135   134    1
    92    66    65    1
    93   139   137    1
    94    13    16    1
    95    13    14    1
    96   163   160   am
    97   160   159    1
    98   134   137    1
    99   134   133    1
   100    16    17    1
   101    63    62    2
   102   137   138    1
   103    65    64    1
   104    65    68    1
   105    62    64   am
   106    62    61    1
   107    14    15    2
   108    14    19   am
   109   162   159    1
   110    61    60    1
   111   138   140    1
   112    68    69    1
   113   159   158    1
   114    25    23    1
   115    19    20    1
   116    50    49    1
   117    50    51    1
   118    48    46    1
   119    60    55   am
   120    49    44   am
   121    52    51    2
   122    51    53   am
   123    23    20    1
   124    23    24    1
   125    20    21    1
   126    69    70    1
   127    53    54    1
   128    55    54    1
   129    55    56    2
   130    70    71    1
   131    46    47    1
   132    46    43    1
   133   123   122    2
   134    44    43    1
   135    44    45    2
   136    54    57    1
   137    43    42    1
   138    21    22    2
   139   122   124   am
   140   122   121    1
   141    71    72    1
   142   131   130    1
   143    57    59    1
   144    57    58    1
   145    42    37   am
   146    31    30    1
   147    31    32    1
   148    38    37    2
   149   117   118    1
   150    30    27    1
   151   121   118    1
   152   132   130    1
   153    29    28    2
   154    37    36    1
   155   130   129    1
   156   118   119    1
   157    34    32   am
   158    32    33    2
   159    28    27    1
   160    27    26    1
   161   129   126    1
   162    36    35    1
   163    36    39    1
   164   119   120    2
   165    35    41    1
   166    39    40    1
   167   126   125    1
   168   126   127    1
   169    40    41    1
   170   127   128    2
