@<TRIPOS>MOLECULE
tmp/4lj7A00.pdb
 184 174 0 0 0
SMALL
GASTEIGER

@<TRIPOS>ATOM
      1  N        -14.0690  -26.8970  -20.3500 N.3    15  ARG15      -0.1231
      2  CA       -13.9980  -25.4950  -19.9510 C.3    15  ARG15       0.1694
      3  C        -13.9460  -24.5200  -21.1280 C.2    15  ARG15       0.2592
      4  O        -14.3650  -23.3690  -20.9920 O.2    15  ARG15      -0.2718
      5  CB       -12.8000  -25.2680  -19.0300 C.3    15  ARG15       0.0321
      6  CG       -12.9550  -25.8910  -17.6490 C.3    15  ARG15       0.0489
      7  CD       -11.7370  -25.6360  -16.7730 C.3    15  ARG15       0.2205
      8  NE       -11.4280  -24.2140  -16.6530 N.pl3  15  ARG15      -0.0865
      9  CZ       -10.4740  -23.7070  -15.8740 C.cat  15  ARG15       0.5346
     10  NH1       -9.7210  -24.5010  -15.1210 N.pl3  15  ARG15       0.1354
     11  NH2      -10.2740  -22.3960  -15.8440 N.pl3  15  ARG15       0.1354
     12  N        -13.4390  -24.9740  -22.2730 N.am   16  VAL16      -0.1966
     13  CA       -13.2590  -24.1010  -23.4370 C.3    16  VAL16       0.1727
     14  C        -14.2350  -24.4450  -24.5660 C.2    16  VAL16       0.2616
     15  O        -14.2440  -25.5680  -25.0750 O.2    16  VAL16      -0.2715
     16  CB       -11.7990  -24.1250  -23.9590 C.3    16  VAL16       0.0290
     17  CG1      -11.6170  -23.1400  -25.1060 C.3    16  VAL16       0.0023
     18  CG2      -10.8240  -23.8030  -22.8400 C.3    16  VAL16       0.0023
     19  N        -15.0430  -23.4600  -24.9520 N.am   17  VAL17      -0.1977
     20  CA       -16.0800  -23.6310  -25.9730 C.3    17  VAL17       0.1596
     21  C        -15.5560  -23.2600  -27.3590 C.2    17  VAL17       0.2287
     22  O        -14.8920  -22.2330  -27.5260 O.2    17  VAL17      -0.2864
     23  CB       -17.3310  -22.7780  -25.6560 C.3    17  VAL17       0.0276
     24  CG1      -18.3940  -22.9420  -26.7400 C.3    17  VAL17       0.0022
     25  CG2      -17.9020  -23.1470  -24.2990 C.3    17  VAL17       0.0022
     26  N        -13.3910  -23.2320  -30.8480 N.3    19  GLN19      -0.1245
     27  CA       -11.9590  -23.2390  -31.1550 C.3    19  GLN19       0.1566
     28  C        -11.4180  -24.6700  -31.2230 C.2    19  GLN19       0.2260
     29  O        -10.4260  -25.0060  -30.5670 O.2    19  GLN19      -0.2867
     30  CB       -11.1710  -22.3950  -30.1440 C.3    19  GLN19       0.0367
     31  CG       -11.8430  -21.0830  -29.7160 C.3    19  GLN19       0.0905
     32  CD       -11.9080  -20.0280  -30.8150 C.2    19  GLN19       0.2608
     33  OE1      -11.6930  -20.3140  -31.9940 O.2    19  GLN19      -0.2717
     34  NE2      -12.2150  -18.7980  -30.4250 N.am   19  GLN19      -0.0878
     35  N         -8.7950  -12.6750  -32.2650 N.3    52  PRO52      -0.2102
     36  CA        -9.3400  -11.5220  -31.5600 C.3    52  PRO52       0.1504
     37  C         -9.2050  -11.6600  -30.0450 C.2    52  PRO52       0.2576
     38  O         -8.8560  -12.7320  -29.5460 O.2    52  PRO52      -0.2718
     39  CB       -10.8220  -11.5180  -31.9720 C.3    52  PRO52       0.0282
     40  CG       -11.0150  -12.7050  -32.8890 C.3    52  PRO52       0.0208
     41  CD        -9.8560  -13.6110  -32.6650 C.3    52  PRO52       0.0893
     42  N         -9.4770  -10.5710  -29.3320 N.am   53  THR53      -0.1939
     43  CA        -9.4050  -10.5390  -27.8760 C.3    53  THR53       0.2028
     44  C        -10.6200  -11.2250  -27.2490 C.2    53  THR53       0.2643
     45  O        -11.7420  -11.0860  -27.7370 O.2    53  THR53      -0.2714
     46  CB        -9.3190   -9.0830  -27.3630 C.3    53  THR53       0.1808
     47  OG1       -8.3800   -8.3490  -28.1560 O.3    53  THR53      -0.2208
     48  CG2       -8.8870   -9.0310  -25.8980 C.3    53  THR53       0.0379
     49  N        -10.3760  -11.9760  -26.1770 N.am   54  GLY54      -0.1939
     50  CA       -11.4350  -12.5220  -25.3290 C.3    54  GLY54       0.2014
     51  C        -12.2560  -13.6430  -25.9250 C.2    54  GLY54       0.2639
     52  O        -13.4640  -13.7110  -25.6960 O.2    54  GLY54      -0.2714
     53  N        -11.6090  -14.5290  -26.6790 N.am   55  VAL55      -0.1963
     54  CA       -12.3200  -15.6230  -27.3590 C.3    55  VAL55       0.1727
     55  C        -11.8680  -17.0270  -26.9270 C.2    55  VAL55       0.2617
     56  O        -12.2520  -18.0290  -27.5390 O.2    55  VAL55      -0.2715
     57  CB       -12.2830  -15.4830  -28.9110 C.3    55  VAL55       0.0290
     58  CG1      -13.0340  -14.2340  -29.3600 C.3    55  VAL55       0.0023
     59  CG2      -10.8540  -15.4750  -29.4300 C.3    55  VAL55       0.0023
     60  N        -11.0640  -17.0920  -25.8700 N.am   56  GLY56      -0.1940
     61  CA       -10.7010  -18.3660  -25.2580 C.3    56  GLY56       0.2014
     62  C         -9.2210  -18.6800  -25.2240 C.2    56  GLY56       0.2639
     63  O         -8.8400  -19.8430  -25.1240 O.2    56  GLY56      -0.2714
     64  N         -8.3820  -17.6520  -25.2930 N.am   57  GLN57      -0.1963
     65  CA        -6.9330  -17.8510  -25.3030 C.3    57  GLN57       0.1733
     66  C         -6.3710  -18.0940  -23.9020 C.2    57  GLN57       0.2617
     67  O         -5.7140  -19.1100  -23.6700 O.2    57  GLN57      -0.2715
     68  CB        -6.2220  -16.6810  -25.9880 C.3    57  GLN57       0.0408
     69  CG        -6.5620  -16.5250  -27.4670 C.3    57  GLN57       0.0908
     70  CD        -5.5790  -15.6390  -28.2090 C.2    57  GLN57       0.2608
     71  OE1       -4.5930  -15.1670  -27.6400 O.2    57  GLN57      -0.2717
     72  NE2       -5.8420  -15.4100  -29.4900 N.am   57  GLN57      -0.0878
     73  N         -6.6330  -17.1640  -22.9810 N.am   58  THR58      -0.1937
     74  CA        -6.2460  -17.3070  -21.5730 C.3    58  THR58       0.2028
     75  C         -6.9380  -18.5220  -20.9630 C.2    58  THR58       0.2642
     76  O         -6.3080  -19.3160  -20.2570 O.2    58  THR58      -0.2714
     77  CB        -6.5910  -16.0360  -20.7460 C.3    58  THR58       0.1808
     78  OG1       -5.8620  -14.9140  -21.2550 O.3    58  THR58      -0.2208
     79  CG2       -6.2470  -16.2140  -19.2710 C.3    58  THR58       0.0379
     80  N         -8.2320  -18.6640  -21.2540 N.am   59  GLU59      -0.1976
     81  CA        -9.0360  -19.7680  -20.7360 C.3    59  GLU59       0.1602
     82  C         -8.5080  -21.1240  -21.2070 C.2    59  GLU59       0.2287
     83  O         -8.6200  -22.1130  -20.4850 O.2    59  GLU59      -0.2864
     84  CB       -10.5120  -19.5870  -21.1160 C.3    59  GLU59       0.0415
     85  CG       -11.4840  -20.5600  -20.4390 C.3    59  GLU59       0.1163
     86  CD       -11.5170  -20.4270  -18.9220 C.2    59  GLU59       0.3649
     87  OE1      -11.5070  -19.2860  -18.4140 O.co2  59  GLU59      -0.2457
     88  OE2      -11.5650  -21.4690  -18.2330 O.co2  59  GLU59      -0.2457
     89  N         -5.2640  -21.6640  -19.1780 N.3    62  LYS62      -0.1245
     90  CA        -5.6770  -22.0440  -17.8270 C.3    62  LYS62       0.1561
     91  C         -6.1340  -23.4980  -17.7810 C.2    62  LYS62       0.2260
     92  O         -5.6920  -24.2650  -16.9200 O.2    62  LYS62      -0.2867
     93  CB        -6.7940  -21.1280  -17.3190 C.3    62  LYS62       0.0271
     94  CG        -6.3240  -19.7560  -16.8720 C.3    62  LYS62       0.0035
     95  CD        -7.4820  -18.9050  -16.3760 C.3    62  LYS62       0.0206
     96  CE        -6.9870  -17.5810  -15.8210 C.3    62  LYS62       0.1093
     97  NZ        -8.1060  -16.6400  -15.5510 N.3    62  LYS62      -0.1314
     98  N          1.6090  -15.6590  -16.3110 N.3    77  ARG77      -0.1245
     99  CA         1.3120  -14.6650  -17.3380 C.3    77  ARG77       0.1563
    100  C          2.3300  -13.5280  -17.3570 C.2    77  ARG77       0.2260
    101  O          2.4590  -12.7710  -16.3930 O.2    77  ARG77      -0.2867
    102  CB        -0.1090  -14.1170  -17.1780 C.3    77  ARG77       0.0307
    103  CG        -0.5800  -13.3130  -18.3740 C.3    77  ARG77       0.0489
    104  CD        -2.0650  -13.0660  -18.3270 C.3    77  ARG77       0.2205
    105  NE        -2.5850  -12.7880  -19.6610 N.pl3  77  ARG77      -0.0865
    106  CZ        -3.8740  -12.7910  -19.9850 C.cat  77  ARG77       0.5346
    107  NH1       -4.8020  -13.0560  -19.0710 N.pl3  77  ARG77       0.1354
    108  NH2       -4.2360  -12.5280  -21.2330 N.pl3  77  ARG77       0.1354
    109  N        -16.5940  -15.6000  -31.5960 N.3   213  LEU213     -0.1245
    110  CA       -17.5620  -16.5490  -31.0540 C.3   213  LEU213      0.1561
    111  C        -18.9660  -16.2940  -31.5890 C.2   213  LEU213      0.2260
    112  O        -19.4340  -15.1550  -31.5990 O.2   213  LEU213     -0.2867
    113  CB       -17.5500  -16.5140  -29.5230 C.3   213  LEU213      0.0270
    114  CG       -16.1890  -16.6860  -28.8350 C.3   213  LEU213      0.0019
    115  CD1      -16.2600  -16.2310  -27.3840 C.3   213  LEU213      0.0001
    116  CD2      -15.6810  -18.1180  -28.9300 C.3   213  LEU213      0.0001
    117  N        -20.9170  -20.6220  -23.0030 N.3   221  ILE221     -0.1245
    118  CA       -20.0270  -20.0730  -21.9800 C.3   221  ILE221      0.1561
    119  C        -20.8440  -19.6050  -20.7680 C.2   221  ILE221      0.2260
    120  O        -20.4850  -19.8960  -19.6220 O.2   221  ILE221     -0.2867
    121  CB       -19.1340  -18.9200  -22.5290 C.3   221  ILE221      0.0252
    122  CG1      -18.2280  -19.4230  -23.6570 C.3   221  ILE221      0.0019
    123  CG2      -18.2710  -18.3180  -21.4230 C.3   221  ILE221      0.0019
    124  CD1      -17.7250  -18.3350  -24.5790 C.3   221  ILE221      0.0001
    125  N        -21.9020  -22.6260  -18.7580 N.3   224  ILE224     -0.1231
    126  CA       -20.7590  -23.1550  -18.0160 C.3   224  ILE224      0.1692
    127  C        -20.5120  -22.3600  -16.7300 C.2   224  ILE224      0.2591
    128  O        -20.2450  -22.9400  -15.6750 O.2   224  ILE224     -0.2718
    129  CB       -19.4850  -23.2210  -18.9090 C.3   224  ILE224      0.0266
    130  CG1      -19.5970  -24.3930  -19.8900 C.3   224  ILE224      0.0019
    131  CG2      -18.2160  -23.3630  -18.0690 C.3   224  ILE224      0.0020
    132  CD1      -18.5420  -24.4120  -20.9790 C.3   224  ILE224      0.0001
    133  N        -20.6230  -21.0380  -16.8230 N.am  225  GLN225     -0.1979
    134  CA       -20.4240  -20.1700  -15.6660 C.3   225  GLN225      0.1601
    135  C        -21.5680  -20.2800  -14.6560 C.2   225  GLN225      0.2287
    136  O        -21.3380  -20.2510  -13.4450 O.2   225  GLN225     -0.2864
    137  CB       -20.2120  -18.7180  -16.1080 C.3   225  GLN225      0.0394
    138  CG       -18.9670  -18.4980  -16.9700 C.3   225  GLN225      0.0908
    139  CD       -17.6720  -18.8840  -16.2680 C.2   225  GLN225      0.2608
    140  OE1      -17.5670  -18.8190  -15.0410 O.2   225  GLN225     -0.2717
    141  NE2      -16.6740  -19.2840  -17.0490 N.am  225  GLN225     -0.0878
    142  N        -15.4020  -11.8420  -24.8920 N.3   261  ALA261     -0.1231
    143  CA       -16.2680  -12.2060  -23.7720 C.3   261  ALA261      0.1694
    144  C        -15.6330  -11.8760  -22.4180 C.2   261  ALA261      0.2591
    145  O        -15.9960  -12.4580  -21.3960 O.2   261  ALA261     -0.2718
    146  CB       -16.6490  -13.6790  -23.8520 C.3   261  ALA261      0.0304
    147  N        -14.6960  -10.9300  -22.4190 N.am  262  ARG262     -0.1980
    148  CA       -14.0270  -10.4840  -21.1920 C.3   262  ARG262      0.1597
    149  C        -14.9270   -9.7210  -20.2130 C.2   262  ARG262      0.2287
    150  O        -14.7100   -9.8110  -19.0050 O.2   262  ARG262     -0.2864
    151  CB       -12.7660   -9.6690  -21.5080 C.3   262  ARG262      0.0334
    152  CG       -11.6130  -10.5160  -22.0120 C.3   262  ARG262      0.0492
    153  CD       -10.3220   -9.7340  -22.1280 C.3   262  ARG262      0.2205
    154  NE        -9.1890  -10.6350  -22.3330 N.pl3 262  ARG262     -0.0865
    155  CZ        -7.9130  -10.2590  -22.3460 C.cat 262  ARG262      0.5346
    156  NH1       -7.5820   -8.9850  -22.1700 N.pl3 262  ARG262      0.1354
    157  NH2       -6.9630  -11.1650  -22.5350 N.pl3 262  ARG262      0.1354
    158  N        -17.8910  -10.4500  -19.4340 N.3   264  LEU264     -0.1231
    159  CA       -18.8710  -11.3840  -18.8730 C.3   264  LEU264      0.1693
    160  C        -18.7730  -11.5850  -17.3560 C.2   264  LEU264      0.2591
    161  O        -19.7980  -11.6650  -16.6740 O.2   264  LEU264     -0.2718
    162  CB       -18.8030  -12.7350  -19.5950 C.3   264  LEU264      0.0284
    163  CG       -19.9250  -13.7390  -19.3190 C.3   264  LEU264      0.0019
    164  CD1      -21.2620  -13.2540  -19.8780 C.3   264  LEU264      0.0001
    165  CD2      -19.5660  -15.0960  -19.8890 C.3   264  LEU264      0.0001
    166  N        -17.5450  -11.6530  -16.8420 N.am  265  ARG265     -0.1980
    167  CA       -17.3000  -11.9140  -15.4200 C.3   265  ARG265      0.1597
    168  C        -18.0020  -10.9140  -14.5060 C.2   265  ARG265      0.2287
    169  O        -18.6500  -11.2980  -13.5300 O.2   265  ARG265     -0.2864
    170  CB       -15.7990  -11.9280  -15.1310 C.3   265  ARG265      0.0334
    171  CG       -15.4430  -12.3870  -13.7290 C.3   265  ARG265      0.0492
    172  CD       -13.9430  -12.3610  -13.5120 C.3   265  ARG265      0.2205
    173  NE       -13.5620  -13.0100  -12.2600 N.pl3 265  ARG265     -0.0865
    174  CZ       -13.5250  -12.4070  -11.0730 C.cat 265  ARG265      0.5346
    175  NH1      -13.1630  -13.0950   -9.9960 N.pl3 265  ARG265      0.1354
    176  NH2      -13.8490  -11.1230  -10.9540 N.pl3 265  ARG265      0.1354
    177  N        -21.9920  -10.7740  -15.0630 N.3   268  ILE268     -0.1245
    178  CA       -22.5880  -11.7860  -14.1860 C.3   268  ILE268      0.1561
    179  C        -22.5770  -11.3030  -12.7310 C.2   268  ILE268      0.2260
    180  O        -23.5690  -11.4530  -12.0130 O.2   268  ILE268     -0.2867
    181  CB       -21.8790  -13.1690  -14.3230 C.3   268  ILE268      0.0252
    182  CG1      -22.2400  -13.8280  -15.6600 C.3   268  ILE268      0.0019
    183  CG2      -22.2410  -14.1020  -13.1610 C.3   268  ILE268      0.0019
    184  CD1      -21.4540  -15.0970  -15.9760 C.3   268  ILE268      0.0001
@<TRIPOS>BOND
     1    40    41    1
     2    40    39    1
     3    41    35    1
     4    35    36    1
     5    33    32    2
     6    39    36    1
     7   112   111    2
     8   109   110    1
     9   111   110    1
    10    36    37    1
    11    28    27    1
    12    28    29    2
    13    27    26    1
    14    27    30    1
    15   110   113    1
    16    32    34   am
    17    32    31    1
    18    30    31    1
    19    37    38    2
    20    37    42   am
    21   113   114    1
    22    72    70   am
    23    59    57    1
    24    58    57    1
    25    42    43    1
    26   116   114    1
    27    57    54    1
    28   114   115    1
    29    70    71    2
    30    70    69    1
    31    47    46    1
    32    43    46    1
    33    43    44    1
    34    45    44    2
    35    56    55    2
    36    22    21    2
    37    69    68    1
    38    46    48    1
    39    21    20    1
    40    54    55    1
    41    54    53    1
    42    44    49   am
    43    55    60   am
    44    24    23    1
    45    53    51   am
    46    49    50    1
    47    68    65    1
    48    20    23    1
    49    20    19    1
    50    51    52    2
    51    51    50    1
    52    60    61    1
    53    23    25    1
    54    65    64    1
    55    65    66    1
    56    64    62   am
    57    61    62    1
    58    62    63    2
    59    17    16    1
    60    15    14    2
    61    19    14   am
    62   142   143    1
    63   124   122    1
    64    14    13    1
    65    16    13    1
    66    16    18    1
    67    66    67    2
    68    66    73   am
    69   146   143    1
    70   143   144    1
    71   122   121    1
    72    13    12    1
    73   117   118    1
    74    73    74    1
    75   157   155    1
    76   121   118    1
    77   121   123    1
    78   147   144   am
    79   147   148    1
    80   144   145    2
    81   155   154    2
    82   155   156    1
    83   154   153    1
    84    12     3   am
    85   153   152    1
    86   152   151    1
    87   118   119    1
    88    74    75    1
    89    74    77    1
    90   151   148    1
    91    78    77    1
    92    80    75   am
    93    80    81    1
    94   108   106    1
    95    82    81    1
    96    82    83    2
    97   148   149    1
    98     3     4    2
    99     3     2    1
   100    84    81    1
   101    84    85    1
   102   132   130    1
   103    75    76    2
   104   119   120    2
   105    77    79    1
   106    85    86    1
   107     1     2    1
   108   149   150    2
   109   106   105    2
   110   106   107    1
   111     2     5    1
   112   130   129    1
   113   165   163    1
   114   164   163    1
   115   105   104    1
   116   162   163    1
   117   162   159    1
   118   158   159    1
   119    89    90    1
   120     5     6    1
   121    86    87   ar
   122    86    88   ar
   123   129   131    1
   124   129   126    1
   125   159   160    1
   126   125   126    1
   127   103   104    1
   128   103   102    1
   129   126   127    1
   130    90    91    1
   131    90    93    1
   132    91    92    2
   133     6     7    1
   134   100    99    1
   135   100   101    2
   136   160   166   am
   137   160   161    2
   138    99   102    1
   139    99    98    1
   140    93    94    1
   141   141   139   am
   142   138   139    1
   143   138   137    1
   144    94    95    1
   145   166   167    1
   146   133   127   am
   147   133   134    1
   148     7     8    1
   149   127   128    2
   150     8     9    2
   151    95    96    1
   152   139   140    2
   153   137   134    1
   154   184   182    1
   155     9    11    1
   156     9    10    1
   157    96    97    1
   158   134   135    1
   159   182   181    1
   160   167   170    1
   161   167   168    1
   162   170   171    1
   163   177   178    1
   164   135   136    2
   165   168   169    2
   166   181   178    1
   167   181   183    1
   168   178   179    1
   169   171   172    1
   170   172   173    1
   171   179   180    2
   172   173   174    2
   173   174   176    1
   174   174   175    1
