@<TRIPOS>MOLECULE
tmp/4ljrA00.pdb
 109 106 0 0 0
SMALL
GASTEIGER

@<TRIPOS>ATOM
      1  N         21.0460    6.2470   23.6000 N.3    48  ARG48      -0.1245
      2  CA        22.3250    5.7220   23.1470 C.3    48  ARG48       0.1563
      3  C         23.3410    5.7200   24.2920 C.2    48  ARG48       0.2260
      4  O         24.4250    5.1520   24.1790 O.2    48  ARG48      -0.2867
      5  CB        22.8320    6.5390   21.9560 C.3    48  ARG48       0.0307
      6  CG        21.9160    6.4460   20.7410 C.3    48  ARG48       0.0489
      7  CD        22.5200    7.0790   19.4920 C.3    48  ARG48       0.2205
      8  NE        22.3110    8.5240   19.4320 N.pl3  48  ARG48      -0.0865
      9  CZ        21.1670    9.1020   19.0750 C.cat  48  ARG48       0.5346
     10  NH1       21.0720   10.4260   19.0420 N.pl3  48  ARG48       0.1354
     11  NH2       20.1150    8.3590   18.7560 N.pl3  48  ARG48       0.1354
     12  N         20.8060    0.6540   17.1730 N.3    77  ALA77      -0.1231
     13  CA        21.5300    1.8600   17.5810 C.3    77  ALA77       0.1694
     14  C         22.5030    1.6140   18.7380 C.2    77  ALA77       0.2591
     15  O         22.4100    0.6050   19.4320 O.2    77  ALA77      -0.2718
     16  CB        20.5470    2.9570   17.9600 C.3    77  ALA77       0.0304
     17  N         23.4350    2.5430   18.9330 N.am   78  LEU78      -0.1980
     18  CA        24.3030    2.5170   20.1040 C.3    78  LEU78       0.1596
     19  C         23.4290    2.5380   21.3530 C.2    78  LEU78       0.2287
     20  O         22.3470    3.1330   21.3470 O.2    78  LEU78      -0.2864
     21  CB        25.2310    3.7360   20.1150 C.3    78  LEU78       0.0297
     22  CG        26.0720    4.0170   18.8630 C.3    78  LEU78       0.0022
     23  CD1       26.9760    5.2260   19.0610 C.3    78  LEU78       0.0001
     24  CD2       26.8960    2.8020   18.4680 C.3    78  LEU78       0.0001
     25  N         25.5460    0.1390   10.0020 N.3   104  TYR104     -0.1228
     26  CA        25.4580    1.3490   10.8190 C.3   104  TYR104      0.1721
     27  C         24.7350    1.0750   12.1340 C.2   104  TYR104      0.2437
     28  O         23.6590    0.4800   12.1300 O.2   104  TYR104     -0.2733
     29  CB        24.7460    2.4920   10.0800 C.3   104  TYR104      0.0547
     30  CG        24.7460    3.7740   10.8930 C.ar  104  TYR104     -0.0200
     31  CD1       23.7680    4.0170   11.8580 C.ar  104  TYR104     -0.0009
     32  CD2       25.7470    4.7190   10.7270 C.ar  104  TYR104     -0.0009
     33  CE1       23.7870    5.1810   12.6210 C.ar  104  TYR104      0.0417
     34  CE2       25.7740    5.8810   11.4800 C.ar  104  TYR104      0.0417
     35  CZ        24.7950    6.1110   12.4220 C.ar  104  TYR104      0.1957
     36  OH        24.8370    7.2720   13.1630 O.3   104  TYR104     -0.2866
     37  N         25.3000    1.5380   13.2630 N.am  105  PRO105     -0.2729
     38  CA        26.5510    2.3040   13.3650 C.3   105  PRO105      0.1401
     39  C         27.7690    1.3950   13.2990 C.2   105  PRO105      0.2269
     40  O         27.6730    0.2310   13.6840 O.2   105  PRO105     -0.2865
     41  CB        26.4560    2.9460   14.7490 C.3   105  PRO105      0.0296
     42  CG        25.6100    1.9760   15.5450 C.3   105  PRO105      0.0237
     43  CD        24.6090    1.4300   14.5640 C.3   105  PRO105      0.0939
     44  N         22.6350    6.2920    6.0100 N.3   131  PRO131     -0.2102
     45  CA        21.7180    6.8500    7.0060 C.3   131  PRO131      0.1504
     46  C         21.5770    8.3470    6.7980 C.2   131  PRO131      0.2576
     47  O         22.5500    9.0140    6.4490 O.2   131  PRO131     -0.2718
     48  CB        22.4250    6.5720    8.3380 C.3   131  PRO131      0.0282
     49  CG        23.3810    5.4660    8.0550 C.3   131  PRO131      0.0208
     50  CD        23.8030    5.6420    6.6270 C.3   131  PRO131      0.0893
     51  N         20.3690    8.8540    6.9910 N.am  132  ILE132     -0.1966
     52  CA        20.1020   10.2780    6.8980 C.3   132  ILE132      0.1727
     53  C         18.9530   10.5350    7.8690 C.2   132  ILE132      0.2616
     54  O         18.2090    9.6130    8.1980 O.2   132  ILE132     -0.2715
     55  CB        19.7710   10.7020    5.4390 C.3   132  ILE132      0.0290
     56  CG1       20.0530   12.1950    5.2210 C.3   132  ILE132      0.0022
     57  CG2       18.3490   10.3070    5.0540 C.3   132  ILE132      0.0023
     58  CD1       19.8640   12.6500    3.7690 C.3   132  ILE132      0.0001
     59  N         18.8280   11.7650    8.3560 N.am  133  LYS133     -0.1977
     60  CA        17.8470   12.0680    9.3960 C.3   133  LYS133      0.1596
     61  C         16.4810   11.4330    9.1290 C.2   133  LYS133      0.2287
     62  O         15.9350   10.7450    9.9870 O.2   133  LYS133     -0.2864
     63  CB        17.7220   13.5800    9.6110 C.3   133  LYS133      0.0298
     64  CG        18.2600   14.4310    8.4700 C.3   133  LYS133      0.0038
     65  CD        18.1370   15.9120    8.8000 C.3   133  LYS133      0.0206
     66  CE        18.8430   16.2470   10.1110 C.3   133  LYS133      0.1093
     67  NZ        18.6980   17.6770   10.4940 N.3   133  LYS133     -0.1314
     68  N         16.2180    7.5780    9.7010 N.3   136  PHE136     -0.1227
     69  CA        16.1530    7.2010   11.1100 C.3   136  PHE136      0.1736
     70  C         14.7190    7.2680   11.6140 C.2   136  PHE136      0.2595
     71  O         14.2290    6.3410   12.2530 O.2   136  PHE136     -0.2718
     72  CB        17.0370    8.1130   11.9640 C.3   136  PHE136      0.0547
     73  CG        18.5070    7.9120   11.7410 C.ar  136  PHE136     -0.0202
     74  CD1       19.1780    6.8670   12.3560 C.ar  136  PHE136     -0.0042
     75  CD2       19.2200    8.7650   10.9180 C.ar  136  PHE136     -0.0042
     76  CE1       20.5250    6.6750   12.1570 C.ar  136  PHE136     -0.0003
     77  CE2       20.5760    8.5750   10.7150 C.ar  136  PHE136     -0.0003
     78  CZ        21.2280    7.5260   11.3400 C.ar  136  PHE136     -0.0000
     79  N         14.0510    8.3760   11.3260 N.am  137  LEU137     -0.1980
     80  CA        12.6530    8.5290   11.7060 C.3   137  LEU137      0.1596
     81  C         11.7840    7.5090   10.9850 C.2   137  LEU137      0.2287
     82  O         10.8840    6.9150   11.5820 O.2   137  LEU137     -0.2864
     83  CB        12.1650    9.9390   11.3900 C.3   137  LEU137      0.0297
     84  CG        12.9010   11.0560   12.1270 C.3   137  LEU137      0.0022
     85  CD1       12.2790   12.4120   11.8030 C.3   137  LEU137      0.0001
     86  CD2       12.8890   10.7910   13.6250 C.3   137  LEU137      0.0001
     87  N         12.5040    4.4950    9.7660 N.3   139  ARG139     -0.1231
     88  CA        12.6110    3.1350   10.2780 C.3   139  ARG139      0.1694
     89  C         12.0470    3.0440   11.6920 C.2   139  ARG139      0.2592
     90  O         11.5990    1.9880   12.1210 O.2   139  ARG139     -0.2718
     91  CB        14.0490    2.5830   10.1670 C.3   139  ARG139      0.0321
     92  CG        15.0700    3.1430   11.1420 C.3   139  ARG139      0.0489
     93  CD        14.9760    2.4640   12.5190 C.3   139  ARG139      0.2205
     94  NE        16.2790    2.3890   13.1710 N.pl3 139  ARG139     -0.0865
     95  CZ        16.9230    3.4340   13.6770 C.cat 139  ARG139      0.5346
     96  NH1       16.3880    4.6440   13.6030 N.pl3 139  ARG139      0.1354
     97  NH2       18.1040    3.2720   14.2520 N.pl3 139  ARG139      0.1354
     98  N         12.0440    4.1570   12.4130 N.am  140  ASN140     -0.1974
     99  CA        11.4590    4.1520   13.7440 C.3   140  ASN140      0.1688
    100  C          9.9750    3.7880   13.7090 C.2   140  ASN140      0.2292
    101  O          9.4720    3.1270   14.6160 O.2   140  ASN140     -0.2864
    102  CB        11.6820    5.4870   14.4500 C.3   140  ASN140      0.1181
    103  CG        13.0930    5.6360   14.9800 C.2   140  ASN140      0.2629
    104  OD1       13.8800    4.6860   14.9650 O.2   140  ASN140     -0.2716
    105  ND2       13.4230    6.8320   15.4590 N.am  140  ASN140     -0.0877
    106  N         14.3980   10.7290   19.9910 N.3   160  GLY160     -0.1225
    107  CA        13.7410    9.8420   19.0470 C.3   160  GLY160      0.1811
    108  C         12.8710    8.8400   19.7830 C.2   160  GLY160      0.2280
    109  O         11.7870    8.4830   19.3250 O.2   160  GLY160     -0.2866
@<TRIPOS>BOND
     1    58    56    1
     2    57    55    1
     3    56    55    1
     4    55    52    1
     5    44    50    1
     6    44    45    1
     7    47    46    2
     8    50    49    1
     9    46    51   am
    10    46    45    1
    11    52    51    1
    12    52    53    1
    13    45    48    1
    14    53    54    2
    15    53    59   am
    16    49    48    1
    17    59    60    1
    18    64    65    1
    19    64    63    1
    20    65    66    1
    21    61    60    1
    22    61    62    2
    23    60    63    1
    24    68    69    1
    25    87    88    1
    26    25    26    1
    27    29    26    1
    28    29    30    1
    29    66    67    1
    30    91    88    1
    31    91    92    1
    32    88    89    1
    33    77    75   ar
    34    77    78   ar
    35    32    30   ar
    36    32    34   ar
    37    26    27    1
    38    30    31   ar
    39    75    73   ar
    40    81    82    2
    41    81    80    1
    42    69    70    1
    43    69    72    1
    44    92    93    1
    45    79    70   am
    46    79    80    1
    47    78    76   ar
    48    83    80    1
    49    83    84    1
    50    34    35   ar
    51    70    71    2
    52    89    90    2
    53    89    98   am
    54    73    72    1
    55    73    74   ar
    56    85    84    1
    57    31    33   ar
    58    84    86    1
    59    28    27    2
    60    27    37   am
    61    76    74   ar
    62    98    99    1
    63    35    33   ar
    64    35    36    1
    65    93    94    1
    66    94    95    2
    67    37    38    1
    68    37    43    1
    69    39    38    1
    70    39    40    2
    71    38    41    1
    72    96    95    1
    73    95    97    1
    74   100    99    1
    75   100   101    2
    76    99   102    1
    77   102   103    1
    78    43    42    1
    79    41    42    1
    80   104   103    2
    81   103   105   am
    82    12    13    1
    83    13    16    1
    84    13    14    1
    85    24    22    1
    86    14    17   am
    87    14    15    2
    88    11     9    1
    89    22    23    1
    90    22    21    1
    91    17    18    1
    92    10     9    1
    93   107   108    1
    94   107   106    1
    95     9     8    2
    96   109   108    2
    97     8     7    1
    98     7     6    1
    99    18    21    1
   100    18    19    1
   101     6     5    1
   102    20    19    2
   103     5     2    1
   104     2     1    1
   105     2     3    1
   106     4     3    2
