@<TRIPOS>MOLECULE
tmp/4ljyA00.pdb
 156 150 0 0 0
SMALL
GASTEIGER

@<TRIPOS>ATOM
      1  N         38.3570   29.2810   50.9570 N.3    45  TRP45      -0.1241
      2  CA        39.6390   28.9150   50.3430 C.3    45  TRP45       0.1605
      3  C         40.7320   28.7840   51.3970 C.2    45  TRP45       0.2264
      4  O         41.6610   27.9920   51.2530 O.2    45  TRP45      -0.2867
      5  CB        40.0520   29.9320   49.2680 C.3    45  TRP45       0.0550
      6  CG        39.0890   29.9900   48.1120 C.ar   45  TRP45       0.0003
      7  CD1       38.1680   30.9630   47.8590 C.ar   45  TRP45       0.0946
      8  CD2       38.9570   29.0270   47.0640 C.ar   45  TRP45       0.0152
      9  NE1       37.4650   30.6620   46.7180 N.ar   45  TRP45      -0.2442
     10  CE2       37.9290   29.4780   46.2090 C.ar   45  TRP45       0.0810
     11  CE3       39.5940   27.8150   46.7690 C.ar   45  TRP45       0.0012
     12  CZ2       37.5330   28.7690   45.0790 C.ar   45  TRP45       0.0191
     13  CZ3       39.2100   27.1170   45.6480 C.ar   45  TRP45       0.0001
     14  CH2       38.1860   27.5900   44.8140 C.ar   45  TRP45       0.0015
     15  N         41.3900   36.4700   40.5510 N.3    61  LEU61      -0.1245
     16  CA        40.1950   35.8330   39.9880 C.3    61  LEU61       0.1561
     17  C         38.9440   36.2790   40.7460 C.2    61  LEU61       0.2260
     18  O         37.8190   36.1530   40.2480 O.2    61  LEU61      -0.2867
     19  CB        40.3320   34.3010   40.0460 C.3    61  LEU61       0.0270
     20  CG        41.5060   33.7170   39.2470 C.3    61  LEU61       0.0019
     21  CD1       41.7210   32.2410   39.5580 C.3    61  LEU61       0.0001
     22  CD2       41.3140   33.9260   37.7510 C.3    61  LEU61       0.0001
     23  N         37.4310   34.9940   43.3190 N.3    63  PHE63      -0.1227
     24  CA        36.4600   33.9760   43.6940 C.3    63  PHE63       0.1736
     25  C         36.0760   34.2290   45.1490 C.2    63  PHE63       0.2596
     26  O         36.9400   34.2930   46.0130 O.2    63  PHE63      -0.2718
     27  CB        37.0370   32.5590   43.5130 C.3    63  PHE63       0.0547
     28  CG        37.2810   32.1660   42.0760 C.ar   63  PHE63      -0.0202
     29  CD1       36.8000   32.9370   41.0340 C.ar   63  PHE63      -0.0042
     30  CD2       37.9890   31.0070   41.7670 C.ar   63  PHE63      -0.0042
     31  CE1       37.0200   32.5630   39.7100 C.ar   63  PHE63      -0.0003
     32  CE2       38.2130   30.6370   40.4490 C.ar   63  PHE63      -0.0003
     33  CZ        37.7330   31.4150   39.4260 C.ar   63  PHE63      -0.0000
     34  N         34.7890   34.3910   45.4290 N.am   64  GLY64      -0.1942
     35  CA        34.3660   34.6420   46.7980 C.3    64  GLY64       0.2014
     36  C         33.8180   33.4190   47.5180 C.2    64  GLY64       0.2640
     37  O         33.8430   33.3390   48.7530 O.2    64  GLY64      -0.2714
     38  N         33.2940   32.4820   46.7420 N.am   65  SER65      -0.1935
     39  CA        32.6900   31.2580   47.2600 C.3    65  SER65       0.2055
     40  C         33.2200   30.0830   46.4460 C.2    65  SER65       0.2643
     41  O         33.6910   30.2680   45.3290 O.2    65  SER65      -0.2714
     42  CB        31.1760   31.3240   47.1130 C.3    65  SER65       0.2130
     43  OG        30.6670   32.4730   47.7610 O.3    65  SER65      -0.2179
     44  N         33.1740   28.8900   47.0190 N.am   66  LEU66      -0.1963
     45  CA        33.5380   27.6790   46.3020 C.3    66  LEU66       0.1728
     46  C         32.2710   27.1150   45.7000 C.2    66  LEU66       0.2616
     47  O         31.1760   27.2850   46.2520 O.2    66  LEU66      -0.2715
     48  CB        34.1660   26.6420   47.2480 C.3    66  LEU66       0.0311
     49  CG        35.6040   26.8490   47.7220 C.3    66  LEU66       0.0022
     50  CD1       35.7100   28.0390   48.6840 C.3    66  LEU66       0.0001
     51  CD2       36.1370   25.5790   48.3860 C.3    66  LEU66       0.0001
     52  N         32.4090   26.4570   44.5580 N.am   67  THR67      -0.1951
     53  CA        31.2950   25.6970   44.0160 C.3    67  THR67       0.1897
     54  C         31.1520   24.4470   44.8820 C.2    67  THR67       0.2313
     55  O         32.0760   24.1080   45.6210 O.2    67  THR67      -0.2863
     56  CB        31.5730   25.2770   42.5760 C.3    67  THR67       0.1794
     57  OG1       32.7770   24.5000   42.5540 O.3    67  THR67      -0.2208
     58  CG2       31.7550   26.5100   41.6890 C.3    67  THR67       0.0378
     59  N         33.8520   21.8580   44.3000 N.3    70  GLN70      -0.1245
     60  CA        35.0750   22.2900   44.9830 C.3    70  GLN70       0.1566
     61  C         35.0150   22.0770   46.5030 C.2    70  GLN70       0.2260
     62  O         35.9640   21.5590   47.1160 O.2    70  GLN70      -0.2867
     63  CB        35.3990   23.7560   44.6470 C.3    70  GLN70       0.0367
     64  CG        35.7650   23.9670   43.1840 C.3    70  GLN70       0.0905
     65  CD        35.7450   25.4370   42.7480 C.2    70  GLN70       0.2608
     66  OE1       35.1980   26.3060   43.4300 O.2    70  GLN70      -0.2717
     67  NE2       36.3400   25.7060   41.6080 N.am   70  GLN70      -0.0878
     68  N         28.5350   20.9350   33.6520 N.3    88  THR88      -0.1203
     69  CA        29.4780   21.8040   32.9750 C.3    88  THR88       0.1994
     70  C         29.3890   23.2170   33.5610 C.2    88  THR88       0.2618
     71  O         28.3090   23.6900   33.9330 O.2    88  THR88      -0.2717
     72  CB        29.2240   21.7960   31.4600 C.3    88  THR88       0.1784
     73  OG1       29.3330   20.4480   30.9860 O.3    88  THR88      -0.2211
     74  CG2       30.2440   22.6740   30.7120 C.3    88  THR88       0.0376
     75  N         30.5400   23.8650   33.6660 N.am   89  GLY89      -0.1942
     76  CA        30.6330   25.1980   34.2260 C.3    89  GLY89       0.2014
     77  C         30.6000   25.2820   35.7440 C.2    89  GLY89       0.2640
     78  O         30.3560   26.3620   36.2820 O.2    89  GLY89      -0.2714
     79  N         30.8510   24.1750   36.4470 N.am   90  SER90      -0.1935
     80  CA        30.7850   24.2120   37.9110 C.3    90  SER90       0.2055
     81  C         32.1470   24.1670   38.6160 C.2    90  SER90       0.2644
     82  O         32.2340   23.8960   39.8070 O.2    90  SER90      -0.2714
     83  CB        29.8690   23.1060   38.4480 C.3    90  SER90       0.2130
     84  OG        30.3960   21.8370   38.1410 O.3    90  SER90      -0.2179
     85  N         33.2120   24.4590   37.8880 N.am   91  GLY91      -0.1939
     86  CA        34.5100   24.5910   38.5110 C.3    91  GLY91       0.2014
     87  C         35.2480   23.2750   38.7330 C.2    91  GLY91       0.2639
     88  O         36.1020   23.1590   39.6170 O.2    91  GLY91      -0.2714
     89  N         34.9460   22.2790   37.9240 N.am   92  LYS92      -0.1963
     90  CA        35.6780   21.0190   38.0500 C.3    92  LYS92       0.1728
     91  C         37.1950   21.1310   37.8750 C.2    92  LYS92       0.2617
     92  O         37.9210   20.3470   38.4650 O.2    92  LYS92      -0.2715
     93  CB        35.1040   19.9510   37.1170 C.3    92  LYS92       0.0311
     94  CG        33.7440   19.4370   37.6020 C.3    92  LYS92       0.0038
     95  CD        33.1870   18.2980   36.7090 C.3    92  LYS92       0.0206
     96  CE        32.9680   18.7470   35.2600 C.3    92  LYS92       0.1093
     97  NZ        31.8850   19.7680   35.1130 N.3    92  LYS92      -0.1314
     98  N         37.6930   22.0900   37.0750 N.am   93  THR93      -0.1937
     99  CA        39.1470   22.1420   36.8150 C.3    93  THR93       0.2028
    100  C         39.9290   22.4090   38.0760 C.2    93  THR93       0.2642
    101  O         40.8930   21.7030   38.3900 O.2    93  THR93      -0.2714
    102  CB        39.5750   23.2140   35.7580 C.3    93  THR93       0.1808
    103  OG1       38.7860   23.0850   34.5810 O.3    93  THR93      -0.2208
    104  CG2       41.0210   23.0340   35.3650 C.3    93  THR93       0.0379
    105  N         39.5220   23.4410   38.8040 N.am   94  ILE94      -0.1977
    106  CA        40.2170   23.7850   40.0340 C.3    94  ILE94       0.1596
    107  C         40.0660   22.6830   41.0820 C.2    94  ILE94       0.2287
    108  O         40.9560   22.4810   41.9050 O.2    94  ILE94      -0.2864
    109  CB        39.7740   25.1900   40.5540 C.3    94  ILE94       0.0276
    110  CG1       40.4740   26.2920   39.7440 C.3    94  ILE94       0.0022
    111  CG2       40.0800   25.3660   42.0220 C.3    94  ILE94       0.0022
    112  CD1       39.8980   27.6770   39.9650 C.3    94  ILE94       0.0001
    113  N         42.9920   24.3830   27.0390 N.3   130  GLN130     -0.1245
    114  CA        42.3210   25.1590   28.0670 C.3   130  GLN130      0.1566
    115  C         42.8360   24.7820   29.4520 C.2   130  GLN130      0.2260
    116  O         43.1200   25.6450   30.2890 O.2   130  GLN130     -0.2867
    117  CB        40.8100   24.9330   27.9710 C.3   130  GLN130      0.0367
    118  CG        39.9700   25.8410   28.8510 C.3   130  GLN130      0.0905
    119  CD        38.4670   25.5490   28.7490 C.2   130  GLN130      0.2608
    120  OE1       37.6390   26.2970   29.2850 O.2   130  GLN130     -0.2717
    121  NE2       38.1140   24.4550   28.0670 N.am  130  GLN130     -0.0878
    122  N         45.0660   27.0110   32.3560 N.3   134  GLU134     -0.1245
    123  CA        44.8240   27.1010   33.7990 C.3   134  GLU134      0.1567
    124  C         46.0210   26.6350   34.6140 C.2   134  GLU134      0.2260
    125  O         46.4090   27.2890   35.5740 O.2   134  GLU134     -0.2867
    126  CB        43.5820   26.3060   34.2320 C.3   134  GLU134      0.0388
    127  CG        42.2640   27.0310   34.0160 C.3   134  GLU134      0.1160
    128  CD        42.2530   28.4110   34.6460 C.2   134  GLU134      0.3649
    129  OE1       42.9680   29.2970   34.1350 O.co2 134  GLU134     -0.2457
    130  OE2       41.5430   28.6060   35.6540 O.co2 134  GLU134     -0.2457
    131  N         48.6290   29.3050   34.5710 N.3   137  LYS137     -0.1245
    132  CA        48.2470   30.4230   35.4380 C.3   137  LYS137      0.1561
    133  C         48.5880   30.1370   36.8970 C.2   137  LYS137      0.2260
    134  O         49.1910   30.9670   37.5920 O.2   137  LYS137     -0.2867
    135  CB        46.7510   30.7070   35.2820 C.3   137  LYS137      0.0271
    136  CG        46.2460   31.9250   36.0070 C.3   137  LYS137      0.0035
    137  CD        44.7200   31.9550   36.0190 C.3   137  LYS137      0.0206
    138  CE        44.1440   32.1580   34.6210 C.3   137  LYS137      0.1093
    139  NZ        42.6470   31.9980   34.5890 N.3   137  LYS137     -0.1314
    140  N         39.6810   13.9740   32.8830 N.3   198  ASP198     -0.1225
    141  CA        38.7430   15.0760   32.8460 C.3   198  ASP198      0.1805
    142  C         37.7730   14.9110   31.6870 C.2   198  ASP198      0.2597
    143  O         38.1200   14.3290   30.6470 O.2   198  ASP198     -0.2718
    144  CB        39.5050   16.4070   32.7740 C.3   198  ASP198      0.1424
    145  CG        38.6110   17.6150   33.0360 C.2   198  ASP198      0.3668
    146  OD1       37.4880   17.4510   33.5680 O.co2 198  ASP198     -0.2456
    147  OD2       39.0500   18.7330   32.7240 O.co2 198  ASP198     -0.2456
    148  N         36.5500   15.3960   31.8720 N.am  199  GLU199     -0.1979
    149  CA        35.4910   15.1940   30.8940 C.3   199  GLU199      0.1602
    150  C         35.4250   13.7060   30.5510 C.2   199  GLU199      0.2287
    151  O         35.3600   13.3220   29.3830 O.2   199  GLU199     -0.2864
    152  CB        35.7550   16.0320   29.6340 C.3   199  GLU199      0.0415
    153  CG        35.5470   17.5250   29.8360 C.3   199  GLU199      0.1163
    154  CD        34.0990   17.8680   30.1470 C.2   199  GLU199      0.3649
    155  OE1       33.2590   17.7810   29.2310 O.co2 199  GLU199     -0.2457
    156  OE2       33.7960   18.2030   31.3080 O.co2 199  GLU199     -0.2457
@<TRIPOS>BOND
     1   113   114    1
     2   117   114    1
     3   117   118    1
     4   114   115    1
     5   121   119   am
     6   119   118    1
     7   119   120    2
     8   155   154   ar
     9   151   150    2
    10   115   116    2
    11   152   153    1
    12   152   149    1
    13   153   154    1
    14   154   156   ar
    15   150   149    1
    16   143   142    2
    17    74    72    1
    18   149   148    1
    19    73    72    1
    20    72    69    1
    21   142   148   am
    22   142   141    1
    23   122   123    1
    24   147   145   ar
    25   144   141    1
    26   144   145    1
    27   141   140    1
    28    69    70    1
    29    69    68    1
    30   145   146   ar
    31    70    75   am
    32    70    71    2
    33    75    76    1
    34   123   126    1
    35   123   124    1
    36   127   126    1
    37   127   128    1
    38   129   128   ar
    39    76    77    1
    40   131   132    1
    41   103   102    1
    42   139   138    1
    43   124   125    2
    44   138   137    1
    45   128   130   ar
    46    97    96    1
    47    96    95    1
    48   135   132    1
    49   135   136    1
    50   104   102    1
    51   132   133    1
    52    77    78    2
    53    77    79   am
    54   102    99    1
    55   136   137    1
    56    79    80    1
    57    95    94    1
    58    99    98    1
    59    99   100    1
    60   133   134    2
    61    98    91   am
    62    93    94    1
    63    93    90    1
    64    22    20    1
    65    91    90    1
    66    91    92    2
    67    85    86    1
    68    85    81   am
    69    80    83    1
    70    80    81    1
    71    89    90    1
    72    89    87   am
    73   100   101    2
    74   100   105   am
    75    84    83    1
    76    86    87    1
    77    81    82    2
    78    87    88    2
    79   105   106    1
    80    20    21    1
    81    20    19    1
    82    33    31   ar
    83    33    32   ar
    84    31    29   ar
    85   110   112    1
    86   110   109    1
    87    16    19    1
    88    16    15    1
    89    16    17    1
    90   106   109    1
    91   106   107    1
    92    18    17    2
    93    32    30   ar
    94   109   111    1
    95    29    28   ar
    96   107   108    2
    97    67    65   am
    98    58    56    1
    99    30    28   ar
   100    28    27    1
   101    57    56    1
   102    56    53    1
   103    65    64    1
   104    65    66    2
   105    64    63    1
   106    23    24    1
   107    27    24    1
   108    24    25    1
   109    53    52    1
   110    53    54    1
   111    59    60    1
   112    52    46   am
   113    63    60    1
   114    14    12   ar
   115    14    13   ar
   116    54    55    2
   117    60    61    1
   118    12    10   ar
   119    25    34   am
   120    25    26    2
   121    41    40    2
   122    34    35    1
   123    13    11   ar
   124    46    47    2
   125    46    45    1
   126    10     9   ar
   127    10     8   ar
   128    45    44    1
   129    45    48    1
   130    40    44   am
   131    40    39    1
   132    61    62    2
   133     9     7   ar
   134    38    39    1
   135    38    36   am
   136    11     8   ar
   137    35    36    1
   138     8     6   ar
   139    42    39    1
   140    42    43    1
   141    48    49    1
   142    36    37    2
   143    49    51    1
   144    49    50    1
   145     7     6   ar
   146     6     5    1
   147     5     2    1
   148     2     1    1
   149     2     3    1
   150     4     3    2
