@<TRIPOS>MOLECULE
tmp/4ljyA01.pdb
 87 84 0 0 0
SMALL
GASTEIGER

@<TRIPOS>ATOM
      1  N         22.9460   19.5540   56.3460 N.3    23  GLU23      -0.1231
      2  CA        22.2600   20.7180   55.8210 C.3    23  GLU23       0.1699
      3  C         23.1410   21.4120   54.7820 C.2    23  GLU23       0.2592
      4  O         22.6650   21.8140   53.7330 O.2    23  GLU23      -0.2718
      5  CB        21.8780   21.6850   56.9540 C.3    23  GLU23       0.0402
      6  CG        21.1850   22.9610   56.4890 C.3    23  GLU23       0.1161
      7  CD        19.8000   22.7130   55.8940 C.2    23  GLU23       0.3649
      8  OE1       19.2020   21.6620   56.1890 O.co2  23  GLU23      -0.2457
      9  OE2       19.3070   23.5680   55.1210 O.co2  23  GLU23      -0.2457
     10  N         24.4290   21.5570   55.0810 N.am   24  LEU24      -0.1980
     11  CA        25.3470   22.2120   54.1500 C.3    24  LEU24       0.1596
     12  C         25.3730   21.4790   52.8050 C.2    24  LEU24       0.2287
     13  O         25.2850   22.0970   51.7500 O.2    24  LEU24      -0.2864
     14  CB        26.7530   22.2850   54.7580 C.3    24  LEU24       0.0297
     15  CG        27.8820   22.8400   53.8870 C.3    24  LEU24       0.0022
     16  CD1       27.5290   24.2040   53.2890 C.3    24  LEU24       0.0001
     17  CD2       29.1640   22.9200   54.7150 C.3    24  LEU24       0.0001
     18  N         22.2840   22.2260   50.7950 N.3    27  SER27      -0.1217
     19  CA        22.2900   23.5960   50.2810 C.3    27  SER27       0.1889
     20  C         23.2770   23.7990   49.1420 C.2    27  SER27       0.2288
     21  O         23.1260   24.7270   48.3530 O.2    27  SER27      -0.2866
     22  CB        22.6000   24.6080   51.3950 C.3    27  SER27       0.2089
     23  OG        23.9630   24.5290   51.7850 O.3    27  SER27      -0.2183
     24  N         12.3380   26.5180   56.6500 N.3   372  LYS372     -0.1231
     25  CA        13.4360   27.4200   56.3350 C.3   372  LYS372      0.1693
     26  C         14.7700   26.6870   56.2630 C.2   372  LYS372      0.2593
     27  O         15.8270   27.3180   56.2650 O.2   372  LYS372     -0.2718
     28  CB        13.5140   28.5480   57.3660 C.3   372  LYS372      0.0285
     29  CG        12.3030   29.4990   57.3660 C.3   372  LYS372      0.0035
     30  CD        12.3730   30.4230   58.5870 C.3   372  LYS372      0.0206
     31  CE        11.4170   31.6080   58.4860 C.3   372  LYS372      0.1093
     32  NZ        10.0860   31.3140   59.0960 N.3   372  LYS372     -0.1314
     33  N         14.7320   25.3590   56.2090 N.am  373  THR373     -0.1939
     34  CA        15.9560   24.6050   55.9590 C.3   373  THR373      0.2028
     35  C         15.6830   23.4960   54.9760 C.2   373  THR373      0.2642
     36  O         14.5450   23.0500   54.8220 O.2   373  THR373     -0.2714
     37  CB        16.6020   24.0040   57.2260 C.3   373  THR373      0.1808
     38  OG1       15.7620   22.9800   57.7860 O.3   373  THR373     -0.2208
     39  CG2       16.8960   25.0840   58.2720 C.3   373  THR373      0.0379
     40  N         16.7330   23.0660   54.2890 N.am  374  PHE374     -0.1973
     41  CA        16.5960   21.9670   53.3530 C.3   374  PHE374      0.1639
     42  C         16.2660   20.6710   54.0850 C.2   374  PHE374      0.2290
     43  O         15.4120   19.9080   53.6340 O.2   374  PHE374     -0.2864
     44  CB        17.8590   21.8250   52.4910 C.3   374  PHE374      0.0560
     45  CG        17.9890   22.8880   51.4370 C.ar  374  PHE374     -0.0200
     46  CD1       17.2030   22.8520   50.3060 C.ar  374  PHE374     -0.0042
     47  CD2       18.9020   23.9250   51.5820 C.ar  374  PHE374     -0.0042
     48  CE1       17.3260   23.8350   49.3290 C.ar  374  PHE374     -0.0003
     49  CE2       19.0210   24.9080   50.6170 C.ar  374  PHE374     -0.0003
     50  CZ        18.2270   24.8690   49.4960 C.ar  374  PHE374     -0.0000
     51  N         13.7440   32.9260   52.3640 N.3   403  SER403     -0.1217
     52  CA        14.4650   31.6580   52.4890 C.3   403  SER403      0.1889
     53  C         13.5700   30.4710   52.1020 C.2   403  SER403      0.2288
     54  O         14.0540   29.4730   51.5770 O.2   403  SER403     -0.2866
     55  CB        15.1030   31.4780   53.8700 C.3   403  SER403      0.2089
     56  OG        14.1360   31.4230   54.9040 O.3   403  SER403     -0.2183
     57  N         13.6160   30.3060   48.4040 N.3   406  TYR406     -0.1227
     58  CA        14.9160   29.8340   47.9540 C.3   406  TYR406      0.1736
     59  C         14.9580   28.3010   47.9730 C.2   406  TYR406      0.2595
     60  O         15.3400   27.6630   46.9940 O.2   406  TYR406     -0.2718
     61  CB        16.0410   30.4200   48.8080 C.3   406  TYR406      0.0548
     62  CG        17.4000   29.9040   48.3910 C.ar  406  TYR406     -0.0200
     63  CD1       18.0630   28.9440   49.1430 C.ar  406  TYR406     -0.0009
     64  CD2       17.9990   30.3560   47.2260 C.ar  406  TYR406     -0.0009
     65  CE1       19.2990   28.4520   48.7460 C.ar  406  TYR406      0.0417
     66  CE2       19.2340   29.8790   46.8190 C.ar  406  TYR406      0.0417
     67  CZ        19.8780   28.9260   47.5750 C.ar  406  TYR406      0.1957
     68  OH        21.1060   28.4550   47.1520 O.3   406  TYR406     -0.2866
     69  N         14.5360   27.7210   49.0850 N.am  407  ILE407     -0.1980
     70  CA        14.4630   26.2690   49.2180 C.3   407  ILE407      0.1595
     71  C         13.5990   25.6160   48.1570 C.2   407  ILE407      0.2287
     72  O         14.0090   24.6330   47.5340 O.2   407  ILE407     -0.2864
     73  CB        13.9140   25.8740   50.5870 C.3   407  ILE407      0.0276
     74  CG1       14.9410   26.2140   51.6630 C.3   407  ILE407      0.0022
     75  CG2       13.5470   24.3750   50.5890 C.3   407  ILE407      0.0022
     76  CD1       14.3680   26.2870   53.0570 C.3   407  ILE407      0.0001
     77  N         16.7690   36.5890   48.3340 N.3   433  PHE433     -0.1241
     78  CA        17.4150   35.8680   49.4180 C.3   433  PHE433      0.1605
     79  C         18.9110   35.7240   49.1550 C.2   433  PHE433      0.2264
     80  O         19.7320   35.9770   50.0370 O.2   433  PHE433     -0.2867
     81  CB        16.7860   34.4840   49.6280 C.3   433  PHE433      0.0534
     82  CG        17.4440   33.6970   50.7180 C.ar  433  PHE433     -0.0203
     83  CD1       17.2000   34.0010   52.0480 C.ar  433  PHE433     -0.0042
     84  CD2       18.3200   32.6670   50.4190 C.ar  433  PHE433     -0.0042
     85  CE1       17.8090   33.2870   53.0620 C.ar  433  PHE433     -0.0003
     86  CE2       18.9310   31.9530   51.4280 C.ar  433  PHE433     -0.0003
     87  CZ        18.6750   32.2600   52.7480 C.ar  433  PHE433     -0.0000
@<TRIPOS>BOND
     1    66    64   ar
     2    66    67   ar
     3    60    59    2
     4    68    67    1
     5    64    62   ar
     6    72    71    2
     7    67    65   ar
     8    58    59    1
     9    58    57    1
    10    58    61    1
    11    59    69   am
    12    71    70    1
    13    77    78    1
    14    21    20    2
    15    62    61    1
    16    62    63   ar
    17    65    63   ar
    18    69    70    1
    19    20    19    1
    20    79    78    1
    21    79    80    2
    22    70    73    1
    23    48    50   ar
    24    48    46   ar
    25    78    81    1
    26    50    49   ar
    27    81    82    1
    28    19    18    1
    29    19    22    1
    30    46    45   ar
    31    84    82   ar
    32    84    86   ar
    33    73    75    1
    34    73    74    1
    35    49    47   ar
    36    82    83   ar
    37    22    23    1
    38    86    87   ar
    39    45    47   ar
    40    45    44    1
    41    54    53    2
    42    74    76    1
    43    13    12    2
    44    83    85   ar
    45    53    52    1
    46    51    52    1
    47    52    55    1
    48    44    41    1
    49    87    85   ar
    50    12    11    1
    51    16    15    1
    52    41    42    1
    53    41    40    1
    54    43    42    2
    55     4     3    2
    56    55    56    1
    57    15    17    1
    58    15    14    1
    59    11    14    1
    60    11    10    1
    61    40    35   am
    62     3    10   am
    63     3     2    1
    64    36    35    2
    65    35    34    1
    66     9     7   ar
    67     2     1    1
    68     2     5    1
    69     7     8   ar
    70     7     6    1
    71    34    33    1
    72    34    37    1
    73    33    26   am
    74    26    27    2
    75    26    25    1
    76    25    24    1
    77    25    28    1
    78     6     5    1
    79    37    38    1
    80    37    39    1
    81    28    29    1
    82    29    30    1
    83    31    30    1
    84    31    32    1
