@<TRIPOS>MOLECULE
tmp/4lk3B01.pdb
 132 125 0 0 0
SMALL
GASTEIGER

@<TRIPOS>ATOM
      1  N         63.1560   -2.1370   47.2490 N.3   114  GLU114     -0.1245
      2  CA        62.7770   -2.7260   45.9850 C.3   114  GLU114      0.1567
      3  C         63.5070   -2.0360   44.8350 C.2   114  GLU114      0.2260
      4  O         63.5030   -2.5250   43.7120 O.2   114  GLU114     -0.2867
      5  CB        61.2500   -2.6680   45.7740 C.3   114  GLU114      0.0388
      6  CG        60.3670   -3.5510   46.6660 C.3   114  GLU114      0.1160
      7  CD        60.4510   -5.0260   46.4090 C.2   114  GLU114      0.3649
      8  OE1       61.5770   -5.5290   46.2440 O.co2 114  GLU114     -0.2457
      9  OE2       59.3820   -5.6840   46.3900 O.co2 114  GLU114     -0.2457
     10  N         61.6860   -4.8630   54.6220 N.3   144  ASN144     -0.1240
     11  CA        60.5030   -5.5000   55.2020 C.3   144  ASN144      0.1653
     12  C         60.2130   -5.0820   56.6200 C.2   144  ASN144      0.2266
     13  O         61.0620   -5.2700   57.4760 O.2   144  ASN144     -0.2867
     14  CB        60.6080   -7.0260   55.1400 C.3   144  ASN144      0.1155
     15  CG        60.4500   -7.5620   53.7260 C.2   144  ASN144      0.2627
     16  OD1       59.8840   -6.8920   52.8610 O.2   144  ASN144     -0.2716
     17  ND2       60.8880   -8.8020   53.5030 N.am  144  ASN144     -0.0877
     18  N         49.1350  -11.3570   51.8940 N.3   155  GLY155     -0.1210
     19  CA        49.8160  -12.5700   51.4850 C.3   155  GLY155      0.1956
     20  C         51.3160  -12.5940   51.7100 C.2   155  GLY155      0.2612
     21  O         52.0160  -13.4660   51.1840 O.2   155  GLY155     -0.2717
     22  N         51.8110  -11.6370   52.4860 N.am  156  ARG156     -0.1965
     23  CA        53.1900  -11.6640   52.9630 C.3   156  ARG156      0.1729
     24  C         53.3000  -12.8540   53.9150 C.2   156  ARG156      0.2616
     25  O         52.2890  -13.3590   54.4000 O.2   156  ARG156     -0.2715
     26  CB        53.5440  -10.3530   53.6810 C.3   156  ARG156      0.0348
     27  CG        55.0230  -10.1920   54.0640 C.3   156  ARG156      0.0492
     28  CD        55.2070   -9.0360   55.0540 C.3   156  ARG156      0.2205
     29  NE        55.2460   -7.7110   54.4320 N.pl3 156  ARG156     -0.0865
     30  CZ        56.3500   -6.9770   54.2980 C.cat 156  ARG156      0.5346
     31  NH1       57.5060   -7.4310   54.7620 N.pl3 156  ARG156      0.1354
     32  NH2       56.3000   -5.7760   53.7210 N.pl3 156  ARG156      0.1354
     33  N         54.5190  -13.2710   54.2270 N.am  157  VAL157     -0.1977
     34  CA        54.7470  -14.4700   55.0360 C.3   157  VAL157      0.1596
     35  C         54.4430  -14.2640   56.5480 C.2   157  VAL157      0.2287
     36  O         53.9040  -15.1630   57.1950 O.2   157  VAL157     -0.2864
     37  CB        56.1710  -15.0210   54.8340 C.3   157  VAL157      0.0276
     38  CG1       57.2230  -14.0000   55.2490 C.3   157  VAL157      0.0022
     39  CG2       56.3270  -16.3120   55.5710 C.3   157  VAL157      0.0022
     40  N         50.6250  -14.1870   56.7970 N.3   160  ASN160     -0.1225
     41  CA        50.1040  -15.5330   56.5950 C.3   160  ASN160      0.1785
     42  C         50.3450  -16.4440   57.7830 C.2   160  ASN160      0.2597
     43  O         49.3970  -17.0580   58.2840 O.2   160  ASN160     -0.2718
     44  CB        50.6830  -16.1940   55.3290 C.3   160  ASN160      0.1169
     45  CG        49.9890  -15.7560   54.0460 C.2   160  ASN160      0.2627
     46  OD1       48.8170  -15.3860   54.0600 O.2   160  ASN160     -0.2716
     47  ND2       50.6910  -15.8700   52.9180 N.am  160  ASN160     -0.0877
     48  N         51.5930  -16.5410   58.2440 N.am  161  PHE161     -0.1976
     49  CA        51.8700  -17.4570   59.3500 C.3   161  PHE161      0.1639
     50  C         51.0720  -17.0950   60.6040 C.2   161  PHE161      0.2290
     51  O         50.4980  -17.9740   61.2590 O.2   161  PHE161     -0.2864
     52  CB        53.3700  -17.5370   59.6550 C.3   161  PHE161      0.0560
     53  CG        54.1640  -18.2890   58.6140 C.ar  161  PHE161     -0.0200
     54  CD1       53.5350  -18.8740   57.5320 C.ar  161  PHE161     -0.0042
     55  CD2       55.5210  -18.5240   58.7910 C.ar  161  PHE161     -0.0042
     56  CE1       54.2640  -19.5910   56.5990 C.ar  161  PHE161     -0.0003
     57  CE2       56.2510  -19.2520   57.8700 C.ar  161  PHE161     -0.0003
     58  CZ        55.6290  -19.7820   56.7730 C.ar  161  PHE161     -0.0000
     59  N         47.2340  -18.0470   59.8830 N.3   164  GLN164     -0.1245
     60  CA        47.1090  -19.4930   59.8870 C.3   164  GLN164      0.1566
     61  C         47.2880  -20.0220   61.3020 C.2   164  GLN164      0.2260
     62  O         46.5780  -20.9410   61.7280 O.2   164  GLN164     -0.2867
     63  CB        48.1100  -20.1190   58.9200 C.3   164  GLN164      0.0367
     64  CG        47.7980  -19.7180   57.4590 C.3   164  GLN164      0.0905
     65  CD        48.9420  -19.9780   56.4760 C.2   164  GLN164      0.2608
     66  OE1       49.9210  -20.6470   56.7980 O.2   164  GLN164     -0.2717
     67  NE2       48.8050  -19.4540   55.2620 N.am  164  GLN164     -0.0878
     68  N         51.5470  -23.0160   55.8630 N.3   172  THR172     -0.1203
     69  CA        51.9660  -23.3340   54.4990 C.3   172  THR172      0.1994
     70  C         53.3950  -22.8860   54.2350 C.2   172  THR172      0.2618
     71  O         53.6640  -21.6900   54.0730 O.2   172  THR172     -0.2717
     72  CB        51.0110  -22.6800   53.4570 C.3   172  THR172      0.1784
     73  OG1       51.0270  -21.2530   53.6010 O.3   172  THR172     -0.2211
     74  CG2       49.5800  -23.1810   53.6370 C.3   172  THR172      0.0376
     75  N         54.3160  -23.8370   54.1790 N.am  173  VAL173     -0.1965
     76  CA        55.6960  -23.4830   53.9230 C.3   173  VAL173      0.1727
     77  C         56.1350  -23.7720   52.4700 C.2   173  VAL173      0.2616
     78  O         56.3660  -24.9180   52.0950 O.2   173  VAL173     -0.2715
     79  CB        56.6210  -24.2510   54.8800 C.3   173  VAL173      0.0290
     80  CG1       58.0920  -23.9080   54.6020 C.3   173  VAL173      0.0023
     81  CG2       56.2650  -23.9450   56.3300 C.3   173  VAL173      0.0023
     82  N         56.2260  -22.7210   51.6550 N.am  174  TYR174     -0.1974
     83  CA        56.6730  -22.8840   50.2720 C.3   174  TYR174      0.1639
     84  C         58.1290  -23.3080   50.2550 C.2   174  TYR174      0.2290
     85  O         58.9420  -22.7950   51.0340 O.2   174  TYR174     -0.2864
     86  CB        56.5160  -21.5900   49.4530 C.3   174  TYR174      0.0560
     87  CG        55.1480  -20.9240   49.4440 C.ar  174  TYR174     -0.0198
     88  CD1       54.0140  -21.5780   49.9200 C.ar  174  TYR174     -0.0009
     89  CD2       54.9990  -19.6210   48.9550 C.ar  174  TYR174     -0.0009
     90  CE1       52.7660  -20.9490   49.8990 C.ar  174  TYR174      0.0417
     91  CE2       53.7620  -18.9860   48.9340 C.ar  174  TYR174      0.0417
     92  CZ        52.6470  -19.6520   49.4060 C.ar  174  TYR174      0.1957
     93  OH        51.4190  -19.0210   49.3810 O.3   174  TYR174     -0.2866
     94  N         64.9840  -21.1010   52.7940 N.3   179  GLN179     -0.1245
     95  CA        65.2460  -19.7350   52.3960 C.3   179  GLN179      0.1566
     96  C         65.0610  -18.8130   53.6100 C.2   179  GLN179      0.2260
     97  O         64.3700  -19.1410   54.6060 O.2   179  GLN179     -0.2867
     98  CB        64.3580  -19.2830   51.2110 C.3   179  GLN179      0.0367
     99  CG        62.8180  -19.1110   51.4140 C.3   179  GLN179      0.0905
    100  CD        61.9750  -20.3800   51.4170 C.2   179  GLN179      0.2608
    101  OE1       62.4790  -21.4930   51.5420 O.2   179  GLN179     -0.2717
    102  NE2       60.6660  -20.2030   51.2680 N.am  179  GLN179     -0.0878
    103  N         64.5670  -14.8180   55.4650 N.3   181  ARG181     -0.1245
    104  CA        63.9860  -13.4880   55.4720 C.3   181  ARG181      0.1563
    105  C         64.4640  -12.6570   56.6580 C.2   181  ARG181      0.2260
    106  O         64.9210  -13.1970   57.6710 O.2   181  ARG181     -0.2867
    107  CB        62.4600  -13.5680   55.4320 C.3   181  ARG181      0.0307
    108  CG        61.9410  -13.9480   54.0420 C.3   181  ARG181      0.0489
    109  CD        62.5970  -12.9980   53.0590 C.3   181  ARG181      0.2205
    110  NE        62.0840  -13.0630   51.6970 N.pl3 181  ARG181     -0.0865
    111  CZ        62.3490  -14.0330   50.8350 C.cat 181  ARG181      0.5346
    112  NH1       63.1200  -15.0540   51.1860 N.pl3 181  ARG181      0.1354
    113  NH2       61.8350  -13.9830   49.6200 N.pl3 181  ARG181      0.1354
    114  N         63.2810   -9.4350   59.0150 N.3   183  PHE183     -0.1241
    115  CA        62.1570   -8.5390   59.3510 C.3   183  PHE183      0.1605
    116  C         62.4820   -7.5310   60.4710 C.2   183  PHE183      0.2264
    117  O         63.0010   -7.8870   61.5280 O.2   183  PHE183     -0.2867
    118  CB        60.9240   -9.3780   59.6950 C.3   183  PHE183      0.0534
    119  CG        60.2790  -10.0220   58.4960 C.ar  183  PHE183     -0.0203
    120  CD1       59.5810   -9.2570   57.5740 C.ar  183  PHE183     -0.0042
    121  CD2       60.4350  -11.3800   58.2500 C.ar  183  PHE183     -0.0042
    122  CE1       59.0010   -9.8330   56.4680 C.ar  183  PHE183     -0.0003
    123  CE2       59.8630  -11.9640   57.1300 C.ar  183  PHE183     -0.0003
    124  CZ        59.1470  -11.1810   56.2360 C.ar  183  PHE183     -0.0000
    125  N         62.6270  -19.1530   56.6860 N.3   215  ILE215     -0.1245
    126  CA        61.1720  -19.0920   56.7040 C.3   215  ILE215      0.1561
    127  C         60.5560  -20.0780   57.6980 C.2   215  ILE215      0.2260
    128  O         59.5930  -19.7300   58.3810 O.2   215  ILE215     -0.2867
    129  CB        60.5850  -19.3590   55.3170 C.3   215  ILE215      0.0252
    130  CG1       60.9790  -18.2360   54.3570 C.3   215  ILE215      0.0019
    131  CG2       59.0760  -19.5320   55.4040 C.3   215  ILE215      0.0019
    132  CD1       60.4520  -16.8400   54.7800 C.3   215  ILE215      0.0001
@<TRIPOS>BOND
     1     4     3    2
     2     3     2    1
     3     5     2    1
     4     5     6    1
     5     2     1    1
     6     8     7   ar
     7     9     7   ar
     8     7     6    1
     9    91    89   ar
    10    91    92   ar
    11    89    87   ar
    12    93    92    1
    13    92    90   ar
    14    87    86    1
    15    87    88   ar
    16    86    83    1
    17   113   111    1
    18    90    88   ar
    19    84    83    1
    20    84    85    2
    21    83    82    1
    22   111   112    1
    23   111   110    2
    24    21    20    2
    25    98    99    1
    26    98    95    1
    27   102   100   am
    28    99   100    1
    29   100   101    2
    30    19    20    1
    31    19    18    1
    32    82    77   am
    33   110   109    1
    34    20    22   am
    35    78    77    2
    36    95    94    1
    37    95    96    1
    38    77    76    1
    39    22    23    1
    40    16    15    2
    41    47    45   am
    42    23    26    1
    43    23    24    1
    44   109   108    1
    45    72    73    1
    46    72    74    1
    47    72    69    1
    48    17    15   am
    49    96    97    2
    50    26    27    1
    51    32    30    1
    52    15    14    1
    53    24    33   am
    54    24    25    2
    55    76    75    1
    56    76    79    1
    57   108   107    1
    58    45    46    2
    59    45    44    1
    60    27    28    1
    61    71    70    2
    62    75    70   am
    63    33    34    1
    64    70    69    1
    65    30    29    2
    66    30    31    1
    67   130   132    1
    68   130   129    1
    69    29    28    1
    70    69    68    1
    71    80    79    1
    72    10    11    1
    73    37    34    1
    74    37    38    1
    75    37    39    1
    76    79    81    1
    77    34    35    1
    78    14    11    1
    79    11    12    1
    80    67    65   am
    81   129   131    1
    82   129   126    1
    83    44    41    1
    84   107   104    1
    85   103   104    1
    86   104   105    1
    87   124   122   ar
    88   124   123   ar
    89   122   120   ar
    90    65    66    2
    91    65    64    1
    92    35    36    2
    93    41    40    1
    94    41    42    1
    95    56    58   ar
    96    56    54   ar
    97    12    13    2
    98   105   106    2
    99   125   126    1
   100   126   127    1
   101    58    57   ar
   102   123   121   ar
   103    64    63    1
   104    54    53   ar
   105   120   119   ar
   106   127   128    2
   107    42    48   am
   108    42    43    2
   109    57    55   ar
   110    48    49    1
   111   121   119   ar
   112   119   118    1
   113    53    55   ar
   114    53    52    1
   115    63    60    1
   116   114   115    1
   117    49    52    1
   118    49    50    1
   119   115   118    1
   120   115   116    1
   121    59    60    1
   122    60    61    1
   123   116   117    2
   124    50    51    2
   125    61    62    2
