@<TRIPOS>MOLECULE
tmp/4lk3B02.pdb
 105 102 0 0 0
SMALL
GASTEIGER

@<TRIPOS>ATOM
      1  N         47.3710   19.5540   44.6550 N.3    61  PRO61      -0.2102
      2  CA        48.2250   20.5140   45.3450 C.3    61  PRO61       0.1504
      3  C         47.7570   20.6860   46.7730 C.2    61  PRO61       0.2576
      4  O         46.5700   20.7500   47.0720 O.2    61  PRO61      -0.2718
      5  CB        48.0180   21.7940   44.5590 C.3    61  PRO61       0.0282
      6  CG        47.7120   21.3210   43.1710 C.3    61  PRO61       0.0208
      7  CD        46.9350   20.0340   43.3310 C.3    61  PRO61       0.0893
      8  N         48.7100   20.7660   47.6690 N.am   62  LEU62      -0.1966
      9  CA        48.4130   20.9140   49.0610 C.3    62  LEU62       0.1728
     10  C         49.1450   22.1080   49.5670 C.2    62  LEU62       0.2616
     11  O         50.3490   22.2250   49.3680 O.2    62  LEU62      -0.2715
     12  CB        48.8710   19.6860   49.8420 C.3    62  LEU62       0.0311
     13  CG        48.8240   19.9430   51.3500 C.3    62  LEU62       0.0022
     14  CD1       47.3810   20.0700   51.8210 C.3    62  LEU62       0.0001
     15  CD2       49.6180   18.8840   52.1280 C.3    62  LEU62       0.0001
     16  N         48.4150   23.0190   50.1900 N.am   63  TYR63      -0.1974
     17  CA        49.0310   24.2180   50.7110 C.3    63  TYR63       0.1639
     18  C         48.9380   24.2560   52.2170 C.2    63  TYR63       0.2290
     19  O         47.8580   24.4020   52.7890 O.2    63  TYR63      -0.2864
     20  CB        48.4280   25.4680   50.0640 C.3    63  TYR63       0.0560
     21  CG        48.6680   25.4440   48.5780 C.ar   63  TYR63      -0.0198
     22  CD1       49.9340   25.7260   48.0830 C.ar   63  TYR63      -0.0009
     23  CD2       47.6490   25.1800   47.6680 C.ar   63  TYR63      -0.0009
     24  CE1       50.2050   25.7040   46.7440 C.ar   63  TYR63       0.0417
     25  CE2       47.9130   25.1630   46.2980 C.ar   63  TYR63       0.0417
     26  CZ        49.1990   25.4360   45.8450 C.ar   63  TYR63       0.1957
     27  OH        49.5140   25.4250   44.4960 O.3    63  TYR63      -0.2866
     28  N         56.1010   15.0720   43.3100 N.3    94  LEU94      -0.1231
     29  CA        56.3560   16.3950   42.7620 C.3    94  LEU94       0.1693
     30  C         55.5970   17.4260   43.6040 C.2    94  LEU94       0.2592
     31  O         56.2050   18.4230   44.0300 O.2    94  LEU94      -0.2718
     32  CB        55.9470   16.4680   41.2780 C.3    94  LEU94       0.0284
     33  CG        56.8410   15.7390   40.2640 C.3    94  LEU94       0.0019
     34  CD1       56.2440   15.8120   38.8960 C.3    94  LEU94       0.0001
     35  CD2       58.2230   16.4040   40.2210 C.3    94  LEU94       0.0001
     36  N         54.3060   17.2100   43.8650 N.am   95  ASN95      -0.1974
     37  CA        53.5820   18.1680   44.7120 C.3    95  ASN95       0.1688
     38  C         54.2230   18.3370   46.1140 C.2    95  ASN95       0.2292
     39  O         54.2740   19.4480   46.6310 O.2    95  ASN95      -0.2864
     40  CB        52.1020   17.8120   44.8180 C.3    95  ASN95       0.1181
     41  CG        51.3770   18.0120   43.5130 C.2    95  ASN95       0.2629
     42  OD1       51.8160   18.7740   42.6610 O.2    95  ASN95      -0.2716
     43  ND2       50.2980   17.2850   43.3230 N.am   95  ASN95      -0.0877
     44  N         57.2190   20.4400   45.5540 N.3    98  GLY98      -0.1210
     45  CA        56.7590   21.7900   45.3130 C.3    98  GLY98       0.1956
     46  C         56.4150   22.4620   46.6240 C.2    98  GLY98       0.2611
     47  O         56.8800   23.5590   46.8970 O.2    98  GLY98      -0.2717
     48  N         55.5980   21.8080   47.4450 N.am   99  LEU99      -0.1979
     49  CA        55.2950   22.3280   48.7760 C.3    99  LEU99       0.1596
     50  C         56.5550   22.5650   49.5820 C.2    99  LEU99       0.2287
     51  O         56.6810   23.6160   50.1800 O.2    99  LEU99      -0.2864
     52  CB        54.3660   21.4000   49.5370 C.3    99  LEU99       0.0297
     53  CG        54.2400   21.8160   51.0040 C.3    99  LEU99       0.0022
     54  CD1       53.5590   23.1690   51.1150 C.3    99  LEU99       0.0001
     55  CD2       53.4260   20.8260   51.7690 C.3    99  LEU99       0.0001
     56  N         59.4970   23.2940   48.6030 N.3   101  LYS101     -0.1231
     57  CA        60.2440   24.3850   47.9750 C.3   101  LYS101      0.1693
     58  C         59.5990   25.7270   48.3570 C.2   101  LYS101      0.2591
     59  O         60.2880   26.6750   48.6930 O.2   101  LYS101     -0.2718
     60  CB        60.2650   24.2160   46.4510 C.3   101  LYS101      0.0285
     61  CG        60.8070   25.4440   45.7170 C.3   101  LYS101      0.0035
     62  CD        60.4850   25.4020   44.2060 C.3   101  LYS101      0.0206
     63  CE        60.8340   26.7670   43.5430 C.3   101  LYS101      0.1093
     64  NZ        60.3800   26.9150   42.1210 N.3   101  LYS101     -0.1314
     65  N         58.2710   25.7890   48.3530 N.am  102  ARG102     -0.1980
     66  CA        57.6080   27.0430   48.6240 C.3   102  ARG102      0.1597
     67  C         57.7700   27.4860   50.0680 C.2   102  ARG102      0.2287
     68  O         57.9730   28.6680   50.3340 O.2   102  ARG102     -0.2864
     69  CB        56.1280   26.9580   48.2900 C.3   102  ARG102      0.0334
     70  CG        55.3790   28.2380   48.5090 C.3   102  ARG102      0.0492
     71  CD        53.8730   28.0410   48.2830 C.3   102  ARG102      0.2205
     72  NE        53.2370   27.1760   49.2860 N.pl3 102  ARG102     -0.0865
     73  CZ        52.6440   27.6050   50.4030 C.cat 102  ARG102      0.5346
     74  NH1       52.6090   28.8980   50.6870 N.pl3 102  ARG102      0.1354
     75  NH2       52.0960   26.7390   51.2480 N.pl3 102  ARG102      0.1354
     76  N         65.2150   18.2750   42.9740 N.3   129  TYR129     -0.1241
     77  CA        64.8070   19.4760   43.7100 C.3   129  TYR129      0.1605
     78  C         65.9120   19.9590   44.6350 C.2   129  TYR129      0.2264
     79  O         66.0870   21.1570   44.8320 O.2   129  TYR129     -0.2867
     80  CB        63.5210   19.2590   44.4980 C.3   129  TYR129      0.0534
     81  CG        62.2890   19.5350   43.6990 C.ar  129  TYR129     -0.0201
     82  CD1       61.8570   18.6390   42.7100 C.ar  129  TYR129     -0.0009
     83  CD2       61.6050   20.7290   43.8570 C.ar  129  TYR129     -0.0009
     84  CE1       60.7290   18.9040   41.9640 C.ar  129  TYR129      0.0417
     85  CE2       60.4830   20.9950   43.1220 C.ar  129  TYR129      0.0417
     86  CZ        60.0540   20.0980   42.1750 C.ar  129  TYR129      0.1957
     87  OH        58.9380   20.4060   41.4600 O.3   129  TYR129     -0.2866
     88  N         68.6340   21.5210   42.1250 N.3   132  GLN132     -0.1231
     89  CA        68.1280   22.6160   41.3060 C.3   132  GLN132      0.1698
     90  C         67.3670   23.6980   42.0640 C.2   132  GLN132      0.2592
     91  O         67.2780   24.8380   41.6120 O.2   132  GLN132     -0.2718
     92  CB        67.2420   22.0560   40.1940 C.3   132  GLN132      0.0381
     93  CG        66.8070   23.0630   39.1600 C.3   132  GLN132      0.0905
     94  CD        66.0830   22.4100   37.9860 C.2   132  GLN132      0.2608
     95  OE1       66.4260   21.3010   37.5640 O.2   132  GLN132     -0.2717
     96  NE2       65.0770   23.1000   37.4530 N.am  132  GLN132     -0.0878
     97  N         66.7870   23.3430   43.2040 N.am  133  GLU133     -0.1979
     98  CA        65.9420   24.2950   43.9190 C.3   133  GLU133      0.1602
     99  C         66.3640   24.4490   45.3540 C.2   133  GLU133      0.2287
    100  O         65.7080   25.1510   46.1420 O.2   133  GLU133     -0.2864
    101  CB        64.4640   23.8700   43.8660 C.3   133  GLU133      0.0415
    102  CG        63.8410   23.9030   42.4850 C.3   133  GLU133      0.1163
    103  CD        63.6950   25.3070   41.9150 C.2   133  GLU133      0.3649
    104  OE1       63.6050   26.2870   42.6900 O.co2 133  GLU133     -0.2457
    105  OE2       63.6890   25.4250   40.6740 O.co2 133  GLU133     -0.2457
@<TRIPOS>BOND
     1    96    94   am
     2    95    94    2
     3    94    93    1
     4    34    33    1
     5    93    92    1
     6    92    89    1
     7    35    33    1
     8    33    32    1
     9   105   103   ar
    10    32    29    1
    11    89    90    1
    12    89    88    1
    13    87    86    1
    14    91    90    2
    15   103   102    1
    16   103   104   ar
    17    84    86   ar
    18    84    82   ar
    19    90    97   am
    20    64    63    1
    21    86    85   ar
    22   102   101    1
    23    42    41    2
    24    82    81   ar
    25    29    28    1
    26    29    30    1
    27    76    77    1
    28    85    83   ar
    29     6     7    1
    30     6     5    1
    31    97    98    1
    32    43    41   am
    33     7     1    1
    34    41    40    1
    35    63    62    1
    36    30    36   am
    37    30    31    2
    38    81    83   ar
    39    81    80    1
    40    77    80    1
    41    77    78    1
    42    36    37    1
    43   101    98    1
    44    98    99    1
    45    62    61    1
    46    27    26    1
    47     5     2    1
    48    78    79    2
    49     1     2    1
    50    37    40    1
    51    37    38    1
    52    45    44    1
    53    45    46    1
    54     2     3    1
    55    99   100    2
    56    61    60    1
    57    26    25   ar
    58    26    24   ar
    59    38    39    2
    60    25    23   ar
    61    60    57    1
    62    46    47    2
    63    46    48   am
    64    24    22   ar
    65     3     4    2
    66     3     8   am
    67    48    49    1
    68    23    21   ar
    69     8     9    1
    70    57    58    1
    71    57    56    1
    72    22    21   ar
    73    71    70    1
    74    71    72    1
    75    69    70    1
    76    69    66    1
    77    65    58   am
    78    65    66    1
    79    58    59    2
    80    21    20    1
    81    66    67    1
    82    49    52    1
    83    49    50    1
    84     9    10    1
    85     9    12    1
    86    72    73    2
    87    11    10    2
    88    52    53    1
    89    10    16   am
    90    50    51    2
    91    12    13    1
    92    20    17    1
    93    67    68    2
    94    16    17    1
    95    73    74    1
    96    73    75    1
    97    17    18    1
    98    53    54    1
    99    53    55    1
   100    13    14    1
   101    13    15    1
   102    18    19    2
