@<TRIPOS>MOLECULE
tmp/4lk9A00.pdb
 219 212 0 0 0
SMALL
GASTEIGER

@<TRIPOS>ATOM
      1  N          1.8650   42.6400   25.8420 N.3    22  PHE22      -0.1241
      2  CA         0.8050   41.6340   26.0380 C.3    22  PHE22       0.1605
      3  C         -0.5990   42.1870   25.8000 C.2    22  PHE22       0.2264
      4  O         -1.4070   41.5660   25.0990 O.2    22  PHE22      -0.2867
      5  CB         0.9110   40.9890   27.4370 C.3    22  PHE22       0.0534
      6  CG         2.2610   40.3170   27.6630 C.ar   22  PHE22      -0.0203
      7  CD1        2.5500   39.0730   27.1210 C.ar   22  PHE22      -0.0042
      8  CD2        3.2880   41.0060   28.3400 C.ar   22  PHE22      -0.0042
      9  CE1        3.8520   38.4860   27.3050 C.ar   22  PHE22      -0.0003
     10  CE2        4.5760   40.4280   28.5180 C.ar   22  PHE22      -0.0003
     11  CZ         4.8520   39.1810   27.9960 C.ar   22  PHE22      -0.0000
     12  N         -4.7250   45.1860   32.2030 N.3    31  ARG31      -0.1245
     13  CA        -5.9410   44.4580   31.7600 C.3    31  ARG31       0.1563
     14  C         -7.2070   44.7500   32.5690 C.2    31  ARG31       0.2260
     15  O         -8.3270   44.5820   32.0660 O.2    31  ARG31      -0.2867
     16  CB        -5.6930   42.9540   31.6920 C.3    31  ARG31       0.0307
     17  CG        -4.8460   42.5880   30.5040 C.3    31  ARG31       0.0489
     18  CD        -4.7180   41.0750   30.3440 C.3    31  ARG31       0.2205
     19  NE        -4.2250   40.7400   29.0130 N.pl3  31  ARG31      -0.0865
     20  CZ        -3.1030   40.0660   28.7360 C.cat  31  ARG31       0.5346
     21  NH1       -2.3350   39.5400   29.7010 N.pl3  31  ARG31       0.1354
     22  NH2       -2.8040   39.8480   27.4380 N.pl3  31  ARG31       0.1354
     23  N          0.7320   41.3650   33.6020 N.3    52  CYS52      -0.1221
     24  CA         0.6730   40.6050   32.3440 C.3    52  CYS52       0.1808
     25  C          1.8610   39.6160   32.2510 C.2    52  CYS52       0.2601
     26  O          1.7090   38.5500   31.6200 O.2    52  CYS52      -0.2717
     27  CB         0.6880   41.5940   31.1480 C.3    52  CYS52       0.0970
     28  SG        -0.8540   42.5580   30.9770 S.3    52  CYS52      -0.0800
     29  N          2.9900   39.9770   32.8580 N.am   53  LEU53      -0.1965
     30  CA         4.1830   39.1050   32.9410 C.3    53  LEU53       0.1728
     31  C          4.0120   37.9670   33.9640 C.2    53  LEU53       0.2616
     32  O          4.8780   37.0860   34.0900 O.2    53  LEU53      -0.2715
     33  CB         5.4320   39.9530   33.3600 C.3    53  LEU53       0.0311
     34  CG         5.9880   40.7370   32.1320 C.3    53  LEU53       0.0022
     35  CD1        6.7580   41.9620   32.6370 C.3    53  LEU53       0.0001
     36  CD2        6.8590   39.8110   31.2200 C.3    53  LEU53       0.0001
     37  N          2.9340   38.0620   34.7450 N.am   54  LYS54      -0.1963
     38  CA         2.6390   37.1260   35.8320 C.3    54  LYS54       0.1728
     39  C          3.7040   37.1470   36.9320 C.2    54  LYS54       0.2616
     40  O          3.9790   36.0980   37.5400 O.2    54  LYS54      -0.2715
     41  CB         2.4640   35.6950   35.3230 C.3    54  LYS54       0.0311
     42  CG         1.5420   35.5530   34.1190 C.3    54  LYS54       0.0038
     43  CD         0.1640   36.0760   34.4070 C.3    54  LYS54       0.0206
     44  CE        -0.8280   35.6720   33.2910 C.3    54  LYS54       0.1093
     45  NZ        -0.9600   34.1840   33.1230 N.3    54  LYS54      -0.1314
     46  N          4.2820   38.3160   37.1910 N.am   55  PHE55      -0.1974
     47  CA         5.2310   38.4480   38.3070 C.3    55  PHE55       0.1639
     48  C          4.4810   38.8040   39.5940 C.2    55  PHE55       0.2290
     49  O          3.5530   39.6510   39.5880 O.2    55  PHE55      -0.2864
     50  CB         6.1850   39.6140   38.0750 C.3    55  PHE55       0.0560
     51  CG         7.2090   39.3670   37.0080 C.ar   55  PHE55      -0.0200
     52  CD1        7.3810   38.0870   36.4620 C.ar   55  PHE55      -0.0042
     53  CD2        7.9970   40.4170   36.5410 C.ar   55  PHE55      -0.0042
     54  CE1        8.3420   37.8580   35.4600 C.ar   55  PHE55      -0.0003
     55  CE2        8.9750   40.1800   35.5530 C.ar   55  PHE55      -0.0003
     56  CZ         9.1650   38.9110   35.0400 C.ar   55  PHE55      -0.0000
     57  N          8.7460   39.8280   43.2130 N.3    59  LEU59      -0.1245
     58  CA         9.6780   39.6910   42.0720 C.3    59  LEU59       0.1561
     59  C          9.7530   41.0110   41.2860 C.2    59  LEU59       0.2260
     60  O         10.8140   41.3920   40.8140 O.2    59  LEU59      -0.2867
     61  CB         9.2730   38.5180   41.1660 C.3    59  LEU59       0.0270
     62  CG        10.2180   38.3060   39.9680 C.3    59  LEU59       0.0019
     63  CD1       11.6480   37.9720   40.4270 C.3    59  LEU59       0.0001
     64  CD2        9.6650   37.1360   39.1350 C.3    59  LEU59       0.0001
     65  N         11.2150   37.8730   27.7560 N.3    71  ILE71      -0.1231
     66  CA        11.2210   36.4480   27.5930 C.3    71  ILE71       0.1692
     67  C         11.9720   36.0950   26.3370 C.2    71  ILE71       0.2591
     68  O         12.7450   35.1250   26.3370 O.2    71  ILE71      -0.2718
     69  CB         9.7730   35.8930   27.5190 C.3    71  ILE71       0.0266
     70  CG1        9.0990   36.1080   28.9030 C.3    71  ILE71       0.0019
     71  CG2        9.7900   34.4190   27.1580 C.3    71  ILE71       0.0020
     72  CD1        7.5180   35.9140   28.9200 C.3    71  ILE71       0.0001
     73  N         11.7220   36.8320   25.2370 N.am   72  GLU72      -0.1979
     74  CA        12.3660   36.4730   23.9740 C.3    72  GLU72       0.1602
     75  C         13.8650   36.8040   23.9580 C.2    72  GLU72       0.2287
     76  O         14.6600   36.0480   23.3800 O.2    72  GLU72      -0.2864
     77  CB        11.6600   37.1410   22.7890 C.3    72  GLU72       0.0415
     78  CG        10.1720   36.7630   22.7600 C.3    72  GLU72       0.1163
     79  CD         9.9510   35.2430   22.6860 C.2    72  GLU72       0.3649
     80  OE1       10.6710   34.5840   21.8940 O.co2  72  GLU72      -0.2457
     81  OE2        9.0860   34.7040   23.4390 O.co2  72  GLU72      -0.2457
     82  N         15.9490   36.9380   26.5930 N.3    74  LYS74      -0.1245
     83  CA        16.7120   36.3550   27.6820 C.3    74  LYS74       0.1561
     84  C         17.8780   35.5120   27.1780 C.2    74  LYS74       0.2260
     85  O         17.6970   34.6010   26.3460 O.2    74  LYS74      -0.2867
     86  CB        15.7990   35.4720   28.5430 C.3    74  LYS74       0.0271
     87  CG        16.4250   35.2510   29.9720 C.3    74  LYS74       0.0035
     88  CD        16.0660   36.4420   30.9350 C.3    74  LYS74       0.0206
     89  CE        14.5580   36.3940   31.3730 C.3    74  LYS74       0.1093
     90  NZ        14.2670   37.6470   32.1590 N.3    74  LYS74      -0.1314
     91  N         21.8080   32.2390   23.6650 N.3    82  GLN82      -0.1245
     92  CA        20.4220   31.8110   23.7840 C.3    82  GLN82       0.1566
     93  C         20.3010   30.2930   23.7210 C.2    82  GLN82       0.2260
     94  O         19.5930   29.6820   24.5410 O.2    82  GLN82      -0.2867
     95  CB        19.5400   32.4770   22.7290 C.3    82  GLN82       0.0367
     96  CG        18.5130   33.3520   23.3780 C.3    82  GLN82       0.0905
     97  CD        17.6750   34.1100   22.4020 C.2    82  GLN82       0.2608
     98  OE1       17.4300   33.6640   21.2670 O.2    82  GLN82      -0.2717
     99  NE2       17.2220   35.2770   22.8290 N.am   82  GLN82      -0.0878
    100  N         17.0190   25.7080   22.4910 N.3    85  ASN85      -0.1225
    101  CA        15.9220   25.0670   23.2010 C.3    85  ASN85       0.1785
    102  C         15.4050   25.8390   24.4300 C.2    85  ASN85       0.2597
    103  O         16.1170   25.9910   25.4270 O.2    85  ASN85      -0.2718
    104  CB        16.3150   23.6390   23.5760 C.3    85  ASN85       0.1169
    105  CG        15.1120   22.7700   23.8820 C.2    85  ASN85       0.2627
    106  OD1       13.9950   23.2750   24.0860 O.2    85  ASN85      -0.2716
    107  ND2       15.3270   21.4550   23.9250 N.am   85  ASN85      -0.0877
    108  N         14.1540   26.2960   24.3400 N.am   86  ALA86      -0.1966
    109  CA        13.5560   27.1600   25.3460 C.3    86  ALA86       0.1728
    110  C         13.1630   26.4150   26.6430 C.2    86  ALA86       0.2616
    111  O         13.0670   27.0260   27.7090 O.2    86  ALA86      -0.2715
    112  CB        12.3420   27.9110   24.7360 C.3    86  ALA86       0.0334
    113  N         12.9060   25.1120   26.5710 N.am   87  ASP87      -0.1971
    114  CA        12.5950   24.4050   27.8140 C.3    87  ASP87       0.1709
    115  C         13.8790   24.0380   28.5530 C.2    87  ASP87       0.2293
    116  O         13.8500   23.3370   29.5660 O.2    87  ASP87      -0.2864
    117  CB        11.7180   23.1660   27.5950 C.3    87  ASP87       0.1436
    118  CG        10.8690   22.8300   28.8280 C.2    87  ASP87       0.3671
    119  OD1       10.5650   23.7550   29.6300 O.co2  87  ASP87      -0.2456
    120  OD2       10.4870   21.6510   28.9800 O.co2  87  ASP87      -0.2456
    121  N         16.1870   26.6730   29.3070 N.3    89  MET89      -0.1230
    122  CA        16.6760   27.8350   30.0350 C.3    89  MET89       0.1702
    123  C         15.7570   28.1400   31.2270 C.2    89  MET89       0.2592
    124  O         14.6460   28.6730   31.0610 O.2    89  MET89      -0.2718
    125  CB        16.7950   29.0810   29.1160 C.3    89  MET89       0.0401
    126  CG        17.6110   30.2010   29.7550 C.3    89  MET89       0.0596
    127  SD        17.5370   31.7720   28.8840 S.3    89  MET89      -0.1393
    128  CE        18.5200   31.3520   27.4370 C.3    89  MET89       0.0692
    129  N         16.2510   27.8840   32.4380 N.am   90  LEU90      -0.1966
    130  CA        15.5260   28.2720   33.6630 C.3    90  LEU90       0.1728
    131  C         15.5290   29.7610   33.8950 C.2    90  LEU90       0.2616
    132  O         16.5080   30.4420   33.5630 O.2    90  LEU90      -0.2715
    133  CB        16.2290   27.6080   34.8670 C.3    90  LEU90       0.0311
    134  CG        16.2010   26.0860   34.8500 C.3    90  LEU90       0.0022
    135  CD1       17.2800   25.4930   35.7890 C.3    90  LEU90       0.0001
    136  CD2       14.8560   25.6530   35.3460 C.3    90  LEU90       0.0001
    137  N         14.4330   30.2780   34.4490 N.am   91  PHE91      -0.1960
    138  CA        14.3700   31.6790   34.8440 C.3    91  PHE91       0.1771
    139  C         14.3600   31.7230   36.3770 C.2    91  PHE91       0.2620
    140  O         13.5290   31.0580   37.0240 O.2    91  PHE91      -0.2715
    141  CB        13.0930   32.3710   34.3370 C.3    91  PHE91       0.0574
    142  CG        13.0560   32.6770   32.8260 C.ar   91  PHE91      -0.0200
    143  CD1       14.0760   32.2700   31.9660 C.ar   91  PHE91      -0.0042
    144  CD2       11.9870   33.4540   32.3310 C.ar   91  PHE91      -0.0042
    145  CE1       13.9920   32.5750   30.5810 C.ar   91  PHE91      -0.0003
    146  CE2       11.9150   33.7910   30.9430 C.ar   91  PHE91      -0.0003
    147  CZ        12.9150   33.3590   30.0930 C.ar   91  PHE91      -0.0000
    148  N         15.2830   32.5060   36.9490 N.am   92  CYS92      -0.1954
    149  CA        15.4050   32.5470   38.4000 C.3    92  CYS92       0.1843
    150  C         14.1650   33.1650   39.0750 C.2    92  CYS92       0.2625
    151  O         13.6690   34.2180   38.6880 O.2    92  CYS92      -0.2714
    152  CB        16.6950   33.3310   38.7730 C.3    92  CYS92       0.0997
    153  SG        16.8770   33.5450   40.5870 S.3    92  CYS92      -0.0797
    154  N         13.6790   32.5240   40.1440 N.am   93  ASP93      -0.1971
    155  CA        12.4810   33.0530   40.8100 C.3    93  ASP93       0.1709
    156  C         12.7570   34.2210   41.7740 C.2    93  ASP93       0.2293
    157  O         11.8260   34.7650   42.4120 O.2    93  ASP93      -0.2864
    158  CB        11.7810   31.8860   41.5640 C.3    93  ASP93       0.1436
    159  CG        11.0920   30.9430   40.5760 C.2    93  ASP93       0.3671
    160  OD1       10.4530   31.4380   39.6170 O.co2  93  ASP93      -0.2456
    161  OD2       11.1690   29.7120   40.7250 O.co2  93  ASP93      -0.2456
    162  N         14.8580   36.6830   38.0000 N.3    96  ASP96      -0.1239
    163  CA        14.4030   36.4230   36.6160 C.3    96  ASP96       0.1674
    164  C         15.5290   36.3010   35.5650 C.2    96  ASP96       0.2266
    165  O         15.2380   36.2580   34.3710 O.2    96  ASP96      -0.2867
    166  CB        13.3470   37.4550   36.1150 C.3    96  ASP96       0.1410
    167  CG        12.4180   36.8570   35.0540 C.2    96  ASP96       0.3668
    168  OD1       11.9570   35.7100   35.3380 O.co2  96  ASP96      -0.2456
    169  OD2       12.1400   37.4530   33.9990 O.co2  96  ASP96      -0.2456
    170  N         20.1180   24.8230   31.8090 N.3   101  MET101     -0.1245
    171  CA        20.3220   23.7490   32.8120 C.3   101  MET101      0.1570
    172  C         21.7790   23.2640   32.7750 C.2   101  MET101      0.2261
    173  O         22.3850   22.9840   33.8310 O.2   101  MET101     -0.2867
    174  CB        19.3460   22.6060   32.4990 C.3   101  MET101      0.0387
    175  CG        17.9170   22.9480   32.9630 C.3   101  MET101      0.0595
    176  SD        16.8020   21.6550   32.3960 S.3   101  MET101     -0.1393
    177  CE        15.2310   22.4890   32.5550 C.3   101  MET101      0.0692
    178  N         13.9260   19.2390   35.5910 N.3   111  MET111     -0.1231
    179  CA        13.2740   20.3820   36.2280 C.3   111  MET111      0.1687
    180  C         13.0880   20.2380   37.7490 C.2   111  MET111      0.2434
    181  O         12.5940   19.2020   38.2180 O.2   111  MET111     -0.2733
    182  CB        11.8970   20.5500   35.5970 C.3   111  MET111      0.0400
    183  CG        11.9890   21.0590   34.2080 C.3   111  MET111      0.0596
    184  SD        12.5690   22.7200   34.4690 S.3   111  MET111     -0.1393
    185  CE        11.0040   23.4910   34.9330 C.3   111  MET111      0.0692
    186  N         13.4640   21.2800   38.5220 N.am  112  PRO112     -0.2718
    187  CA        13.1310   21.3010   39.9590 C.3   112  PRO112      0.1535
    188  C         11.6270   21.2850   40.1730 C.2   112  PRO112      0.2598
    189  O         10.8650   21.8590   39.3750 O.2   112  PRO112     -0.2715
    190  CB        13.6830   22.6540   40.4340 C.3   112  PRO112      0.0310
    191  CG        14.7740   22.9920   39.4050 C.3   112  PRO112      0.0237
    192  CD        14.3410   22.4090   38.1200 C.3   112  PRO112      0.0939
    193  N         11.1890   20.6690   41.2620 N.am  113  LYS113     -0.1964
    194  CA         9.7540   20.5690   41.5190 C.3   113  LYS113      0.1728
    195  C          9.1560   21.9320   41.9560 C.2   113  LYS113      0.2616
    196  O          8.0370   22.3020   41.5860 O.2   113  LYS113     -0.2715
    197  CB         9.5050   19.5330   42.6090 C.3   113  LYS113      0.0311
    198  CG         8.0580   19.3940   42.9300 C.3   113  LYS113      0.0038
    199  CD         7.8530   18.5050   44.1300 C.3   113  LYS113      0.0206
    200  CE         8.5540   17.1710   43.9710 C.3   113  LYS113      0.1093
    201  NZ         8.0580   16.2450   45.0210 N.3   113  LYS113     -0.1314
    202  N          9.9110   22.6670   42.7550 N.am  114  GLY114     -0.1955
    203  CA         9.4020   23.9130   43.3050 C.3   114  GLY114      0.1869
    204  C         10.1030   25.1070   42.6780 C.2   114  GLY114      0.2309
    205  O         10.3650   25.1580   41.4520 O.2   114  GLY114     -0.2863
    206  N         13.1540   27.6680   41.7340 N.3   116  TRP116     -0.1241
    207  CA        14.5580   27.5240   41.4260 C.3   116  TRP116      0.1605
    208  C         15.1620   28.9240   41.5400 C.2   116  TRP116      0.2264
    209  O         14.5740   29.9070   41.0070 O.2   116  TRP116     -0.2867
    210  CB        14.7730   26.9590   39.9810 C.3   116  TRP116      0.0550
    211  CG        16.2390   26.8820   39.6600 C.ar  116  TRP116      0.0003
    212  CD1       17.1100   25.8780   40.0210 C.ar  116  TRP116      0.0946
    213  CD2       17.0100   27.8580   38.9710 C.ar  116  TRP116      0.0152
    214  NE1       18.3870   26.1850   39.6150 N.ar  116  TRP116     -0.2442
    215  CE2       18.3550   27.3810   38.9370 C.ar  116  TRP116      0.0810
    216  CE3       16.6810   29.0550   38.3320 C.ar  116  TRP116      0.0012
    217  CZ2       19.3980   28.1100   38.3390 C.ar  116  TRP116      0.0191
    218  CZ3       17.7230   29.8040   37.7010 C.ar  116  TRP116      0.0001
    219  CH2       19.0640   29.3210   37.7390 C.ar  116  TRP116      0.0015
@<TRIPOS>BOND
     1    98    97    2
     2    80    79   ar
     3    97    99   am
     4    97    96    1
     5   100   101    1
     6    79    78    1
     7    79    81   ar
     8    95    96    1
     9    95    92    1
    10    78    77    1
    11    77    74    1
    12   101   104    1
    13   101   102    1
    14    76    75    2
    15   104   105    1
    16    91    92    1
    17    93    92    1
    18    93    94    2
    19   105   107   am
    20   105   106    2
    21    75    74    1
    22    74    73    1
    23   108   102   am
    24   108   109    1
    25   102   103    2
    26   112   109    1
    27     4     3    2
    28    73    67   am
    29   109   110    1
    30     3     2    1
    31     1     2    1
    32     2     5    1
    33    68    67    2
    34    67    66    1
    35    85    84    2
    36   113   110   am
    37   113   114    1
    38    82    83    1
    39   110   111    2
    40     7     9   ar
    41     7     6   ar
    42    71    69    1
    43    84    83    1
    44     9    11   ar
    45   128   127    1
    46     5     6    1
    47    22    20    1
    48    69    66    1
    49    69    70    1
    50    66    65    1
    51   117   114    1
    52   117   118    1
    53     6     8   ar
    54    83    86    1
    55   114   115    1
    56    11    10   ar
    57     8    10   ar
    58    86    87    1
    59   115   116    2
    60    20    19    2
    61    20    21    1
    62   118   120   ar
    63   118   119   ar
    64   127   126    1
    65    70    72    1
    66    19    18    1
    67   125   126    1
    68   125   122    1
    69   121   122    1
    70    87    88    1
    71   122   123    1
    72   147   145   ar
    73   147   146   ar
    74    18    17    1
    75    17    16    1
    76   145   143   ar
    77    88    89    1
    78   146   144   ar
    79    28    27    1
    80   124   123    2
    81    27    24    1
    82    36    34    1
    83   123   129   am
    84    89    90    1
    85    26    25    2
    86    16    13    1
    87    13    12    1
    88    13    14    1
    89   170   171    1
    90   143   142   ar
    91    15    14    2
    92    34    35    1
    93    34    33    1
    94    25    24    1
    95    25    29   am
    96   144   142   ar
    97    24    23    1
    98   176   177    1
    99   176   175    1
   100   129   130    1
   101   174   171    1
   102   174   175    1
   103   172   171    1
   104   172   173    2
   105   142   141    1
   106    29    30    1
   107    30    33    1
   108    30    31    1
   109    45    44    1
   110    44    43    1
   111   132   131    2
   112   130   131    1
   113   130   133    1
   114   131   137   am
   115    31    32    2
   116    31    37   am
   117   169   167   ar
   118    42    43    1
   119    42    41    1
   120   183   184    1
   121   183   182    1
   122   141   138    1
   123   165   164    2
   124   137   138    1
   125   184   185    1
   126    37    38    1
   127   138   139    1
   128   134   133    1
   129   134   136    1
   130   134   135    1
   131    56    54   ar
   132    56    55   ar
   133   167   168   ar
   134   167   166    1
   135    41    38    1
   136    54    52   ar
   137    55    53   ar
   138   164   163    1
   139   178   179    1
   140   182   179    1
   141    38    39    1
   142   166   163    1
   143   179   180    1
   144   139   148   am
   145   139   140    2
   146    52    51   ar
   147    53    51   ar
   148   163   162    1
   149    39    46   am
   150    39    40    2
   151   148   149    1
   152    51    50    1
   153    46    47    1
   154   218   219   ar
   155   218   216   ar
   156   219   217   ar
   157   180   181    2
   158   180   186   am
   159    50    47    1
   160   192   186    1
   161   192   191    1
   162    47    48    1
   163   216   213   ar
   164   217   215   ar
   165   149   152    1
   166   149   150    1
   167   186   187    1
   168   151   150    2
   169   152   153    1
   170   215   213   ar
   171   215   214   ar
   172   213   211   ar
   173   150   154   am
   174    64    62    1
   175   189   188    2
   176   191   190    1
   177    49    48    2
   178   214   212   ar
   179   160   159   ar
   180   211   210    1
   181   211   212   ar
   182   187   188    1
   183   187   190    1
   184    62    63    1
   185    62    61    1
   186   210   207    1
   187   154   155    1
   188   188   193   am
   189   159   161   ar
   190   159   158    1
   191   155   158    1
   192   155   156    1
   193    60    59    2
   194   209   208    2
   195    61    58    1
   196   193   194    1
   197    59    58    1
   198   207   208    1
   199   207   206    1
   200   205   204    2
   201   194   195    1
   202   194   197    1
   203   196   195    2
   204   156   157    2
   205   195   202   am
   206    58    57    1
   207   197   198    1
   208   204   203    1
   209   202   203    1
   210   198   199    1
   211   200   199    1
   212   200   201    1
