@<TRIPOS>MOLECULE
tmp/4lkaA00.pdb
 166 160 0 0 0
SMALL
GASTEIGER

@<TRIPOS>ATOM
      1  N        -30.9370    3.0970  -11.0880 N.3    55  PHE55      -0.1241
      2  CA       -29.9870    3.2680   -9.9960 C.3    55  PHE55       0.1605
      3  C        -30.7190    3.6500   -8.7190 C.2    55  PHE55       0.2264
      4  O        -31.6510    4.4590   -8.7480 O.2    55  PHE55      -0.2867
      5  CB       -29.0180    4.4130  -10.3040 C.3    55  PHE55       0.0534
      6  CG       -28.0050    4.1040  -11.3730 C.ar   55  PHE55      -0.0203
      7  CD1      -27.8710    2.8260  -11.9020 C.ar   55  PHE55      -0.0042
      8  CD2      -27.1730    5.1120  -11.8370 C.ar   55  PHE55      -0.0042
      9  CE1      -26.9250    2.5610  -12.8890 C.ar   55  PHE55      -0.0003
     10  CE2      -26.2230    4.8570  -12.8240 C.ar   55  PHE55      -0.0003
     11  CZ       -26.0950    3.5790  -13.3420 C.ar   55  PHE55      -0.0000
     12  N        -26.3530    4.6510   -5.0990 N.3    59  LEU59      -0.1245
     13  CA       -25.4740    4.4540   -6.2390 C.3    59  LEU59       0.1561
     14  C        -25.4040    5.7370   -7.0620 C.2    59  LEU59       0.2260
     15  O        -24.3450    6.0930   -7.5520 O.2    59  LEU59      -0.2867
     16  CB       -25.9140    3.2700   -7.1130 C.3    59  LEU59       0.0270
     17  CG       -25.0270    3.0100   -8.3420 C.3    59  LEU59       0.0019
     18  CD1      -23.6080    2.7160   -7.9220 C.3    59  LEU59       0.0001
     19  CD2      -25.5800    1.8480   -9.1670 C.3    59  LEU59       0.0001
     20  N        -24.0500    2.6410  -20.5380 N.3    71  ILE71      -0.1231
     21  CA       -24.0680    1.2000  -20.7220 C.3    71  ILE71       0.1692
     22  C        -23.3230    0.8130  -21.9900 C.2    71  ILE71       0.2591
     23  O        -22.5410   -0.1380  -21.9940 O.2    71  ILE71      -0.2718
     24  CB       -25.5160    0.6630  -20.7550 C.3    71  ILE71       0.0266
     25  CG1      -26.1710    0.8720  -19.3800 C.3    71  ILE71       0.0019
     26  CG2      -25.5370   -0.8040  -21.1410 C.3    71  ILE71       0.0020
     27  CD1      -27.6860    0.6700  -19.3640 C.3    71  ILE71       0.0001
     28  N        -23.5430    1.5630  -23.0670 N.am   72  GLU72      -0.1979
     29  CA       -22.9270    1.2320  -24.3400 C.3    72  GLU72       0.1602
     30  C        -21.4350    1.5540  -24.3750 C.2    72  GLU72       0.2287
     31  O        -20.6590    0.8270  -24.9970 O.2    72  GLU72      -0.2864
     32  CB       -23.6610    1.9440  -25.4810 C.3    72  GLU72       0.0415
     33  CG       -25.1360    1.5570  -25.5640 C.3    72  GLU72       0.1163
     34  CD       -25.3300    0.0590  -25.6710 C.2    72  GLU72       0.3649
     35  OE1      -24.6110   -0.5740  -26.4700 O.co2  72  GLU72      -0.2457
     36  OE2      -26.1940   -0.4930  -24.9530 O.co2  72  GLU72      -0.2457
     37  N        -19.3330    1.6840  -21.7510 N.3    74  LYS74      -0.1245
     38  CA       -18.5600    1.0960  -20.6600 C.3    74  LYS74       0.1561
     39  C        -17.4070    0.2390  -21.1650 C.2    74  LYS74       0.2260
     40  O        -17.5970   -0.6550  -21.9980 O.2    74  LYS74      -0.2867
     41  CB       -19.4640    0.2480  -19.7630 C.3    74  LYS74       0.0271
     42  CG       -18.8720    0.0220  -18.3580 C.3    74  LYS74       0.0035
     43  CD       -19.1990    1.1890  -17.4420 C.3    74  LYS74       0.0206
     44  CE       -20.6640    1.1570  -16.9930 C.3    74  LYS74       0.1093
     45  NZ       -20.9720    2.3630  -16.1640 N.3    74  LYS74      -0.1314
     46  N        -13.5760   -3.2240  -24.6850 N.3    82  GLN82      -0.1245
     47  CA       -14.9640   -3.6290  -24.5160 C.3    82  GLN82       0.1566
     48  C        -15.1170   -5.1410  -24.6130 C.2    82  GLN82       0.2260
     49  O        -15.8210   -5.7510  -23.8050 O.2    82  GLN82      -0.2867
     50  CB       -15.8810   -2.9270  -25.5220 C.3    82  GLN82       0.0367
     51  CG       -16.4180   -1.5970  -25.0220 C.3    82  GLN82       0.0905
     52  CD       -17.5530   -1.0710  -25.8710 C.2    82  GLN82       0.2608
     53  OE1      -17.9380   -1.6840  -26.8690 O.2    82  GLN82      -0.2717
     54  NE2      -18.0980    0.0690  -25.4790 N.am   82  GLN82      -0.0878
     55  N        -21.2210   -8.9090  -23.9890 N.3    86  ALA86      -0.1231
     56  CA       -21.7400   -8.0140  -22.9610 C.3    86  ALA86       0.1694
     57  C        -22.0640   -8.7470  -21.6570 C.2    86  ALA86       0.2592
     58  O        -22.0440   -8.1490  -20.5860 O.2    86  ALA86      -0.2718
     59  CB       -22.9630   -7.2690  -23.4740 C.3    86  ALA86       0.0304
     60  N        -22.3650  -10.0400  -21.7350 N.am   87  ASP87      -0.1974
     61  CA       -22.6540  -10.7610  -20.4960 C.3    87  ASP87       0.1709
     62  C        -21.3800  -11.1580  -19.7580 C.2    87  ASP87       0.2293
     63  O        -21.4320  -11.8250  -18.7270 O.2    87  ASP87      -0.2864
     64  CB       -23.5510  -11.9790  -20.7190 C.3    87  ASP87       0.1436
     65  CG       -24.2880  -12.3940  -19.4510 C.2    87  ASP87       0.3671
     66  OD1      -24.7620  -11.4990  -18.7130 O.co2  87  ASP87      -0.2456
     67  OD2      -24.3870  -13.6110  -19.1910 O.co2  87  ASP87      -0.2456
     68  N        -19.0630   -8.5900  -19.0280 N.3    89  MET89      -0.1230
     69  CA       -18.6190   -7.4050  -18.2940 C.3    89  MET89       0.1702
     70  C        -19.5410   -7.1110  -17.1190 C.2    89  MET89       0.2592
     71  O        -20.6680   -6.6570  -17.3110 O.2    89  MET89      -0.2718
     72  CB       -18.5200   -6.1670  -19.1990 C.3    89  MET89       0.0401
     73  CG       -17.7310   -5.0350  -18.5410 C.3    89  MET89       0.0596
     74  SD       -17.7640   -3.4860  -19.4670 S.3    89  MET89      -0.1393
     75  CE       -16.7570   -3.9280  -20.8810 C.3    89  MET89       0.0692
     76  N        -19.0490   -7.3770  -15.9110 N.am   90  LEU90      -0.1966
     77  CA       -19.7460   -7.0330  -14.6760 C.3    90  LEU90       0.1728
     78  C        -19.7410   -5.5250  -14.4660 C.2    90  LEU90       0.2616
     79  O        -18.7560   -4.8560  -14.7810 O.2    90  LEU90      -0.2715
     80  CB       -19.0320   -7.6850  -13.4900 C.3    90  LEU90       0.0311
     81  CG       -19.0790   -9.2100  -13.4520 C.3    90  LEU90       0.0022
     82  CD1      -18.0080   -9.7400  -12.5160 C.3    90  LEU90       0.0001
     83  CD2      -20.4300   -9.6390  -12.9630 C.3    90  LEU90       0.0001
     84  N        -20.8370   -4.9940  -13.9280 N.am   91  PHE91      -0.1960
     85  CA       -20.8980   -3.5960  -13.5040 C.3    91  PHE91       0.1771
     86  C        -20.8970   -3.5670  -11.9790 C.2    91  PHE91       0.2620
     87  O        -21.7250   -4.2220  -11.3390 O.2    91  PHE91      -0.2715
     88  CB       -22.1900   -2.9230  -14.0090 C.3    91  PHE91       0.0574
     89  CG       -22.2140   -2.5920  -15.4970 C.ar   91  PHE91      -0.0200
     90  CD1      -21.1910   -2.9690  -16.3650 C.ar   91  PHE91      -0.0042
     91  CD2      -23.2880   -1.8700  -16.0160 C.ar   91  PHE91      -0.0042
     92  CE1      -21.2560   -2.6440  -17.7270 C.ar   91  PHE91      -0.0003
     93  CE2      -23.3610   -1.5400  -17.3630 C.ar   91  PHE91      -0.0003
     94  CZ       -22.3390   -1.9210  -18.2280 C.ar   91  PHE91      -0.0000
     95  N        -19.9760   -2.8040  -11.3940 N.am   92  CYS92      -0.1954
     96  CA       -19.8590   -2.7300   -9.9380 C.3    92  CYS92       0.1843
     97  C        -21.0900   -2.1080   -9.2680 C.2    92  CYS92       0.2625
     98  O        -21.5700   -1.0480   -9.6770 O.2    92  CYS92      -0.2714
     99  CB       -18.6060   -1.9210   -9.5720 C.3    92  CYS92       0.0997
    100  SG       -18.3540   -1.7220   -7.7830 S.3    92  CYS92      -0.0797
    101  N        -21.5920   -2.7480   -8.2150 N.am   93  ASP93      -0.1971
    102  CA       -22.7760   -2.2330   -7.5310 C.3    93  ASP93       0.1709
    103  C        -22.4730   -1.0820   -6.5750 C.2    93  ASP93       0.2293
    104  O        -23.3820   -0.5320   -5.9410 O.2    93  ASP93      -0.2864
    105  CB       -23.4940   -3.3820   -6.8090 C.3    93  ASP93       0.1436
    106  CG       -24.1840   -4.3170   -7.7910 C.2    93  ASP93       0.3671
    107  OD1      -24.8130   -3.8090   -8.7480 O.co2  93  ASP93      -0.2456
    108  OD2      -24.1030   -5.5460   -7.6300 O.co2  93  ASP93      -0.2456
    109  N        -20.3970    1.4210  -10.3500 N.3    96  ASP96      -0.1239
    110  CA       -20.8240    1.1530  -11.7370 C.3    96  ASP96       0.1674
    111  C        -19.7150    1.0290  -12.7780 C.2    96  ASP96       0.2266
    112  O        -20.0090    1.0180  -13.9660 O.2    96  ASP96      -0.2867
    113  CB       -21.8780    2.1660  -12.2440 C.3    96  ASP96       0.1410
    114  CG       -22.8330    1.5500  -13.2570 C.2    96  ASP96       0.3668
    115  OD1      -23.3190    0.4300  -12.9920 O.co2  96  ASP96      -0.2456
    116  OD2      -23.0980    2.1590  -14.3250 O.co2  96  ASP96      -0.2456
    117  N        -15.0990  -10.4610  -16.5530 N.3   101  MET101     -0.1245
    118  CA       -14.9040  -11.5270  -15.5760 C.3   101  MET101      0.1570
    119  C        -13.4660  -12.0330  -15.5830 C.2   101  MET101      0.2261
    120  O        -12.8910  -12.2910  -14.5270 O.2   101  MET101     -0.2867
    121  CB       -15.8770  -12.6690  -15.8580 C.3   101  MET101      0.0387
    122  CG       -17.3000  -12.3420  -15.4770 C.3   101  MET101      0.0595
    123  SD       -18.4100  -13.6410  -16.0180 S.3   101  MET101     -0.1393
    124  CE       -19.9470  -12.9880  -15.3900 C.3   101  MET101      0.0692
    125  N        -21.3180  -16.1410  -12.6260 N.3   111  MET111     -0.1231
    126  CA       -21.9480  -14.9370  -12.1000 C.3   111  MET111      0.1687
    127  C        -22.1490  -15.0100  -10.5880 C.2   111  MET111      0.2434
    128  O        -22.6250  -16.0260  -10.0800 O.2   111  MET111     -0.2733
    129  CB       -23.3050  -14.7520  -12.7760 C.3   111  MET111      0.0400
    130  CG       -23.2120  -14.1830  -14.1640 C.3   111  MET111      0.0596
    131  SD       -22.9300  -12.4160  -14.0190 S.3   111  MET111     -0.1393
    132  CE       -24.6120  -11.8030  -13.8240 C.3   111  MET111      0.0692
    133  N        -21.7760  -13.9420   -9.8590 N.am  112  PRO112     -0.2718
    134  CA       -22.0830  -13.9060   -8.4220 C.3   112  PRO112      0.1535
    135  C        -23.5950  -13.9190   -8.2090 C.2   112  PRO112      0.2598
    136  O        -24.3370  -13.3910   -9.0370 O.2   112  PRO112     -0.2715
    137  CB       -21.4970  -12.5600   -7.9750 C.3   112  PRO112      0.0310
    138  CG       -20.4030  -12.2840   -8.9710 C.3   112  PRO112      0.0237
    139  CD       -20.9180  -12.8140  -10.2720 C.3   112  PRO112      0.0939
    140  N        -24.0500  -14.5130   -7.1120 N.am  113  LYS113     -0.1964
    141  CA       -25.4850  -14.6270   -6.8610 C.3   113  LYS113      0.1728
    142  C        -26.1010  -13.2960   -6.4290 C.2   113  LYS113      0.2616
    143  O        -27.1970  -12.9350   -6.8580 O.2   113  LYS113     -0.2715
    144  CB       -25.7550  -15.6900   -5.8010 C.3   113  LYS113      0.0311
    145  CG       -27.2250  -16.0140   -5.6220 C.3   113  LYS113      0.0038
    146  CD       -27.4540  -16.8030   -4.3500 C.3   113  LYS113      0.0206
    147  CE       -26.5400  -18.0160   -4.2830 C.3   113  LYS113      0.1093
    148  NZ       -26.9270  -18.9350   -3.1800 N.3   113  LYS113     -0.1314
    149  N        -25.3890  -12.5730   -5.5750 N.am  114  GLY114     -0.1955
    150  CA       -25.8830  -11.3100   -5.0700 C.3   114  GLY114      0.1869
    151  C        -25.1470  -10.1480   -5.6930 C.2   114  GLY114      0.2309
    152  O        -24.8920  -10.1190   -6.9060 O.2   114  GLY114     -0.2863
    153  N        -22.1090   -7.6120   -6.6620 N.3   116  TRP116     -0.1241
    154  CA       -20.7010   -7.7300   -6.9710 C.3   116  TRP116      0.1605
    155  C        -20.1010   -6.3440   -6.8530 C.2   116  TRP116      0.2264
    156  O        -20.6500   -5.3680   -7.3890 O.2   116  TRP116     -0.2867
    157  CB       -20.4770   -8.2750   -8.3950 C.3   116  TRP116      0.0550
    158  CG       -19.0220   -8.3760   -8.6990 C.ar  116  TRP116      0.0003
    159  CD1      -18.1690   -9.3750   -8.3200 C.ar  116  TRP116      0.0946
    160  CD2      -18.2360   -7.4190   -9.4040 C.ar  116  TRP116      0.0152
    161  NE1      -16.8950   -9.0930   -8.7560 N.ar  116  TRP116     -0.2442
    162  CE2      -16.9120   -7.8990   -9.4280 C.ar  116  TRP116      0.0810
    163  CE3      -18.5250   -6.2040  -10.0260 C.ar  116  TRP116      0.0012
    164  CZ2      -15.8720   -7.1980  -10.0550 C.ar  116  TRP116      0.0191
    165  CZ3      -17.4880   -5.5050  -10.6560 C.ar  116  TRP116      0.0001
    166  CH2      -16.1820   -6.0030  -10.6520 C.ar  116  TRP116      0.0015
@<TRIPOS>BOND
     1    53    52    2
     2    35    34   ar
     3    52    54   am
     4    52    51    1
     5    34    33    1
     6    34    36   ar
     7    33    32    1
     8    50    51    1
     9    50    47    1
    10    32    29    1
    11    31    30    2
    12    46    47    1
    13    48    47    1
    14    48    49    2
    15    30    29    1
    16    29    28    1
    17    55    56    1
    18    59    56    1
    19    28    22   am
    20    56    57    1
    21    40    39    2
    22    23    22    2
    23    22    21    1
    24    37    38    1
    25    60    57   am
    26    60    61    1
    27    57    58    2
    28    39    38    1
    29    26    24    1
    30    75    74    1
    31    24    21    1
    32    24    25    1
    33    21    20    1
    34    64    61    1
    35    64    65    1
    36    38    41    1
    37    61    62    1
    38    41    42    1
    39    62    63    2
    40    74    73    1
    41    65    67   ar
    42    65    66   ar
    43    25    27    1
    44    72    73    1
    45    72    69    1
    46    68    69    1
    47    42    43    1
    48    69    70    1
    49    94    92   ar
    50    94    93   ar
    51    92    90   ar
    52    43    44    1
    53    93    91   ar
    54    71    70    2
    55    70    76   am
    56    44    45    1
    57   117   118    1
    58    90    89   ar
    59   123   122    1
    60   123   124    1
    61    91    89   ar
    62    76    77    1
    63   121   118    1
    64   121   122    1
    65   119   118    1
    66   119   120    2
    67    89    88    1
    68    79    78    2
    69    77    78    1
    70    77    80    1
    71    78    84   am
    72   116   114   ar
    73   130   131    1
    74   130   129    1
    75   131   132    1
    76    88    85    1
    77   112   111    2
    78    84    85    1
    79    85    86    1
    80    80    81    1
    81    81    83    1
    82    81    82    1
    83    11     9   ar
    84    11    10   ar
    85   114   115   ar
    86   114   113    1
    87     9     7   ar
    88    10     8   ar
    89   111   110    1
    90   129   126    1
    91   125   126    1
    92   113   110    1
    93   126   127    1
    94    86    95   am
    95    86    87    2
    96     7     6   ar
    97     8     6   ar
    98   110   109    1
    99    95    96    1
   100     6     5    1
   101     1     2    1
   102   165   166   ar
   103   165   163   ar
   104   166   164   ar
   105   127   128    2
   106   127   133   am
   107     5     2    1
   108   139   133    1
   109   139   138    1
   110   164   162   ar
   111   163   160   ar
   112     2     3    1
   113    96    99    1
   114    96    97    1
   115   133   134    1
   116    98    97    2
   117    99   100    1
   118   162   160   ar
   119   162   161   ar
   120   160   158   ar
   121    97   101   am
   122    19    17    1
   123   136   135    2
   124   138   137    1
   125   161   159   ar
   126   107   106   ar
   127     4     3    2
   128   158   157    1
   129   158   159   ar
   130   134   135    1
   131   134   137    1
   132   157   154    1
   133    17    18    1
   134    17    16    1
   135   101   102    1
   136   135   140   am
   137   106   108   ar
   138   106   105    1
   139    15    14    2
   140   102   105    1
   141   102   103    1
   142   156   155    2
   143    16    13    1
   144   140   141    1
   145    14    13    1
   146   154   155    1
   147   154   153    1
   148   152   151    2
   149   141   142    1
   150   141   144    1
   151   143   142    2
   152   103   104    2
   153   142   149   am
   154    13    12    1
   155   144   145    1
   156   151   150    1
   157   145   146    1
   158   149   150    1
   159   146   147    1
   160   147   148    1
