@<TRIPOS>MOLECULE
tmp/4lkgE00.pdb
 121 114 0 0 0
SMALL
GASTEIGER

@<TRIPOS>ATOM
      1  N         35.0050   19.2370   37.5030 N.3    88  TYR88      -0.1241
      2  CA        35.2650   20.2610   38.5050 C.3    88  TYR88       0.1605
      3  C         36.0410   21.3720   37.8040 C.2    88  TYR88       0.2264
      4  O         37.0730   21.1050   37.1870 O.2    88  TYR88      -0.2867
      5  CB        36.0790   19.6770   39.6600 C.3    88  TYR88       0.0534
      6  CG        36.2580   20.6030   40.8460 C.ar   88  TYR88      -0.0201
      7  CD1       35.4850   20.4560   41.9890 C.ar   88  TYR88      -0.0009
      8  CD2       37.2110   21.6150   40.8270 C.ar   88  TYR88      -0.0009
      9  CE1       35.6510   21.2930   43.0790 C.ar   88  TYR88       0.0417
     10  CE2       37.3860   22.4580   41.9100 C.ar   88  TYR88       0.0417
     11  CZ        36.6030   22.2930   43.0340 C.ar   88  TYR88       0.1957
     12  OH        36.7700   23.1280   44.1170 O.3    88  TYR88      -0.2866
     13  N         38.4550   11.5230   47.6790 N.3   124  GLY124     -0.1210
     14  CA        37.7800   12.8020   47.5640 C.3   124  GLY124      0.1956
     15  C         36.8090   12.8220   46.4000 C.2   124  GLY124      0.2612
     16  O         37.0540   12.1860   45.3780 O.2   124  GLY124     -0.2717
     17  N         35.7050   13.5460   46.5480 N.am  125  ALA125     -0.1965
     18  CA        34.6880   13.5910   45.5000 C.3   125  ALA125      0.1728
     19  C         33.9380   14.9170   45.4790 C.2   125  ALA125      0.2617
     20  O         34.1160   15.7570   46.3600 O.2   125  ALA125     -0.2715
     21  CB        33.7160   12.4300   45.6510 C.3   125  ALA125      0.0334
     22  N         33.0920   15.0940   44.4680 N.am  126  THR126     -0.1937
     23  CA        32.3770   16.3490   44.2790 C.3   126  THR126      0.2028
     24  C         31.0790   16.1470   43.5100 C.2   126  THR126      0.2642
     25  O         30.9520   15.2150   42.7180 O.2   126  THR126     -0.2714
     26  CB        33.2450   17.3820   43.5320 C.3   126  THR126      0.1808
     27  OG1       32.4970   18.5900   43.3450 O.3   126  THR126     -0.2208
     28  CG2       33.6750   16.8440   42.1740 C.3   126  THR126      0.0379
     29  N         30.1210   17.0360   43.7450 N.am  127  SER127     -0.1949
     30  CA        28.8240   16.9640   43.0840 C.3   127  SER127      0.1924
     31  C         28.9360   17.3190   41.6070 C.2   127  SER127      0.2314
     32  O         28.0040   17.0950   40.8360 O.2   127  SER127     -0.2863
     33  CB        27.8250   17.9000   43.7690 C.3   127  SER127      0.2116
     34  OG        28.2760   19.2450   43.7230 O.3   127  SER127     -0.2180
     35  N         27.9670   12.0180   43.7890 N.3   134  SER134     -0.1217
     36  CA        29.2710   12.6710   43.7910 C.3   134  SER134      0.1889
     37  C         30.4080   11.7040   43.4710 C.2   134  SER134      0.2288
     38  O         30.4030   10.5510   43.9090 O.2   134  SER134     -0.2866
     39  CB        29.5300   13.3650   45.1280 C.3   134  SER134      0.2089
     40  OG        28.5280   14.3280   45.3970 O.3   134  SER134     -0.2183
     41  N         41.9140   12.4350   44.6760 N.3   142  TRP142     -0.1241
     42  CA        41.8040   13.6550   45.4690 C.3   142  TRP142      0.1605
     43  C         42.2940   13.4200   46.8940 C.2   142  TRP142      0.2264
     44  O         41.4980   13.1680   47.8030 O.2   142  TRP142     -0.2867
     45  CB        40.3650   14.1850   45.4680 C.3   142  TRP142      0.0550
     46  CG        40.2580   15.6270   45.8870 C.ar  142  TRP142      0.0003
     47  CD1       41.2270   16.3830   46.4870 C.ar  142  TRP142      0.0946
     48  CD2       39.1240   16.4890   45.7230 C.ar  142  TRP142      0.0152
     49  NE1       40.7640   17.6570   46.7150 N.ar  142  TRP142     -0.2442
     50  CE2       39.4780   17.7480   46.2540 C.ar  142  TRP142      0.0810
     51  CE3       37.8440   16.3160   45.1860 C.ar  142  TRP142      0.0012
     52  CZ2       38.5960   18.8290   46.2600 C.ar  142  TRP142      0.0191
     53  CZ3       36.9720   17.3910   45.1920 C.ar  142  TRP142      0.0001
     54  CH2       37.3530   18.6320   45.7260 C.ar  142  TRP142      0.0015
     55  N         43.2150   13.7850   50.4940 N.3   144  LEU144     -0.1245
     56  CA        42.5530   14.6100   51.4800 C.3   144  LEU144      0.1561
     57  C         43.1090   14.2730   52.8530 C.2   144  LEU144      0.2260
     58  O         43.5150   13.1370   53.0990 O.2   144  LEU144     -0.2867
     59  CB        41.0530   14.3280   51.4340 C.3   144  LEU144      0.0270
     60  CG        40.1090   15.3950   51.9740 C.3   144  LEU144      0.0019
     61  CD1       40.2310   16.6590   51.1460 C.3   144  LEU144      0.0001
     62  CD2       38.6820   14.8820   51.9660 C.3   144  LEU144      0.0001
     63  N         44.7970   21.8820   43.5390 N.3   174  HIS174     -0.1241
     64  CA        43.4780   22.3400   43.9590 C.3   174  HIS174      0.1621
     65  C         43.5360   23.6840   44.6710 C.2   174  HIS174      0.2264
     66  O         44.1210   23.8060   45.7480 O.2   174  HIS174     -0.2867
     67  CB        42.7930   21.3170   44.8640 C.3   174  HIS174      0.0745
     68  CG        41.5250   21.8160   45.4790 C.ar  174  HIS174      0.0817
     69  ND1       41.2520   21.7030   46.8230 N.ar  174  HIS174     -0.2268
     70  CD2       40.4560   22.4500   44.9330 C.ar  174  HIS174      0.1154
     71  CE1       40.0690   22.2340   47.0810 C.ar  174  HIS174      0.1986
     72  NE2       39.5670   22.6940   45.9480 N.ar  174  HIS174     -0.2212
     73  N         41.3980   26.2840   46.6470 N.3   176  SER176     -0.1217
     74  CA        40.1460   26.3360   47.3940 C.3   176  SER176      0.1889
     75  C         39.4770   27.7020   47.2690 C.2   176  SER176      0.2288
     76  O         40.1180   28.6890   46.9050 O.2   176  SER176     -0.2866
     77  CB        40.3870   26.0010   48.8650 C.3   176  SER176      0.2089
     78  OG        41.0640   24.7640   48.9950 O.3   176  SER176     -0.2183
     79  N         38.0760   26.6150   54.0490 N.3   181  GLU181     -0.1245
     80  CA        37.9340   25.2570   53.5320 C.3   181  GLU181      0.1567
     81  C         39.2750   24.6350   53.1410 C.2   181  GLU181      0.2260
     82  O         39.3990   23.4110   53.0780 O.2   181  GLU181     -0.2867
     83  CB        36.9670   25.2150   52.3460 C.3   181  GLU181      0.0388
     84  CG        37.4320   26.0090   51.1400 C.3   181  GLU181      0.1160
     85  CD        36.7050   25.6060   49.8740 C.2   181  GLU181      0.3649
     86  OE1       36.5180   24.3890   49.6640 O.co2 181  GLU181     -0.2457
     87  OE2       36.3120   26.5010   49.0960 O.co2 181  GLU181     -0.2457
     88  N         40.4490   23.1290   56.2000 N.3   184  LYS184     -0.1231
     89  CA        39.4410   22.1040   56.4460 C.3   184  LYS184      0.1693
     90  C         39.7290   20.8170   55.6590 C.2   184  LYS184      0.2591
     91  O         39.2680   19.7350   56.0250 O.2   184  LYS184     -0.2718
     92  CB        38.0550   22.6630   56.0990 C.3   184  LYS184      0.0285
     93  CG        36.8850   21.7340   56.3730 C.3   184  LYS184      0.0035
     94  CD        36.4280   21.0440   55.1000 C.3   184  LYS184      0.0206
     95  CE        35.4050   19.9590   55.3900 C.3   184  LYS184      0.1093
     96  NZ        34.0990   20.5230   55.8320 N.3   184  LYS184     -0.1314
     97  N         40.5050   20.9420   54.5870 N.am  185  LEU185     -0.1980
     98  CA        40.7880   19.8130   53.7070 C.3   185  LEU185      0.1596
     99  C         42.2360   19.3400   53.7740 C.2   185  LEU185      0.2287
    100  O         42.5280   18.1810   53.4810 O.2   185  LEU185     -0.2864
    101  CB        40.4400   20.1710   52.2600 C.3   185  LEU185      0.0297
    102  CG        38.9650   20.4020   51.9380 C.3   185  LEU185      0.0022
    103  CD1       38.7690   20.5550   50.4370 C.3   185  LEU185      0.0001
    104  CD2       38.1200   19.2660   52.4830 C.3   185  LEU185      0.0001
    105  N         28.8290   25.1880   40.3030 N.3   216  GLY216     -0.1210
    106  CA        28.5120   25.0360   41.7130 C.3   216  GLY216      0.1956
    107  C         29.6780   25.2890   42.6500 C.2   216  GLY216      0.2611
    108  O         29.5020   25.3790   43.8660 O.2   216  GLY216     -0.2717
    109  N         30.8740   25.4150   42.0850 N.am  217  GLN217     -0.1979
    110  CA        32.0840   25.5170   42.8920 C.3   217  GLN217      0.1601
    111  C         32.7620   26.8820   42.7980 C.2   217  GLN217      0.2287
    112  O         32.6810   27.5650   41.7740 O.2   217  GLN217     -0.2864
    113  CB        33.0700   24.4150   42.4990 C.3   217  GLN217      0.0394
    114  CG        32.4640   23.0180   42.4850 C.3   217  GLN217      0.0908
    115  CD        32.1790   22.4840   43.8780 C.2   217  GLN217      0.2608
    116  OE1       32.6000   23.0670   44.8800 O.2   217  GLN217     -0.2717
    117  NE2       31.4610   21.3660   43.9470 N.am  217  GLN217     -0.0878
    118  N         36.0730   27.0000   44.0230 N.3   219  GLY219     -0.1225
    119  CA        37.4500   26.5780   43.8550 C.3   219  GLY219      0.1811
    120  C         37.7630   26.0950   42.4520 C.2   219  GLY219      0.2280
    121  O         36.8620   25.8340   41.6540 O.2   219  GLY219     -0.2866
@<TRIPOS>BOND
     1     4     3    2
     2     1     2    1
     3     3     2    1
     4     2     5    1
     5     5     6    1
     6   105   106    1
     7     8     6   ar
     8     8    10   ar
     9    32    31    2
    10     6     7   ar
    11    31    30    1
    12   121   120    2
    13   106   107    1
    14   112   111    2
    15    10    11   ar
    16     7     9   ar
    17   109   107   am
    18   109   110    1
    19    28    26    1
    20   120   119    1
    21   114   113    1
    22   114   115    1
    23   113   110    1
    24   107   108    2
    25    25    24    2
    26   111   110    1
    27    11     9   ar
    28    11    12    1
    29    30    29    1
    30    30    33    1
    31    27    26    1
    32    37    36    1
    33    37    38    2
    34    24    29   am
    35    24    23    1
    36    26    23    1
    37    63    64    1
    38    34    33    1
    39    35    36    1
    40    36    39    1
    41   119   118    1
    42   115   117   am
    43   115   116    2
    44    64    65    1
    45    64    67    1
    46    23    22    1
    47    22    19   am
    48    65    66    2
    49    41    42    1
    50    67    68    1
    51    70    68   ar
    52    70    72   ar
    53    39    40    1
    54    51    53   ar
    55    51    48   ar
    56    53    54   ar
    57    16    15    2
    58    45    42    1
    59    45    46    1
    60    42    43    1
    61    19    18    1
    62    19    20    2
    63    68    69   ar
    64    18    21    1
    65    18    17    1
    66    48    46   ar
    67    48    50   ar
    68    54    52   ar
    69    46    47   ar
    70    72    71   ar
    71    50    52   ar
    72    50    49   ar
    73    15    17   am
    74    15    14    1
    75    47    49   ar
    76    73    74    1
    77    69    71   ar
    78    43    44    2
    79    76    75    2
    80    75    74    1
    81    74    77    1
    82    14    13    1
    83    77    78    1
    84    87    85   ar
    85    86    85   ar
    86    85    84    1
    87   103   102    1
    88    55    56    1
    89    84    83    1
    90    61    60    1
    91    59    56    1
    92    59    60    1
    93    56    57    1
    94   102   101    1
    95   102   104    1
    96    62    60    1
    97   101    98    1
    98    83    80    1
    99    57    58    2
   100    82    81    2
   101    81    80    1
   102   100    99    2
   103    80    79    1
   104    98    99    1
   105    98    97    1
   106    97    90   am
   107    94    95    1
   108    94    93    1
   109    95    96    1
   110    90    91    2
   111    90    89    1
   112    92    93    1
   113    92    89    1
   114    88    89    1
