@<TRIPOS>MOLECULE
tmp/4lkmA00.pdb
 178 176 0 0 0
SMALL
GASTEIGER

@<TRIPOS>ATOM
      1  N         25.4840   13.8400   20.4900 N.3    42  SER42      -0.1202
      2  CA        25.6110   12.8190   19.4530 C.3    42  SER42       0.2020
      3  C         26.8990   12.0100   19.5570 C.2    42  SER42       0.2619
      4  O         26.9790   10.8850   19.0550 O.2    42  SER42      -0.2717
      5  CB        25.4910   13.4600   18.0670 C.3    42  SER42       0.2103
      6  OG        26.3370   14.5850   17.9490 O.3    42  SER42      -0.2182
      7  N         27.9050   12.5850   20.2080 N.am   43  LYS43      -0.1965
      8  CA        29.1830   11.9130   20.3970 C.3    43  LYS43       0.1728
      9  C         30.0370   12.6560   21.4220 C.2    43  LYS43       0.2616
     10  O         29.8020   13.8350   21.7140 O.2    43  LYS43      -0.2715
     11  CB        29.9370   11.7840   19.0600 C.3    43  LYS43       0.0311
     12  CG        30.1250   13.0820   18.3020 C.3    43  LYS43       0.0038
     13  CD        30.8630   12.8700   16.9690 C.3    43  LYS43       0.0206
     14  CE        29.9960   12.1880   15.9260 C.3    43  LYS43       0.1093
     15  NZ        30.6370   12.1830   14.5660 N.3    43  LYS43      -0.1314
     16  N         31.0140   11.9510   21.9830 N.am   44  TRP44      -0.1960
     17  CA        31.8990   12.5370   22.9800 C.3    44  TRP44       0.1771
     18  C         33.2070   11.7620   23.0620 C.2    44  TRP44       0.2620
     19  O         33.2700   10.5860   22.7020 O.2    44  TRP44      -0.2715
     20  CB        31.2280   12.5430   24.3620 C.3    44  TRP44       0.0590
     21  CG        30.8140   11.1780   24.8290 C.ar   44  TRP44       0.0006
     22  CD1       29.5940   10.5890   24.6570 C.ar   44  TRP44       0.0946
     23  CD2       31.6400   10.2040   25.4820 C.ar   44  TRP44       0.0152
     24  NE1       29.6100    9.3090   25.1580 N.ar   44  TRP44      -0.2442
     25  CE2       30.8530    9.0470   25.6690 C.ar   44  TRP44       0.0810
     26  CE3       32.9700   10.1960   25.9240 C.ar   44  TRP44       0.0012
     27  CZ2       31.3540    7.8870   26.2790 C.ar   44  TRP44       0.0191
     28  CZ3       33.4680    9.0430   26.5310 C.ar   44  TRP44       0.0001
     29  CH2       32.6600    7.9050   26.7000 C.ar   44  TRP44       0.0015
     30  N         34.2480   12.4380   23.5350 N.am   45  VAL45      -0.1963
     31  CA        35.5620   11.8320   23.6980 C.3    45  VAL45       0.1727
     32  C         36.1110   12.3230   25.0370 C.2    45  VAL45       0.2616
     33  O         36.1920   13.5270   25.2960 O.2    45  VAL45      -0.2715
     34  CB        36.5200   12.2260   22.5480 C.3    45  VAL45       0.0290
     35  CG1       36.6810   13.7320   22.4960 C.3    45  VAL45       0.0023
     36  CG2       37.8790   11.5400   22.7380 C.3    45  VAL45       0.0023
     37  N         36.4720   11.3790   25.8950 N.am   46  ASP46      -0.1957
     38  CA        36.9770   11.7050   27.2200 C.3    46  ASP46       0.1840
     39  C         38.5050   11.7300   27.2940 C.2    46  ASP46       0.2622
     40  O         39.1550   10.6840   27.2900 O.2    46  ASP46      -0.2715
     41  CB        36.4080   10.6990   28.2270 C.3    46  ASP46       0.1450
     42  CG        36.9480   10.8920   29.6300 C.2    46  ASP46       0.3671
     43  OD1       37.5540   11.9510   29.9100 O.co2  46  ASP46      -0.2456
     44  OD2       36.7510    9.9770   30.4590 O.co2  46  ASP46      -0.2456
     45  N         39.0680   12.9340   27.3490 N.am   47  TYR47      -0.1974
     46  CA        40.5140   13.1030   27.4560 C.3    47  TYR47       0.1639
     47  C         40.7300   13.9550   28.7020 C.2    47  TYR47       0.2290
     48  O         41.6420   14.7790   28.7660 O.2    47  TYR47      -0.2864
     49  CB        41.0610   13.8260   26.2160 C.3    47  TYR47       0.0560
     50  CG        42.5380   13.5940   25.9230 C.ar   47  TYR47      -0.0198
     51  CD1       43.1340   14.1550   24.7930 C.ar   47  TYR47      -0.0009
     52  CD2       43.3300   12.8060   26.7620 C.ar   47  TYR47      -0.0009
     53  CE1       44.4810   13.9360   24.4990 C.ar   47  TYR47       0.0417
     54  CE2       44.6820   12.5790   26.4820 C.ar   47  TYR47       0.0417
     55  CZ        45.2500   13.1480   25.3450 C.ar   47  TYR47       0.1957
     56  OH        46.5760   12.9310   25.0510 O.3    47  TYR47      -0.2866
     57  N         41.9900   13.2940   31.2800 N.3    49  ASP49      -0.1239
     58  CA        43.2460   12.9980   31.9510 C.3    49  ASP49       0.1674
     59  C         44.2450   14.1210   31.6710 C.2    49  ASP49       0.2266
     60  O         45.2060   14.3060   32.4180 O.2    49  ASP49      -0.2867
     61  CB        43.8070   11.6710   31.4420 C.3    49  ASP49       0.1410
     62  CG        44.6550   10.9660   32.4750 C.2    49  ASP49       0.3668
     63  OD1       45.7550   11.4680   32.8040 O.co2  49  ASP49      -0.2456
     64  OD2       44.2100    9.9030   32.9640 O.co2  49  ASP49      -0.2456
     65  N         38.7060   14.8890   15.5870 N.3   115  TYR115     -0.1241
     66  CA        38.7160   13.5050   16.0330 C.3   115  TYR115      0.1605
     67  C         37.3010   12.9220   16.0130 C.2   115  TYR115      0.2264
     68  O         37.0590   11.8650   15.4280 O.2   115  TYR115     -0.2867
     69  CB        39.2890   13.3970   17.4510 C.3   115  TYR115      0.0534
     70  CG        39.2880   11.9770   17.9620 C.ar  115  TYR115     -0.0201
     71  CD1       40.3310   11.1020   17.6520 C.ar  115  TYR115     -0.0009
     72  CD2       38.2000   11.4800   18.6830 C.ar  115  TYR115     -0.0009
     73  CE1       40.2880    9.7620   18.0440 C.ar  115  TYR115      0.0417
     74  CE2       38.1450   10.1490   19.0780 C.ar  115  TYR115      0.0417
     75  CZ        39.1910    9.2920   18.7550 C.ar  115  TYR115      0.1957
     76  OH        39.1330    7.9670   19.1350 O.3   115  TYR115     -0.2866
     77  N         36.2520    9.7630   13.6240 N.3   119  HIS119     -0.1226
     78  CA        36.1710    8.4290   14.1990 C.3   119  HIS119      0.1752
     79  C         34.9060    7.9710   14.9130 C.2   119  HIS119      0.2596
     80  O         34.7410    6.7740   15.1390 O.2   119  HIS119     -0.2718
     81  CB        37.3560    8.2280   15.1430 C.3   119  HIS119      0.0759
     82  CG        38.6770    8.5390   14.5160 C.ar  119  HIS119      0.0818
     83  ND1       39.2000    9.8140   14.4740 N.ar  119  HIS119     -0.2268
     84  CD2       39.5610    7.7490   13.8610 C.ar  119  HIS119      0.1154
     85  CE1       40.3470    9.7960   13.8200 C.ar  119  HIS119      0.1986
     86  NE2       40.5890    8.5560   13.4360 N.ar  119  HIS119     -0.2212
     87  N         34.0100    8.8910   15.2550 N.am  120  LEU120     -0.1966
     88  CA        32.8150    8.4970   15.9920 C.3   120  LEU120      0.1728
     89  C         31.4770    8.6210   15.2670 C.2   120  LEU120      0.2616
     90  O         31.2840    9.4980   14.4220 O.2   120  LEU120     -0.2715
     91  CB        32.7600    9.2880   17.3030 C.3   120  LEU120      0.0311
     92  CG        34.0630    9.2980   18.1130 C.3   120  LEU120      0.0022
     93  CD1       33.9000   10.2050   19.3270 C.3   120  LEU120      0.0001
     94  CD2       34.4270    7.8840   18.5400 C.3   120  LEU120      0.0001
     95  N         30.5570    7.7240   15.6230 N.am  121  LEU121     -0.1977
     96  CA        29.2080    7.6980   15.0640 C.3   121  LEU121      0.1596
     97  C         28.3680    8.8070   15.6740 C.2   121  LEU121      0.2287
     98  O         28.5510    9.1690   16.8350 O.2   121  LEU121     -0.2864
     99  CB        28.5060    6.3740   15.3820 C.3   121  LEU121      0.0297
    100  CG        28.9230    5.0660   14.7250 C.3   121  LEU121      0.0022
    101  CD1       27.9820    3.9720   15.2100 C.3   121  LEU121      0.0001
    102  CD2       28.8590    5.1870   13.2060 C.3   121  LEU121      0.0001
    103  N         25.1400    9.7200   17.2570 N.3   123  ALA123     -0.1245
    104  CA        23.9770    9.1080   17.8920 C.3   123  ALA123      0.1562
    105  C         22.7190    9.8680   17.4920 C.2   123  ALA123      0.2260
    106  O         22.7300   11.0930   17.4020 O.2   123  ALA123     -0.2867
    107  CB        24.1390    9.1200   19.4130 C.3   123  ALA123      0.0290
    108  N         31.1340    9.3520   34.8960 N.3   141  ARG141     -0.1245
    109  CA        30.9280    7.9930   34.4440 C.3   141  ARG141      0.1563
    110  C         30.7870    7.0480   35.6260 C.2   141  ARG141      0.2260
    111  O         31.2920    7.3140   36.7170 O.2   141  ARG141     -0.2867
    112  CB        32.0980    7.5370   33.5610 C.3   141  ARG141      0.0307
    113  CG        33.4770    7.8850   34.1100 C.3   141  ARG141      0.0489
    114  CD        34.6060    7.0280   33.5130 C.3   141  ARG141      0.2205
    115  NE        34.6100    6.9760   32.0520 N.pl3 141  ARG141     -0.0865
    116  CZ        33.9100    6.1040   31.3310 C.cat 141  ARG141      0.5346
    117  NH1       33.9680    6.1260   30.0050 N.pl3 141  ARG141      0.1354
    118  NH2       33.1560    5.2030   31.9350 N.pl3 141  ARG141      0.1354
    119  N         24.0910    7.5350   28.5620 N.3   158  ASN158     -0.1225
    120  CA        24.4600    6.5470   27.5470 C.3   158  ASN158      0.1785
    121  C         24.9740    5.3050   28.2790 C.2   158  ASN158      0.2597
    122  O         25.9250    5.3910   29.0560 O.2   158  ASN158     -0.2718
    123  CB        25.5830    7.0690   26.6350 C.3   158  ASN158      0.1169
    124  CG        25.1360    8.1940   25.6950 C.2   158  ASN158      0.2627
    125  OD1       25.9000    8.6120   24.8200 O.2   158  ASN158     -0.2716
    126  ND2       23.9160    8.6840   25.8700 N.am  158  ASN158     -0.0877
    127  N         24.3520    4.1580   28.0230 N.am  159  PHE159     -0.1962
    128  CA        24.7520    2.9060   28.6600 C.3   159  PHE159      0.1771
    129  C         25.7940    2.2020   27.8060 C.2   159  PHE159      0.2619
    130  O         25.5960    1.9910   26.6090 O.2   159  PHE159     -0.2715
    131  CB        23.5250    2.0160   28.8720 C.3   159  PHE159      0.0574
    132  CG        22.5680    2.5540   29.8950 C.ar  159  PHE159     -0.0200
    133  CD1       22.7690    2.3080   31.2510 C.ar  159  PHE159     -0.0042
    134  CD2       21.5010    3.3600   29.5110 C.ar  159  PHE159     -0.0042
    135  CE1       21.9200    2.8610   32.2120 C.ar  159  PHE159     -0.0003
    136  CE2       20.6450    3.9210   30.4680 C.ar  159  PHE159     -0.0003
    137  CZ        20.8590    3.6690   31.8180 C.ar  159  PHE159     -0.0000
    138  N         26.9130    1.8490   28.4320 N.am  160  PHE160     -0.1974
    139  CA        28.0150    1.2010   27.7310 C.3   160  PHE160      0.1639
    140  C         27.7540   -0.1930   27.1580 C.2   160  PHE160      0.2290
    141  O         27.9970   -0.4370   25.9780 O.2   160  PHE160     -0.2864
    142  CB        29.2450    1.1200   28.6470 C.3   160  PHE160      0.0560
    143  CG        29.6990    2.4470   29.1850 C.ar  160  PHE160     -0.0200
    144  CD1       29.8000    3.5570   28.3530 C.ar  160  PHE160     -0.0042
    145  CD2       30.0630    2.5770   30.5220 C.ar  160  PHE160     -0.0042
    146  CE1       30.2550    4.7780   28.8400 C.ar  160  PHE160     -0.0003
    147  CE2       30.5230    3.7960   31.0240 C.ar  160  PHE160     -0.0003
    148  CZ        30.6180    4.8990   30.1820 C.ar  160  PHE160     -0.0000
    149  N         24.5810   -0.0440   24.5440 N.3   163  HIS163     -0.1241
    150  CA        24.5010    1.1670   23.7370 C.3   163  HIS163      0.1621
    151  C         23.1480    1.8610   23.7330 C.2   163  HIS163      0.2264
    152  O         22.8680    2.6690   22.8510 O.2   163  HIS163     -0.2867
    153  CB        24.9210    0.8370   22.3080 C.3   163  HIS163      0.0745
    154  CG        26.2460    0.1480   22.2290 C.ar  163  HIS163      0.0817
    155  ND1       27.4380    0.8050   22.4430 N.ar  163  HIS163     -0.2268
    156  CD2       26.5640   -1.1530   22.0230 C.ar  163  HIS163      0.1154
    157  CE1       28.4340   -0.0610   22.3740 C.ar  163  HIS163      0.1986
    158  NE2       27.9310   -1.2550   22.1210 N.ar  163  HIS163     -0.2212
    159  N         20.3340    4.5170   25.0930 N.3   165  LYS165     -0.1245
    160  CA        20.4870    5.8610   25.6260 C.3   165  LYS165      0.1561
    161  C         19.1780    6.4920   26.0670 C.2   165  LYS165      0.2260
    162  O         18.1340    6.2710   25.4590 O.2   165  LYS165     -0.2867
    163  CB        21.1540    6.7580   24.5770 C.3   165  LYS165      0.0271
    164  CG        22.4520    6.1740   23.9990 C.3   165  LYS165      0.0035
    165  CD        22.9870    7.0230   22.8370 C.3   165  LYS165      0.0206
    166  CE        24.2330    6.3960   22.2080 C.3   165  LYS165      0.1093
    167  NZ        23.9450    5.0490   21.6400 N.3   165  LYS165     -0.1314
    168  N         18.9920    1.1830   17.4890 N.3   182  ARG182     -0.1245
    169  CA        18.9690    2.5950   17.1520 C.3   182  ARG182      0.1563
    170  C         17.5670    3.1120   16.8730 C.2   182  ARG182      0.2260
    171  O         17.3890    4.1920   16.3090 O.2   182  ARG182     -0.2867
    172  CB        19.9020    2.8840   15.9700 C.3   182  ARG182      0.0307
    173  CG        21.3320    2.4240   16.2350 C.3   182  ARG182      0.0489
    174  CD        22.3570    3.2270   15.4560 C.3   182  ARG182      0.2205
    175  NE        23.7130    2.8560   15.8500 N.pl3 182  ARG182     -0.0865
    176  CZ        24.3960    1.8410   15.3280 C.cat 182  ARG182      0.5346
    177  NH1       25.6210    1.5770   15.7600 N.pl3 182  ARG182      0.1354
    178  NH2       23.8650    1.1080   14.3590 N.pl3 182  ARG182      0.1354
@<TRIPOS>BOND
     1   102   100    1
     2    86    85   ar
     3    86    84   ar
     4    77    78    1
     5    85    83   ar
     6    84    82   ar
     7    78    79    1
     8    78    81    1
     9   178   176    1
    10    90    89    2
    11    83    82   ar
    12    82    81    1
    13    15    14    1
    14   100   101    1
    15   100    99    1
    16    79    80    2
    17    79    87   am
    18    96    99    1
    19    96    95    1
    20    96    97    1
    21    87    88    1
    22    89    95   am
    23    89    88    1
    24   176   177    1
    25   176   175    2
    26    68    67    2
    27   174   175    1
    28   174   173    1
    29    65    66    1
    30    97    98    2
    31    14    13    1
    32   172   173    1
    33   172   169    1
    34    88    91    1
    35    67    66    1
    36    66    69    1
    37   171   170    2
    38   170   169    1
    39    13    12    1
    40   169   168    1
    41   103   104    1
    42    91    92    1
    43   106   105    2
    44    69    70    1
    45   105   104    1
    46    71    70   ar
    47    71    73   ar
    48   104   107    1
    49     6     5    1
    50    70    72   ar
    51    73    75   ar
    52     5     2    1
    53    92    94    1
    54    92    93    1
    55    12    11    1
    56    72    74   ar
    57    75    74   ar
    58    75    76    1
    59     4     3    2
    60    11     8    1
    61     2     3    1
    62     2     1    1
    63     3     7   am
    64     7     8    1
    65     8     9    1
    66     9    10    2
    67     9    16   am
    68   167   166    1
    69    16    17    1
    70   156   158   ar
    71   156   154   ar
    72   158   157   ar
    73   166   165    1
    74   154   153    1
    75   154   155   ar
    76   153   150    1
    77   157   155   ar
    78    35    34    1
    79    34    36    1
    80    34    31    1
    81    19    18    2
    82   165   164    1
    83   152   151    2
    84    17    18    1
    85    17    20    1
    86    18    30   am
    87    30    31    1
    88    31    32    1
    89   151   150    1
    90   150   149    1
    91   164   163    1
    92    20    21    1
    93    53    51   ar
    94    53    55   ar
    95   163   160    1
    96    22    21   ar
    97    22    24   ar
    98    51    50   ar
    99   125   124    2
   100    21    23   ar
   101    32    33    2
   102    32    37   am
   103    56    55    1
   104   159   160    1
   105    24    25   ar
   106    55    54   ar
   107   162   161    2
   108    23    25   ar
   109    23    26   ar
   110   160   161    1
   111    25    27   ar
   112   124   126   am
   113   124   123    1
   114    37    38    1
   115    50    49    1
   116    50    52   ar
   117    26    28   ar
   118   141   140    2
   119    49    46    1
   120    27    29   ar
   121    54    52   ar
   122    28    29   ar
   123   130   129    2
   124   123   120    1
   125   140   139    1
   126    38    39    1
   127    38    41    1
   128    40    39    2
   129    39    45   am
   130    45    46    1
   131    46    47    1
   132   120   121    1
   133   120   119    1
   134   139   138    1
   135   139   142    1
   136   129   138   am
   137   129   128    1
   138   127   121   am
   139   127   128    1
   140    41    42    1
   141   121   122    2
   142   144   146   ar
   143   144   143   ar
   144   142   143    1
   145   128   131    1
   146    47    48    2
   147   146   148   ar
   148   131   132    1
   149   143   145   ar
   150   134   132   ar
   151   134   136   ar
   152    42    43   ar
   153    42    44   ar
   154   132   133   ar
   155   117   116    1
   156   148   147   ar
   157   136   137   ar
   158   145   147   ar
   159   133   135   ar
   160    57    58    1
   161   116   118    1
   162   116   115    2
   163    61    58    1
   164    61    62    1
   165    59    58    1
   166    59    60    2
   167   137   135   ar
   168   115   114    1
   169    62    63   ar
   170    62    64   ar
   171   114   113    1
   172   112   113    1
   173   112   109    1
   174   109   108    1
   175   109   110    1
   176   110   111    2
