@<TRIPOS>MOLECULE
tmp/4lkqA00.pdb
 104 99 0 0 0
SMALL
GASTEIGER

@<TRIPOS>ATOM
      1  N         14.8670   14.6410   47.0520 N.3    79  TYR79      -0.1241
      2  CA        13.6540   14.0530   47.6450 C.3    79  TYR79       0.1605
      3  C         13.7800   12.6050   48.1200 C.2    79  TYR79       0.2264
      4  O         13.3570   12.2900   49.2310 O.2    79  TYR79      -0.2867
      5  CB        12.5050   14.1700   46.6730 C.3    79  TYR79       0.0534
      6  CG        11.2470   13.5440   47.2280 C.ar   79  TYR79      -0.0201
      7  CD1       10.5610   14.1550   48.2620 C.ar   79  TYR79      -0.0009
      8  CD2       10.7780   12.3280   46.7430 C.ar   79  TYR79      -0.0009
      9  CE1        9.4190   13.5790   48.8030 C.ar   79  TYR79       0.0417
     10  CE2        9.6120   11.7430   47.2720 C.ar   79  TYR79       0.0417
     11  CZ         8.9370   12.4000   48.2910 C.ar   79  TYR79       0.1957
     12  OH         7.7700   11.8510   48.8110 O.3    79  TYR79      -0.2866
     13  N          4.6990    2.7130   41.8950 N.3   190  LEU190     -0.1245
     14  CA         3.3360    3.2520   41.6090 C.3   190  LEU190      0.1561
     15  C          2.6570    2.6100   40.3970 C.2   190  LEU190      0.2260
     16  O          1.4160    2.6100   40.3230 O.2   190  LEU190     -0.2867
     17  CB         3.3060    4.7780   41.4910 C.3   190  LEU190      0.0270
     18  CG         3.4400    5.5620   42.8020 C.3   190  LEU190      0.0019
     19  CD1        3.5870    7.0350   42.4510 C.3   190  LEU190      0.0001
     20  CD2        2.1890    5.3290   43.7050 C.3   190  LEU190      0.0001
     21  N          3.3960    8.0810   49.9310 N.3   230  LEU230     -0.1245
     22  CA         2.8770    9.3370   49.4820 C.3   230  LEU230      0.1561
     23  C          2.4950   10.2880   50.6160 C.2   230  LEU230      0.2260
     24  O          1.8960   11.3310   50.3390 O.2   230  LEU230     -0.2867
     25  CB         1.6110    9.0950   48.6190 C.3   230  LEU230      0.0270
     26  CG         1.7950    8.2270   47.3690 C.3   230  LEU230      0.0019
     27  CD1        0.4610    8.1790   46.6260 C.3   230  LEU230      0.0001
     28  CD2        2.9420    8.7760   46.5130 C.3   230  LEU230      0.0001
     29  N          3.6070   12.6460   52.3930 N.3   232  SER232     -0.1202
     30  CA         3.7490   14.1010   52.3480 C.3   232  SER232      0.2020
     31  C          2.4650   14.8430   51.9830 C.2   232  SER232      0.2618
     32  O          2.2820   15.9840   52.4110 O.2   232  SER232     -0.2717
     33  CB         4.8780   14.4950   51.3770 C.3   232  SER232      0.2103
     34  OG         4.4370   14.3890   50.0220 O.3   232  SER232     -0.2182
     35  N          1.5960   14.1990   51.2030 N.am  233  VAL233     -0.1979
     36  CA         0.3110   14.8180   50.8610 C.3   233  VAL233      0.1595
     37  C         -0.7040   14.8180   51.9770 C.2   233  VAL233      0.2287
     38  O         -1.8140   15.3370   51.7790 O.2   233  VAL233     -0.2864
     39  CB        -0.3440   14.2550   49.5600 C.3   233  VAL233      0.0276
     40  CG1        0.7020   14.2560   48.4240 C.3   233  VAL233      0.0022
     41  CG2       -0.9990   12.8650   49.8310 C.3   233  VAL233      0.0022
     42  N         10.4470   17.3020   45.5920 N.3   247  ILE247     -0.1231
     43  CA        10.0590   16.3320   44.5660 C.3   247  ILE247      0.1692
     44  C         10.3440   16.9290   43.1670 C.2   247  ILE247      0.2592
     45  O         10.9830   16.2880   42.3160 O.2   247  ILE247     -0.2718
     46  CB         8.5100   16.0380   44.7430 C.3   247  ILE247      0.0266
     47  CG1        8.2740   15.2710   46.0450 C.3   247  ILE247      0.0019
     48  CG2        7.8900   15.3810   43.5570 C.3   247  ILE247      0.0020
     49  CD1        6.7880   15.3520   46.5570 C.3   247  ILE247      0.0001
     50  N          9.8780   18.1570   42.9320 N.am  248  TYR248     -0.1976
     51  CA        10.0330   18.7650   41.6260 C.3   248  TYR248      0.1639
     52  C         11.4720   19.0770   41.3180 C.2   248  TYR248      0.2290
     53  O         11.8470   19.0140   40.1570 O.2   248  TYR248     -0.2864
     54  CB         9.1530   19.9810   41.4420 C.3   248  TYR248      0.0560
     55  CG         7.7930   19.5710   40.9720 C.ar  248  TYR248     -0.0198
     56  CD1        6.7910   19.2620   41.8900 C.ar  248  TYR248     -0.0009
     57  CD2        7.5150   19.4610   39.6090 C.ar  248  TYR248     -0.0009
     58  CE1        5.5240   18.8650   41.4400 C.ar  248  TYR248      0.0417
     59  CE2        6.2580   19.0740   39.1470 C.ar  248  TYR248      0.0417
     60  CZ         5.2730   18.7900   40.0690 C.ar  248  TYR248      0.1957
     61  OH         4.0400   18.4160   39.6490 O.3   248  TYR248     -0.2866
     62  N         12.5010   15.9620   39.6960 N.3   251  PHE251     -0.1241
     63  CA        11.8600   15.8120   38.4280 C.3   251  PHE251      0.1605
     64  C         12.5680   16.6860   37.3610 C.2   251  PHE251      0.2264
     65  O         12.8270   16.2130   36.2650 O.2   251  PHE251     -0.2867
     66  CB        10.3920   16.2550   38.4900 C.3   251  PHE251      0.0534
     67  CG         9.4800   15.3080   39.2540 C.ar  251  PHE251     -0.0203
     68  CD1        9.8430   14.0020   39.5000 C.ar  251  PHE251     -0.0042
     69  CD2        8.2190   15.7490   39.6670 C.ar  251  PHE251     -0.0042
     70  CE1        8.9840   13.1330   40.2040 C.ar  251  PHE251     -0.0003
     71  CE2        7.3370   14.8920   40.3390 C.ar  251  PHE251     -0.0003
     72  CZ         7.7190   13.5830   40.6050 C.ar  251  PHE251     -0.0000
     73  N          5.9210   17.5610   33.3560 N.3   268  MET268     -0.1245
     74  CA         6.1210   17.5120   34.7850 C.3   268  MET268      0.1570
     75  C          7.5950   17.6210   35.1120 C.2   268  MET268      0.2261
     76  O          7.9620   18.1090   36.1770 O.2   268  MET268     -0.2867
     77  CB         5.5800   16.1950   35.3170 C.3   268  MET268      0.0387
     78  CG         5.3690   16.1680   36.8250 C.3   268  MET268      0.0595
     79  SD         5.0510   14.5190   37.5220 S.3   268  MET268     -0.1393
     80  CE         6.5940   13.6710   37.1940 C.3   268  MET268      0.0692
     81  N         -0.9860   19.7770   37.3430 N.3   280  GLY280     -0.1210
     82  CA        -0.3770   18.4590   37.4990 C.3   280  GLY280      0.1956
     83  C         -0.5980   17.8660   38.8910 C.2   280  GLY280      0.2611
     84  O         -0.7660   16.6620   39.0220 O.2   280  GLY280     -0.2717
     85  N         -0.5540   18.7170   39.9200 N.am  281  GLN281     -0.1979
     86  CA        -0.8090   18.2770   41.2830 C.3   281  GLN281      0.1601
     87  C         -2.2550   17.8680   41.4090 C.2   281  GLN281      0.2287
     88  O         -2.5560   16.8320   42.0070 O.2   281  GLN281     -0.2864
     89  CB        -0.4990   19.3790   42.2640 C.3   281  GLN281      0.0394
     90  CG         0.9990   19.5650   42.4750 C.3   281  GLN281      0.0908
     91  CD         1.6590   18.3160   43.0160 C.2   281  GLN281      0.2608
     92  OE1        2.2940   17.5510   42.2800 O.2   281  GLN281     -0.2717
     93  NE2        1.4990   18.0840   44.3010 N.am  281  GLN281     -0.0878
     94  N         -2.5060   14.4290   39.9760 N.3   284  PHE284     -0.1241
     95  CA        -1.9340   13.4350   40.8620 C.3   284  PHE284      0.1605
     96  C         -2.8430   13.1010   42.0420 C.2   284  PHE284      0.2264
     97  O         -3.0380   11.9270   42.3650 O.2   284  PHE284     -0.2867
     98  CB        -0.5430   13.8690   41.3600 C.3   284  PHE284      0.0534
     99  CG         0.1230   12.8260   42.1850 C.ar  284  PHE284     -0.0203
    100  CD1        0.7160   11.7090   41.5740 C.ar  284  PHE284     -0.0042
    101  CD2        0.1170   12.9210   43.5840 C.ar  284  PHE284     -0.0042
    102  CE1        1.3050   10.7000   42.3420 C.ar  284  PHE284     -0.0003
    103  CE2        0.7020   11.9120   44.3590 C.ar  284  PHE284     -0.0003
    104  CZ         1.2950   10.8040   43.7300 C.ar  284  PHE284     -0.0000
@<TRIPOS>BOND
     1    73    74    1
     2    74    75    1
     3    74    77    1
     4    75    76    2
     5    77    78    1
     6    65    64    2
     7    78    79    1
     8    80    79    1
     9    81    82    1
    10    64    63    1
    11    82    83    1
    12    63    66    1
    13    63    62    1
    14    66    67    1
    15    83    84    2
    16    83    85   am
    17    59    57   ar
    18    59    60   ar
    19    67    68   ar
    20    67    69   ar
    21    68    70   ar
    22    57    55   ar
    23    61    60    1
    24    69    71   ar
    25    85    86    1
    26    94    95    1
    27    60    58   ar
    28    53    52    2
    29    70    72   ar
    30    16    15    2
    31    71    72   ar
    32    15    14    1
    33    95    98    1
    34    95    96    1
    35    55    54    1
    36    55    56   ar
    37    86    87    1
    38    86    89    1
    39    52    51    1
    40    98    99    1
    41    87    88    2
    42    58    56   ar
    43    54    51    1
    44    17    14    1
    45    17    18    1
    46   100    99   ar
    47   100   102   ar
    48    14    13    1
    49    51    50    1
    50    96    97    2
    51    99   101   ar
    52    89    90    1
    53    92    91    2
    54    45    44    2
    55   102   104   ar
    56    19    18    1
    57    90    91    1
    58    18    20    1
    59    50    44   am
    60    91    93   am
    61    44    43    1
    62    48    46    1
    63   101   103   ar
    64   104   103   ar
    65    43    46    1
    66    43    42    1
    67    46    47    1
    68    47    49    1
    69    28    26    1
    70    27    26    1
    71     5     6    1
    72     5     2    1
    73     8     6   ar
    74     8    10   ar
    75     1     2    1
    76     6     7   ar
    77    10    11   ar
    78    26    25    1
    79     2     3    1
    80     3     4    2
    81     7     9   ar
    82    11     9   ar
    83    11    12    1
    84    40    39    1
    85    25    22    1
    86    22    21    1
    87    22    23    1
    88    39    41    1
    89    39    36    1
    90    34    33    1
    91    24    23    2
    92    36    35    1
    93    36    37    1
    94    35    31   am
    95    33    30    1
    96    38    37    2
    97    31    30    1
    98    31    32    2
    99    30    29    1
