@<TRIPOS>MOLECULE
tmp/4lksB00.pdb
 92 86 0 0 0
SMALL
GASTEIGER

@<TRIPOS>ATOM
      1  N         -1.8290   15.4960  -44.0560 N.3    26  ASP26      -0.1239
      2  CA        -1.7910   16.5730  -45.0430 C.3    26  ASP26       0.1674
      3  C         -0.7270   17.6080  -44.6850 C.2    26  ASP26       0.2266
      4  O          0.4140   17.2320  -44.4250 O.2    26  ASP26      -0.2867
      5  CB        -3.1830   17.1840  -45.1720 C.3    26  ASP26       0.1410
      6  CG        -4.2300   16.1500  -45.5180 C.2    26  ASP26       0.3668
      7  OD1       -3.8910   15.2120  -46.2750 O.co2  26  ASP26      -0.2456
      8  OD2       -5.3780   16.2640  -45.0400 O.co2  26  ASP26      -0.2456
      9  N         -1.3470   19.6660  -42.1200 N.3    28  ASP28      -0.1239
     10  CA        -1.8550   20.0530  -40.8130 C.3    28  ASP28       0.1674
     11  C         -0.9100   19.5930  -39.7070 C.2    28  ASP28       0.2266
     12  O         -1.2380   18.7330  -38.8700 O.2    28  ASP28      -0.2867
     13  CB        -3.2770   19.5260  -40.6430 C.3    28  ASP28       0.1410
     14  CG        -4.2380   20.1270  -41.6540 C.2    28  ASP28       0.3668
     15  OD1       -3.9460   21.2300  -42.1700 O.co2  28  ASP28      -0.2456
     16  OD2       -5.2860   19.5100  -41.9120 O.co2  28  ASP28      -0.2456
     17  N         -3.8300   18.2060  -37.4270 N.3    43  HIS43      -0.1241
     18  CA        -4.8390   17.1660  -37.6380 C.3    43  HIS43       0.1621
     19  C         -4.1240   15.8330  -37.6490 C.2    43  HIS43       0.2264
     20  O         -3.1070   15.6810  -38.3250 O.2    43  HIS43      -0.2867
     21  CB        -5.5410   17.3890  -38.9890 C.3    43  HIS43       0.0745
     22  CG        -6.8430   16.6650  -39.1540 C.ar   43  HIS43       0.0817
     23  ND1       -6.9480   15.2870  -39.1590 N.ar   43  HIS43      -0.2268
     24  CD2       -8.0900   17.1310  -39.4020 C.ar   43  HIS43       0.1154
     25  CE1       -8.2060   14.9410  -39.3650 C.ar   43  HIS43       0.1986
     26  NE2       -8.9200   16.0440  -39.5240 N.ar   43  HIS43      -0.2212
     27  N         -5.9240   10.1030  -40.7990 N.3    46  TYR46      -0.1241
     28  CA        -7.3290    9.7060  -40.9130 C.3    46  TYR46       0.1605
     29  C         -7.5840    8.6150  -41.9440 C.2    46  TYR46       0.2264
     30  O         -8.6830    8.5110  -42.4990 O.2    46  TYR46      -0.2867
     31  CB        -8.2420   10.9120  -41.1690 C.3    46  TYR46       0.0534
     32  CG        -7.8940   11.7690  -42.3700 C.ar   46  TYR46      -0.0201
     33  CD1       -8.3610   11.4510  -43.6400 C.ar   46  TYR46      -0.0009
     34  CD2       -7.1350   12.9190  -42.2210 C.ar   46  TYR46      -0.0009
     35  CE1       -8.0610   12.2470  -44.7280 C.ar   46  TYR46       0.0417
     36  CE2       -6.8330   13.7130  -43.2940 C.ar   46  TYR46       0.0417
     37  CZ        -7.2890   13.3750  -44.5480 C.ar   46  TYR46       0.1957
     38  OH        -6.9770   14.1890  -45.6110 O.3    46  TYR46      -0.2866
     39  N        -11.0800   23.5650  -34.6950 N.3    74  ARG74      -0.1245
     40  CA       -11.0720   23.9030  -36.1060 C.3    74  ARG74       0.1563
     41  C        -12.2610   24.7940  -36.4400 C.2    74  ARG74       0.2260
     42  O        -13.4000   24.5230  -36.0250 O.2    74  ARG74      -0.2867
     43  CB       -11.1570   22.5960  -36.8850 C.3    74  ARG74       0.0307
     44  CG       -11.0150   22.7160  -38.3720 C.3    74  ARG74       0.0489
     45  CD       -10.9960   21.3300  -38.9600 C.3    74  ARG74       0.2205
     46  NE       -10.6830   21.3470  -40.3790 N.pl3  74  ARG74      -0.0865
     47  CZ       -10.4440   20.2570  -41.0930 C.cat  74  ARG74       0.5346
     48  NH1      -10.4960   19.0610  -40.5170 N.pl3  74  ARG74       0.1354
     49  NH2      -10.1560   20.3650  -42.3800 N.pl3  74  ARG74       0.1354
     50  N        -14.5570   23.5340  -40.0150 N.3    77  SER77      -0.1217
     51  CA       -15.0340   22.1570  -40.0850 C.3    77  SER77       0.1889
     52  C        -15.0520   21.5370  -38.6980 C.2    77  SER77       0.2288
     53  O        -14.2430   21.8910  -37.8480 O.2    77  SER77      -0.2866
     54  CB       -14.1210   21.3290  -40.9930 C.3    77  SER77       0.2089
     55  OG       -14.3880   19.9410  -40.8530 O.3    77  SER77      -0.2183
     56  N        -14.4500   18.4430  -38.2590 N.3    79  ASN79      -0.1240
     57  CA       -13.5950   17.2710  -38.3280 C.3    79  ASN79       0.1653
     58  C        -12.4050   17.3220  -37.3690 C.2    79  ASN79       0.2266
     59  O        -11.4720   18.1270  -37.5320 O.2    79  ASN79      -0.2867
     60  CB       -13.1550   16.9890  -39.7620 C.3    79  ASN79       0.1155
     61  CG       -14.2090   16.2350  -40.5520 C.2    79  ASN79       0.2627
     62  OD1      -15.3330   16.0490  -40.0870 O.2    79  ASN79      -0.2716
     63  ND2      -13.8550   15.8170  -41.7620 N.am   79  ASN79      -0.0877
     64  N        -16.6520   13.3630  -39.7290 N.3   141  ASP141     -0.1239
     65  CA       -17.4180   12.5700  -40.6930 C.3   141  ASP141      0.1674
     66  C        -17.4530   11.1210  -40.2350 C.2   141  ASP141      0.2266
     67  O        -18.4560   10.4280  -40.3970 O.2   141  ASP141     -0.2867
     68  CB       -16.8160   12.6950  -42.0930 C.3   141  ASP141      0.1410
     69  CG       -16.9760   14.0850  -42.6640 C.2   141  ASP141      0.3668
     70  OD1      -18.0350   14.7020  -42.4150 O.co2 141  ASP141     -0.2456
     71  OD2      -16.0460   14.5620  -43.3510 O.co2 141  ASP141     -0.2456
     72  N        -12.0830    8.9800  -34.3710 N.3   145  LYS145     -0.1231
     73  CA       -11.0460    8.4170  -35.2160 C.3   145  LYS145      0.1693
     74  C         -9.8270    9.3310  -35.3250 C.2   145  LYS145      0.2592
     75  O         -8.6940    8.8670  -35.2870 O.2   145  LYS145     -0.2718
     76  CB       -11.6200    8.1340  -36.6100 C.3   145  LYS145      0.0285
     77  CG       -10.9280    7.0150  -37.3630 C.3   145  LYS145      0.0035
     78  CD       -10.0220    7.5490  -38.4610 C.3   145  LYS145      0.0206
     79  CE       -10.3690    6.9230  -39.7950 C.3   145  LYS145      0.1093
     80  NZ       -11.7260    7.3380  -40.2510 N.3   145  LYS145     -0.1314
     81  N        -10.0720   10.6340  -35.4560 N.am  146  TYR146     -0.1976
     82  CA        -8.9910   11.6050  -35.6340 C.3   146  TYR146      0.1639
     83  C         -9.2780   12.8660  -34.8260 C.2   146  TYR146      0.2290
     84  O        -10.4280   13.1490  -34.4910 O.2   146  TYR146     -0.2864
     85  CB        -8.8010   11.9490  -37.1210 C.3   146  TYR146      0.0560
     86  CG       -10.0950   12.0920  -37.8890 C.ar  146  TYR146     -0.0198
     87  CD1      -10.8260   13.2780  -37.8660 C.ar  146  TYR146     -0.0009
     88  CD2      -10.5900   11.0350  -38.6440 C.ar  146  TYR146     -0.0009
     89  CE1      -12.0110   13.3990  -38.5770 C.ar  146  TYR146      0.0417
     90  CE2      -11.7710   11.1530  -39.3520 C.ar  146  TYR146      0.0417
     91  CZ       -12.4730   12.3310  -39.3150 C.ar  146  TYR146      0.1957
     92  OH       -13.6470   12.4340  -40.0230 O.3   146  TYR146     -0.2866
@<TRIPOS>BOND
     1     7     6   ar
     2    38    37    1
     3     6     5    1
     4     6     8   ar
     5     5     2    1
     6     2     3    1
     7     2     1    1
     8    35    37   ar
     9    35    33   ar
    10     3     4    2
    11    37    36   ar
    12    33    32   ar
    13    71    69   ar
    14    36    34   ar
    15    69    70   ar
    16    69    68    1
    17    30    29    2
    18    49    47    1
    19    32    34   ar
    20    32    31    1
    21    15    14   ar
    22     9    10    1
    23    68    65    1
    24    29    28    1
    25    16    14   ar
    26    63    61   am
    27    14    13    1
    28    31    28    1
    29    47    48    1
    30    47    46    2
    31    54    55    1
    32    54    51    1
    33    28    27    1
    34    10    13    1
    35    10    11    1
    36    65    66    1
    37    65    64    1
    38    61    62    2
    39    61    60    1
    40    67    66    2
    41    46    45    1
    42    80    79    1
    43    51    50    1
    44    51    52    1
    45    92    91    1
    46    79    78    1
    47    60    57    1
    48    11    12    2
    49    26    24   ar
    50    26    25   ar
    51    24    22   ar
    52    25    23   ar
    53    90    91   ar
    54    90    88   ar
    55    91    89   ar
    56    23    22   ar
    57    22    21    1
    58    21    18    1
    59    45    44    1
    60    52    53    2
    61    88    86   ar
    62    89    87   ar
    63    78    77    1
    64    44    43    1
    65    57    56    1
    66    57    58    1
    67    20    19    2
    68    86    87   ar
    69    86    85    1
    70    19    18    1
    71    18    17    1
    72    59    58    2
    73    77    76    1
    74    85    82    1
    75    43    40    1
    76    76    73    1
    77    41    40    1
    78    41    42    2
    79    40    39    1
    80    82    81    1
    81    82    83    1
    82    81    74   am
    83    74    75    2
    84    74    73    1
    85    73    72    1
    86    83    84    2
