@<TRIPOS>MOLECULE
tmp/4lktB00.pdb
 202 185 0 0 0
SMALL
GASTEIGER

@<TRIPOS>ATOM
      1  N         45.8270  -10.5340   22.0090 N.3    20  PHE20      -0.1241
      2  CA        46.1510  -10.9690   20.6540 C.3    20  PHE20       0.1605
      3  C         45.7410   -9.9390   19.6070 C.2    20  PHE20       0.2264
      4  O         46.5410   -9.5720   18.7470 O.2    20  PHE20      -0.2867
      5  CB        45.5080  -12.3240   20.3510 C.3    20  PHE20       0.0534
      6  CG        45.9410  -12.9190   19.0420 C.ar   20  PHE20      -0.0203
      7  CD1       47.2820  -12.9580   18.6940 C.ar   20  PHE20      -0.0042
      8  CD2       45.0110  -13.4520   18.1640 C.ar   20  PHE20      -0.0042
      9  CE1       47.6860  -13.5080   17.4930 C.ar   20  PHE20      -0.0003
     10  CE2       45.4090  -14.0080   16.9630 C.ar   20  PHE20      -0.0003
     11  CZ        46.7490  -14.0340   16.6260 C.ar   20  PHE20      -0.0000
     12  N         48.0390   -7.1520   19.7230 N.3    23  TYR23      -0.1227
     13  CA        49.3430   -7.4790   19.1530 C.3    23  TYR23       0.1736
     14  C         49.2990   -7.4640   17.6300 C.2    23  TYR23       0.2595
     15  O         50.2490   -7.0350   16.9760 O.2    23  TYR23      -0.2718
     16  CB        49.8260   -8.8420   19.6580 C.3    23  TYR23       0.0548
     17  CG        51.0300   -9.3860   18.9180 C.ar   23  TYR23      -0.0200
     18  CD1       52.3060   -8.9020   19.1740 C.ar   23  TYR23      -0.0009
     19  CD2       50.8890  -10.3920   17.9700 C.ar   23  TYR23      -0.0009
     20  CE1       53.4080   -9.4000   18.5010 C.ar   23  TYR23       0.0417
     21  CE2       51.9830  -10.8950   17.2930 C.ar   23  TYR23       0.0417
     22  CZ        53.2400  -10.3960   17.5620 C.ar   23  TYR23       0.1957
     23  OH        54.3310  -10.8960   16.8890 O.3    23  TYR23      -0.2866
     24  N         48.1880   -7.9340   17.0740 N.am   24  MET24      -0.1979
     25  CA        48.0100   -7.9740   15.6280 C.3    24  MET24       0.1605
     26  C         47.8750   -6.5740   15.0460 C.2    24  MET24       0.2287
     27  O         48.3160   -6.3150   13.9280 O.2    24  MET24      -0.2864
     28  CB        46.7840   -8.8050   15.2710 C.3    24  MET24       0.0413
     29  CG        46.8890  -10.2590   15.6660 C.3    24  MET24       0.0598
     30  SD        45.4210  -11.1420   15.1350 S.3    24  MET24      -0.1393
     31  CE        45.3200  -10.5460   13.4580 C.3    24  MET24       0.0692
     32  N         51.2890   -5.2270   14.5760 N.3    27  LEU27      -0.1245
     33  CA        51.9060   -5.8230   13.3960 C.3    27  LEU27       0.1561
     34  C         51.5230   -5.0480   12.1430 C.2    27  LEU27       0.2260
     35  O         52.3360   -4.8680   11.2340 O.2    27  LEU27      -0.2867
     36  CB        51.4920   -7.2890   13.2480 C.3    27  LEU27       0.0270
     37  CG        52.0070   -8.2840   14.2890 C.3    27  LEU27       0.0019
     38  CD1       51.4090   -9.6560   14.0420 C.3    27  LEU27       0.0001
     39  CD2       53.5250   -8.3440   14.2630 C.3    27  LEU27       0.0001
     40  N         48.1410   -5.6340   10.9560 N.3    29  VAL29      -0.1245
     41  CA        47.1000   -6.4790   10.3910 C.3    29  VAL29       0.1561
     42  C         45.7650   -5.7420   10.3210 C.2    29  VAL29       0.2260
     43  O         45.3010   -5.1830   11.3150 O.2    29  VAL29      -0.2867
     44  CB        46.9250   -7.7700   11.2060 C.3    29  VAL29       0.0252
     45  CG1       45.9860   -8.7120   10.4900 C.3    29  VAL29       0.0019
     46  CG2       48.2720   -8.4390   11.4320 C.3    29  VAL29       0.0019
     47  N         41.2630   -8.9650    8.7170 N.3    33  LEU33      -0.1245
     48  CA        42.0780  -10.1370    9.0160 C.3    33  LEU33       0.1561
     49  C         42.1600  -10.4160   10.5150 C.2    33  LEU33       0.2260
     50  O         42.3130  -11.5650   10.9300 O.2    33  LEU33      -0.2867
     51  CB        43.4830   -9.9800    8.4330 C.3    33  LEU33       0.0270
     52  CG        43.7910  -10.6820    7.1110 C.3    33  LEU33       0.0019
     53  CD1       45.2640  -10.5270    6.7670 C.3    33  LEU33       0.0001
     54  CD2       43.4060  -12.1510    7.1880 C.3    33  LEU33       0.0001
     55  N         39.3930  -12.6120   11.8080 N.3    36  MET36      -0.1230
     56  CA        39.5890  -13.9830   11.4550 C.3    36  MET36       0.1702
     57  C         40.5700  -14.5990   12.3970 C.2    36  MET36       0.2592
     58  O         40.3160  -15.6130   12.9700 O.2    36  MET36      -0.2718
     59  CB        40.0950  -14.0680   10.0400 C.3    36  MET36       0.0401
     60  CG        39.3990  -13.1300    9.1540 C.3    36  MET36       0.0596
     61  SD        39.6430  -13.4150    7.4280 S.3    36  MET36      -0.1393
     62  CE        38.0220  -13.9420    6.9370 C.3    36  MET36       0.0692
     63  N         41.6960  -13.9510   12.5600 N.am   37  GLY37      -0.1957
     64  CA        42.7620  -14.4340   13.4140 C.3    37  GLY37       0.1869
     65  C         42.2980  -14.6380   14.8420 C.2    37  GLY37       0.2309
     66  O         42.6840  -15.6090   15.4890 O.2    37  GLY37      -0.2863
     67  N         39.7520  -17.7930   15.0990 N.3    40  ALA40      -0.1245
     68  CA        40.3380  -19.1130   14.8830 C.3    40  ALA40       0.1562
     69  C         40.7910  -19.7680   16.1820 C.2    40  ALA40       0.2260
     70  O         41.3470  -19.1100   17.0600 O.2    40  ALA40      -0.2867
     71  CB        41.5030  -19.0300   13.8960 C.3    40  ALA40       0.0290
     72  N         48.9680  -25.9590   17.1610 N.3    44  CYS44      -0.1235
     73  CA        50.3790  -25.6570   16.9810 C.3    44  CYS44       0.1677
     74  C         51.1960  -26.9400   17.0280 C.2    44  CYS44       0.2270
     75  O         51.2370  -27.6220   18.0510 O.2    44  CYS44      -0.2867
     76  CB        50.8630  -24.6780   18.0510 C.3    44  CYS44       0.0956
     77  SG        52.5720  -24.1360   17.8340 S.3    44  CYS44      -0.0801
     78  N         51.4030  -23.6580   12.2540 N.3    57  THR57      -0.1218
     79  CA        50.2320  -22.9980   12.8180 C.3    57  THR57       0.1862
     80  C         49.0170  -23.3310   11.9640 C.2    57  THR57       0.2287
     81  O         48.8840  -22.8490   10.8390 O.2    57  THR57      -0.2866
     82  CB        50.4200  -21.4750   12.8980 C.3    57  THR57       0.1770
     83  OG1       51.6290  -21.1800   13.6080 O.3    57  THR57      -0.2211
     84  CG2       49.2440  -20.8340   13.6180 C.3    57  THR57       0.0375
     85  N         44.8020  -23.9970   11.3290 N.3    59  SER59      -0.1217
     86  CA        43.3810  -23.8490   11.6170 C.3    59  SER59       0.1889
     87  C         42.6090  -24.4410   10.4460 C.2    59  SER59       0.2288
     88  O         43.1860  -24.6970    9.3890 O.2    59  SER59      -0.2866
     89  CB        43.0090  -22.3790   11.8120 C.3    59  SER59       0.2089
     90  OG        43.1210  -21.6580   10.5980 O.3    59  SER59      -0.2183
     91  N         40.6610  -23.1480    8.4160 N.3    61  LEU61      -0.1231
     92  CA        40.5750  -22.2540    7.2660 C.3    61  LEU61       0.1693
     93  C         41.9420  -21.8580    6.7040 C.2    61  LEU61       0.2591
     94  O         42.1160  -21.7650    5.4890 O.2    61  LEU61      -0.2718
     95  CB        39.7680  -21.0040    7.6270 C.3    61  LEU61       0.0284
     96  CG        38.3220  -21.2580    8.0580 C.3    61  LEU61       0.0019
     97  CD1       37.6470  -19.9650    8.4880 C.3    61  LEU61       0.0001
     98  CD2       37.5430  -21.9260    6.9380 C.3    61  LEU61       0.0001
     99  N         42.9070  -21.6260    7.5880 N.am   62  LYS62      -0.1980
    100  CA        44.2350  -21.1830    7.1710 C.3    62  LYS62       0.1596
    101  C         45.3360  -21.9390    7.9100 C.2    62  LYS62       0.2287
    102  O         45.2150  -22.2220    9.1020 O.2    62  LYS62      -0.2864
    103  CB        44.3840  -19.6750    7.3980 C.3    62  LYS62       0.0298
    104  CG        45.7760  -19.1150    7.1270 C.3    62  LYS62       0.0038
    105  CD        45.8460  -18.3810    5.7960 C.3    62  LYS62       0.0206
    106  CE        47.1920  -17.6890    5.6250 C.3    62  LYS62       0.1093
    107  NZ        47.2530  -16.8640    4.3860 N.3    62  LYS62      -0.1314
    108  N         54.7660  -15.0200    6.9840 N.3    78  THR78      -0.1203
    109  CA        53.8480  -15.1900    8.1050 C.3    78  THR78       0.1994
    110  C         52.3990  -15.3330    7.6510 C.2    78  THR78       0.2618
    111  O         52.0800  -15.1310    6.4790 O.2    78  THR78      -0.2717
    112  CB        53.9540  -14.0210    9.0980 C.3    78  THR78       0.1784
    113  OG1       53.4720  -12.8220    8.4810 O.3    78  THR78      -0.2211
    114  CG2       55.3990  -13.8220    9.5310 C.3    78  THR78       0.0376
    115  N         51.5280  -15.6790    8.5940 N.am   79  ALA79      -0.1965
    116  CA        50.1160  -15.9080    8.3040 C.3    79  ALA79       0.1728
    117  C         49.4130  -14.6510    7.8000 C.2    79  ALA79       0.2616
    118  O         48.4370  -14.7350    7.0550 O.2    79  ALA79      -0.2715
    119  CB        49.4080  -16.4570    9.5350 C.3    79  ALA79       0.0334
    120  N         49.9100  -13.4870    8.2090 N.am   80  ASP80      -0.1971
    121  CA        49.3130  -12.2210    7.7970 C.3    80  ASP80       0.1709
    122  C         49.9120  -11.6950    6.4930 C.2    80  ASP80       0.2293
    123  O         49.4810  -10.6660    5.9750 O.2    80  ASP80      -0.2864
    124  CB        49.4310  -11.1730    8.9070 C.3    80  ASP80       0.1436
    125  CG        50.8340  -11.0730    9.4710 C.2    80  ASP80       0.3671
    126  OD1       51.3510   -9.9430    9.5780 O.co2  80  ASP80      -0.2456
    127  OD2       51.4150  -12.1240    9.8150 O.co2  80  ASP80      -0.2456
    128  N         53.3630  -11.1760    5.9230 N.3    82  ARG82      -0.1245
    129  CA        54.6200  -10.4540    6.0850 C.3    82  ARG82       0.1563
    130  C         55.8080  -11.2820    5.6110 C.2    82  ARG82       0.2260
    131  O         55.8750  -12.4860    5.8540 O.2    82  ARG82      -0.2867
    132  CB        54.8360  -10.0570    7.5480 C.3    82  ARG82       0.0307
    133  CG        54.0550   -8.8380    8.0000 C.3    82  ARG82       0.0489
    134  CD        54.2470   -8.5950    9.4900 C.3    82  ARG82       0.2205
    135  NE        53.7550   -9.7150   10.2890 N.pl3  82  ARG82      -0.0865
    136  CZ        54.4730  -10.3590   11.2040 C.cat  82  ARG82       0.5346
    137  NH1       55.7240   -9.9940   11.4510 N.pl3  82  ARG82       0.1354
    138  NH2       53.9380  -11.3670   11.8780 N.pl3  82  ARG82       0.1354
    139  N         61.5770  -11.8030   14.7630 N.3    99  GLN99      -0.1245
    140  CA        61.2530  -11.3980   13.4000 C.3    99  GLN99       0.1566
    141  C         61.6880   -9.9630   13.1320 C.2    99  GLN99       0.2260
    142  O         61.5850   -9.1030   14.0040 O.2    99  GLN99      -0.2867
    143  CB        59.7510  -11.5240   13.1450 C.3    99  GLN99       0.0367
    144  CG        59.2110  -12.9400   13.2000 C.3    99  GLN99       0.0905
    145  CD        57.7030  -12.9830   13.0580 C.2    99  GLN99       0.2608
    146  OE1       57.0100  -12.0230   13.3960 O.2    99  GLN99      -0.2717
    147  NE2       57.1860  -14.0960   12.5510 N.am   99  GLN99      -0.0878
    148  N         58.4920  -13.6810   19.4260 N.3   108  ILE108     -0.1245
    149  CA        57.5690  -14.6770   19.9500 C.3   108  ILE108      0.1561
    150  C         58.3350  -15.6840   20.7960 C.2   108  ILE108      0.2260
    151  O         59.2300  -16.3700   20.3030 O.2   108  ILE108     -0.2867
    152  CB        56.8270  -15.4110   18.8210 C.3   108  ILE108      0.0252
    153  CG1       55.9700  -14.4250   18.0230 C.3   108  ILE108      0.0019
    154  CG2       55.9670  -16.5290   19.3900 C.3   108  ILE108      0.0019
    155  CD1       55.3320  -15.0260   16.7910 C.3   108  ILE108      0.0001
    156  N         58.1730  -19.0180   23.2170 N.3   110  ARG110     -0.1245
    157  CA        57.3950  -20.1890   23.5920 C.3   110  ARG110      0.1563
    158  C         58.1270  -20.9890   24.6600 C.2   110  ARG110      0.2260
    159  O         59.2870  -21.3600   24.4810 O.2   110  ARG110     -0.2867
    160  CB        57.1410  -21.0680   22.3670 C.3   110  ARG110      0.0307
    161  CG        56.4000  -20.3640   21.2450 C.3   110  ARG110      0.0489
    162  CD        56.2610  -21.2590   20.0260 C.3   110  ARG110      0.2205
    163  NE        55.3940  -20.6650   19.0130 N.pl3 110  ARG110     -0.0865
    164  CZ        55.8180  -19.8700   18.0370 C.cat 110  ARG110      0.5346
    165  NH1       57.1050  -19.5670   17.9360 N.pl3 110  ARG110      0.1354
    166  NH2       54.9540  -19.3760   17.1600 N.pl3 110  ARG110      0.1354
    167  N         52.7290  -19.1360   25.0940 N.3   119  VAL119     -0.1245
    168  CA        53.2530  -18.3380   23.9940 C.3   119  VAL119      0.1561
    169  C         53.1140  -16.8490   24.2860 C.2   119  VAL119      0.2260
    170  O         52.0070  -16.3380   24.4550 O.2   119  VAL119     -0.2867
    171  CB        52.5450  -18.6620   22.6670 C.3   119  VAL119      0.0252
    172  CG1       53.1570  -17.8550   21.5320 C.3   119  VAL119      0.0019
    173  CG2       52.6290  -20.1510   22.3730 C.3   119  VAL119      0.0019
    174  N         53.7950  -13.1710   22.8030 N.3   121  CYS121     -0.1235
    175  CA        54.0920  -12.3820   21.6150 C.3   121  CYS121      0.1677
    176  C         54.3350  -10.9290   22.0000 C.2   121  CYS121      0.2270
    177  O         53.5230  -10.3200   22.6960 O.2   121  CYS121     -0.2867
    178  CB        52.9440  -12.4770   20.6110 C.3   121  CYS121      0.0956
    179  SG        52.4690  -14.1680   20.1890 S.3   121  CYS121     -0.0801
    180  N         49.2170  -16.1970   24.8030 N.3   130  ARG130     -0.1245
    181  CA        48.3440  -17.2900   24.3980 C.3   130  ARG130      0.1563
    182  C         48.8100  -18.5970   25.0270 C.2   130  ARG130      0.2260
    183  O         50.0080  -18.8270   25.1870 O.2   130  ARG130     -0.2867
    184  CB        48.3090  -17.4000   22.8730 C.3   130  ARG130      0.0307
    185  CG        47.7550  -16.1540   22.2020 C.3   130  ARG130      0.0489
    186  CD        48.1490  -16.0520   20.7360 C.3   130  ARG130      0.2205
    187  NE        47.5200  -17.0740   19.9050 N.pl3 130  ARG130     -0.0865
    188  CZ        46.2490  -17.0450   19.5150 C.cat 130  ARG130      0.5346
    189  NH1       45.4570  -16.0520   19.8960 N.pl3 130  ARG130      0.1354
    190  NH2       45.7660  -18.0150   18.7530 N.pl3 130  ARG130      0.1354
    191  N         48.4360  -22.9160   25.1310 N.3   132  TYR132     -0.1241
    192  CA        48.0430  -24.1130   24.4010 C.3   132  TYR132      0.1605
    193  C         48.0580  -25.3450   25.3020 C.2   132  TYR132      0.2264
    194  O         48.7930  -25.3960   26.2880 O.2   132  TYR132     -0.2867
    195  CB        48.9810  -24.3400   23.2150 C.3   132  TYR132      0.0534
    196  CG        48.8320  -23.3450   22.0840 C.ar  132  TYR132     -0.0201
    197  CD1       48.2270  -23.7110   20.8890 C.ar  132  TYR132     -0.0009
    198  CD2       49.3060  -22.0450   22.2070 C.ar  132  TYR132     -0.0009
    199  CE1       48.0940  -22.8100   19.8500 C.ar  132  TYR132      0.0417
    200  CE2       49.1760  -21.1370   21.1730 C.ar  132  TYR132      0.0417
    201  CZ        48.5690  -21.5250   19.9980 C.ar  132  TYR132      0.1957
    202  OH        48.4380  -20.6250   18.9660 O.3   132  TYR132     -0.2866
@<TRIPOS>BOND
     1   107   106    1
     2    94    93    2
     3   130   131    2
     4   130   129    1
     5   106   105    1
     6   105   104    1
     7   128   129    1
     8   123   122    2
     9   129   132    1
    10   111   110    2
    11   122   121    1
    12    93    92    1
    13    93    99   am
    14    53    52    1
    15    62    61    1
    16    98    96    1
    17   108   109    1
    18   118   117    2
    19    52    54    1
    20    52    51    1
    21   104   103    1
    22   100   103    1
    23   100    99    1
    24   100   101    1
    25    92    95    1
    26    92    91    1
    27    61    60    1
    28   132   133    1
    29    95    96    1
    30   110   109    1
    31   110   115   am
    32   121   120    1
    33   121   124    1
    34   117   120   am
    35   117   116    1
    36   101   102    2
    37   133   134    1
    38    96    97    1
    39   109   112    1
    40   116   115    1
    41   116   119    1
    42    51    48    1
    43   113   112    1
    44    47    48    1
    45   124   125    1
    46    48    49    1
    47   112   114    1
    48    60    59    1
    49    88    87    2
    50   125   126   ar
    51   125   127   ar
    52   134   135    1
    53    59    56    1
    54   135   136    2
    55    42    41    1
    56    42    43    2
    57    41    40    1
    58    41    44    1
    59    87    86    1
    60    45    44    1
    61    49    50    2
    62    90    89    1
    63    81    80    2
    64   136   137    1
    65   136   138    1
    66    44    46    1
    67    35    34    2
    68    85    86    1
    69    56    55    1
    70    56    57    1
    71    86    89    1
    72    80    79    1
    73    34    33    1
    74    78    79    1
    75    57    63   am
    76    57    58    2
    77   147   145   am
    78    63    64    1
    79    79    82    1
    80    82    83    1
    81    82    84    1
    82   145   144    1
    83   145   146    2
    84   141   140    1
    85   141   142    2
    86   143   144    1
    87   143   140    1
    88    36    33    1
    89    36    37    1
    90    33    32    1
    91   140   139    1
    92    64    65    1
    93    31    30    1
    94    71    68    1
    95    27    26    2
    96    38    37    1
    97    39    37    1
    98    65    66    2
    99    68    67    1
   100    68    69    1
   101    26    25    1
   102    30    29    1
   103    28    25    1
   104    28    29    1
   105    25    24    1
   106    69    70    2
   107    11    10   ar
   108    11     9   ar
   109   155   153    1
   110    23    22    1
   111    10     8   ar
   112    15    14    2
   113    73    74    1
   114    73    72    1
   115    73    76    1
   116    74    75    2
   117    24    14   am
   118   166   164    1
   119    21    22   ar
   120    21    19   ar
   121     9     7   ar
   122    22    20   ar
   123    14    13    1
   124    77    76    1
   125   165   164    1
   126    19    17   ar
   127   153   152    1
   128   164   163    2
   129     8     6   ar
   130    20    18   ar
   131     7     6   ar
   132     4     3    2
   133   190   188    1
   134   152   154    1
   135   152   149    1
   136    17    18   ar
   137    17    16    1
   138   202   201    1
   139   163   162    1
   140     6     5    1
   141    13    16    1
   142    13    12    1
   143   148   149    1
   144   188   189    1
   145   188   187    2
   146     3     2    1
   147   199   201   ar
   148   199   197   ar
   149   187   186    1
   150   149   150    1
   151   201   200   ar
   152   162   161    1
   153   179   178    1
   154   151   150    2
   155     5     2    1
   156   178   175    1
   157     2     1    1
   158   186   185    1
   159   197   196   ar
   160   200   198   ar
   161   161   160    1
   162   172   171    1
   163   175   176    1
   164   175   174    1
   165   176   177    2
   166   196   198   ar
   167   196   195    1
   168   185   184    1
   169   160   157    1
   170   173   171    1
   171   171   168    1
   172   184   181    1
   173   195   192    1
   174   156   157    1
   175   157   158    1
   176   168   169    1
   177   168   167    1
   178   169   170    2
   179   181   180    1
   180   181   182    1
   181   192   191    1
   182   192   193    1
   183   159   158    2
   184   182   183    2
   185   193   194    2
