@<TRIPOS>MOLECULE
tmp/4lkvC01.pdb
 121 114 0 0 0
SMALL
GASTEIGER

@<TRIPOS>ATOM
      1  N        -24.4000   25.1400   -2.7610 N.3    12  TYR12      -0.1241
      2  CA       -24.3240   24.4200   -4.0170 C.3    12  TYR12       0.1605
      3  C        -24.8210   22.9930   -3.8740 C.2    12  TYR12       0.2264
      4  O        -25.4030   22.4370   -4.8010 O.2    12  TYR12      -0.2867
      5  CB       -22.8930   24.4270   -4.5290 C.3    12  TYR12       0.0534
      6  CG       -22.7100   23.6570   -5.7980 C.ar   12  TYR12      -0.0201
      7  CD1      -23.4560   23.9540   -6.9180 C.ar   12  TYR12      -0.0009
      8  CD2      -21.7800   22.6420   -5.8840 C.ar   12  TYR12      -0.0009
      9  CE1      -23.2880   23.2530   -8.0890 C.ar   12  TYR12       0.0417
     10  CE2      -21.6030   21.9370   -7.0490 C.ar   12  TYR12       0.0417
     11  CZ       -22.3590   22.2440   -8.1490 C.ar   12  TYR12       0.1957
     12  OH       -22.1820   21.5380   -9.3130 O.3    12  TYR12      -0.2866
     13  N        -27.7220   20.8570   -6.2540 N.3    16  ILE16      -0.1245
     14  CA       -27.4450   19.6070   -6.9370 C.3    16  ILE16       0.1561
     15  C        -28.3730   18.5140   -6.4670 C.2    16  ILE16       0.2260
     16  O        -28.9450   17.7850   -7.2720 O.2    16  ILE16      -0.2867
     17  CB       -26.0120   19.1590   -6.7160 C.3    16  ILE16       0.0252
     18  CG1      -25.0630   20.1380   -7.3830 C.3    16  ILE16       0.0019
     19  CG2      -25.7980   17.7960   -7.3170 C.3    16  ILE16       0.0019
     20  CD1      -25.1890   20.1350   -8.8740 C.3    16  ILE16       0.0001
     21  N        -31.8260   19.0490   -7.8260 N.3    19  ARG19      -0.1245
     22  CA       -31.8930   18.7080   -9.2280 C.3    19  ARG19       0.1563
     23  C        -31.9710   17.2060   -9.3940 C.2    19  ARG19       0.2260
     24  O        -32.8020   16.6960  -10.1370 O.2    19  ARG19      -0.2867
     25  CB       -30.6810   19.2590   -9.9620 C.3    19  ARG19       0.0307
     26  CG       -30.6410   18.9120  -11.4270 C.3    19  ARG19       0.0489
     27  CD       -29.5040   19.6330  -12.1130 C.3    19  ARG19       0.2205
     28  NE       -29.3890   19.2410  -13.5110 N.pl3  19  ARG19      -0.0865
     29  CZ       -28.7390   18.1640  -13.9350 C.cat  19  ARG19       0.5346
     30  NH1      -28.1390   17.3590  -13.0700 N.pl3  19  ARG19       0.1354
     31  NH2      -28.6900   17.8910  -15.2290 N.pl3  19  ARG19       0.1354
     32  N        -18.8690   16.1330  -25.9410 N.3    71  ARG71      -0.1245
     33  CA       -19.3590   17.3580  -25.3420 C.3    71  ARG71       0.1563
     34  C        -19.0590   18.5530  -26.2250 C.2    71  ARG71       0.2260
     35  O        -19.9690   19.2500  -26.6700 O.2    71  ARG71      -0.2867
     36  CB       -18.7390   17.5510  -23.9600 C.3    71  ARG71       0.0307
     37  CG       -19.0520   18.8800  -23.3170 C.3    71  ARG71       0.0489
     38  CD       -18.9610   18.7780  -21.8070 C.3    71  ARG71       0.2205
     39  NE       -20.1360   18.1300  -21.2390 N.pl3  71  ARG71      -0.0865
     40  CZ       -20.1790   17.6110  -20.0200 C.cat  71  ARG71       0.5346
     41  NH1      -19.1060   17.6460  -19.2500 N.pl3  71  ARG71       0.1354
     42  NH2      -21.2890   17.0440  -19.5780 N.pl3  71  ARG71       0.1354
     43  N        -17.2270   21.3300  -25.3340 N.3    73  TYR73      -0.1241
     44  CA       -17.5990   22.4370  -24.4700 C.3    73  TYR73       0.1605
     45  C        -17.3100   23.7830  -25.1170 C.2    73  TYR73       0.2264
     46  O        -18.1270   24.7000  -25.0530 O.2    73  TYR73      -0.2867
     47  CB       -16.8700   22.3300  -23.1340 C.3    73  TYR73       0.0534
     48  CG       -17.0630   23.5380  -22.2580 C.ar   73  TYR73      -0.0201
     49  CD1      -18.3210   23.8840  -21.7910 C.ar   73  TYR73      -0.0009
     50  CD2      -15.9870   24.3330  -21.8970 C.ar   73  TYR73      -0.0009
     51  CE1      -18.5020   24.9920  -20.9890 C.ar   73  TYR73       0.0417
     52  CE2      -16.1570   25.4420  -21.0960 C.ar   73  TYR73       0.0417
     53  CZ       -17.4150   25.7680  -20.6440 C.ar   73  TYR73       0.1957
     54  OH       -17.5860   26.8740  -19.8430 O.3    73  TYR73      -0.2866
     55  N        -24.1130   19.8700  -27.1510 N.3   116  GLU116     -0.1245
     56  CA       -24.4720   20.2280  -25.7900 C.3   116  GLU116      0.1567
     57  C        -25.6420   19.3790  -25.3440 C.2   116  GLU116      0.2260
     58  O        -25.6280   18.8020  -24.2640 O.2   116  GLU116     -0.2867
     59  CB       -24.8230   21.7100  -25.6900 C.3   116  GLU116      0.0388
     60  CG       -25.1370   22.1770  -24.2760 C.3   116  GLU116      0.1160
     61  CD       -23.9080   22.2060  -23.3820 C.2   116  GLU116      0.3649
     62  OE1      -22.7840   22.3170  -23.9130 O.co2 116  GLU116     -0.2457
     63  OE2      -24.0690   22.1200  -22.1470 O.co2 116  GLU116     -0.2457
     64  N        -27.2580   16.0320  -25.8660 N.3   118  ARG118     -0.1245
     65  CA       -26.7800   14.7840  -26.4270 C.3   118  ARG118      0.1563
     66  C        -27.8690   14.0170  -27.1560 C.2   118  ARG118      0.2260
     67  O        -27.5830   13.2660  -28.0870 O.2   118  ARG118     -0.2867
     68  CB       -26.1740   13.9230  -25.3270 C.3   118  ARG118      0.0307
     69  CG       -24.8310   14.4360  -24.8500 C.3   118  ARG118      0.0489
     70  CD       -24.3740   13.7260  -23.6010 C.3   118  ARG118      0.2205
     71  NE       -22.9450   13.8980  -23.3830 N.pl3 118  ARG118     -0.0865
     72  CZ       -22.3900   15.0050  -22.9120 C.cat 118  ARG118      0.5346
     73  NH1      -23.1430   16.0520  -22.6130 N.pl3 118  ARG118      0.1354
     74  NH2      -21.0790   15.0650  -22.7460 N.pl3 118  ARG118      0.1354
     75  N        -17.4770   11.7020  -20.5180 N.3   138  ASP138     -0.1239
     76  CA       -17.8490   12.7620  -19.5930 C.3   138  ASP138      0.1674
     77  C        -19.3510   12.9920  -19.6390 C.2   138  ASP138      0.2266
     78  O        -19.8100   14.1050  -19.8680 O.2   138  ASP138     -0.2867
     79  CB       -17.0960   14.0520  -19.9230 C.3   138  ASP138      0.1410
     80  CG       -17.2590   15.1090  -18.8600 C.2   138  ASP138      0.3668
     81  OD1      -17.3640   14.7400  -17.6750 O.co2 138  ASP138     -0.2456
     82  OD2      -17.2890   16.3070  -19.2100 O.co2 138  ASP138     -0.2456
     83  N        -22.9400   13.0490  -15.6630 N.3   141  GLN141     -0.1231
     84  CA       -23.8190   14.0450  -15.0850 C.3   141  GLN141      0.1698
     85  C        -25.0200   14.3080  -15.9820 C.2   141  GLN141      0.2592
     86  O        -26.0890   14.6920  -15.5160 O.2   141  GLN141     -0.2718
     87  CB       -23.0490   15.3360  -14.8290 C.3   141  GLN141      0.0381
     88  CG       -22.1510   15.2870  -13.6110 C.3   141  GLN141      0.0905
     89  CD       -20.8850   14.4980  -13.8410 C.2   141  GLN141      0.2608
     90  OE1      -20.4040   14.3860  -14.9640 O.2   141  GLN141     -0.2717
     91  NE2      -20.3350   13.9460  -12.7710 N.am  141  GLN141     -0.0878
     92  N        -24.8380   14.0930  -17.2760 N.am  142  HIS142     -0.1976
     93  CA       -25.8970   14.3540  -18.2330 C.3   142  HIS142      0.1656
     94  C        -26.9790   13.2950  -18.1250 C.2   142  HIS142      0.2291
     95  O        -27.0090   12.3450  -18.9000 O.2   142  HIS142     -0.2864
     96  CB       -25.3350   14.3950  -19.6490 C.3   142  HIS142      0.0771
     97  CG       -26.2550   15.0270  -20.6380 C.ar  142  HIS142      0.0820
     98  ND1      -26.2180   16.3700  -20.9340 N.ar  142  HIS142     -0.2267
     99  CD2      -27.2510   14.5030  -21.3910 C.ar  142  HIS142      0.1154
    100  CE1      -27.1450   16.6470  -21.8330 C.ar  142  HIS142      0.1986
    101  NE2      -27.7850   15.5300  -22.1260 N.ar  142  HIS142     -0.2212
    102  N        -18.0020   17.4060   -8.4060 N.3   170  ARG170     -0.1231
    103  CA       -19.1030   18.0450   -9.1020 C.3   170  ARG170      0.1694
    104  C        -20.4320   17.5560   -8.5660 C.2   170  ARG170      0.2591
    105  O        -21.4560   18.1970   -8.7570 O.2   170  ARG170     -0.2718
    106  CB       -19.0100   17.7930  -10.6020 C.3   170  ARG170      0.0321
    107  CG       -17.8930   18.5720  -11.2720 C.3   170  ARG170      0.0489
    108  CD       -17.8170   18.3140  -12.7680 C.3   170  ARG170      0.2205
    109  NE       -17.3020   16.9830  -13.0690 N.pl3 170  ARG170     -0.0865
    110  CZ       -17.1120   16.5170  -14.2980 C.cat 170  ARG170      0.5346
    111  NH1      -17.3940   17.2730  -15.3460 N.pl3 170  ARG170      0.1354
    112  NH2      -16.6420   15.2920  -14.4790 N.pl3 170  ARG170      0.1354
    113  N        -20.4050   16.4150   -7.8900 N.am  171  GLU171     -0.1979
    114  CA       -21.5920   15.8530   -7.2540 C.3   171  GLU171      0.1602
    115  C        -21.2020   15.1710   -5.9460 C.2   171  GLU171      0.2287
    116  O        -20.0510   14.7840   -5.7750 O.2   171  GLU171     -0.2864
    117  CB       -22.2860   14.8580   -8.1850 C.3   171  GLU171      0.0415
    118  CG       -23.0980   15.4890   -9.3000 C.3   171  GLU171      0.1163
    119  CD       -23.8990   14.4690  -10.0860 C.2   171  GLU171      0.3649
    120  OE1      -23.3420   13.4090  -10.4320 O.co2 171  GLU171     -0.2457
    121  OE2      -25.0900   14.7240  -10.3490 O.co2 171  GLU171     -0.2457
@<TRIPOS>BOND
     1    67    66    2
     2    66    65    1
     3    55    56    1
     4    35    34    2
     5    65    64    1
     6    65    68    1
     7    34    33    1
     8    32    33    1
     9    56    59    1
    10    56    57    1
    11    59    60    1
    12    57    58    2
    13    33    36    1
    14    43    44    1
    15    68    69    1
    16    45    46    2
    17    45    44    1
    18    69    70    1
    19    44    47    1
    20    60    61    1
    21    36    37    1
    22    62    61   ar
    23    70    71    1
    24    71    72    2
    25    61    63   ar
    26    37    38    1
    27    47    48    1
    28    72    74    1
    29    72    73    1
    30    48    50   ar
    31    48    49   ar
    32   101   100   ar
    33   101    99   ar
    34    50    52   ar
    35   100    98   ar
    36    38    39    1
    37    49    51   ar
    38    99    97   ar
    39    39    40    2
    40    52    53   ar
    41    51    53   ar
    42    98    97   ar
    43    53    54    1
    44    97    96    1
    45    75    76    1
    46    40    42    1
    47    40    41    1
    48    79    76    1
    49    79    80    1
    50    78    77    2
    51    96    93    1
    52    77    76    1
    53    82    80   ar
    54    95    94    2
    55    80    81   ar
    56    93    94    1
    57    93    92    1
    58    92    85   am
    59    85    86    2
    60    85    84    1
    61    83    84    1
    62   111   110    1
    63    31    29    1
    64    84    87    1
    65    90    89    2
    66    87    88    1
    67   112   110    1
    68   110   109    2
    69    29    28    2
    70    29    30    1
    71    89    88    1
    72    89    91   am
    73    28    27    1
    74   109   108    1
    75   108   107    1
    76    27    26    1
    77    26    25    1
    78   107   106    1
    79   106   103    1
    80   120   119   ar
    81   121   119   ar
    82    24    23    2
    83   119   118    1
    84    25    22    1
    85    23    22    1
    86    12    11    1
    87   118   117    1
    88    22    21    1
    89   103   104    1
    90   103   102    1
    91    20    18    1
    92   105   104    2
    93   104   113   am
    94   117   114    1
    95    11     9   ar
    96    11    10   ar
    97     9     7   ar
    98   113   114    1
    99    18    17    1
   100    19    17    1
   101    16    15    2
   102   114   115    1
   103    10     8   ar
   104    14    17    1
   105    14    15    1
   106    14    13    1
   107     7     6   ar
   108   115   116    2
   109     8     6   ar
   110     6     5    1
   111     4     3    2
   112     5     2    1
   113     2     3    1
   114     2     1    1
