@<TRIPOS>MOLECULE
tmp/4lkvC00.pdb
 91 84 0 0 0
SMALL
GASTEIGER

@<TRIPOS>ATOM
      1  N        -24.4000   25.1400   -2.7610 N.3    12  TYR12      -0.1241
      2  CA       -24.3240   24.4200   -4.0170 C.3    12  TYR12       0.1605
      3  C        -24.8210   22.9930   -3.8740 C.2    12  TYR12       0.2264
      4  O        -25.4030   22.4370   -4.8010 O.2    12  TYR12      -0.2867
      5  CB       -22.8930   24.4270   -4.5290 C.3    12  TYR12       0.0534
      6  CG       -22.7100   23.6570   -5.7980 C.ar   12  TYR12      -0.0201
      7  CD1      -23.4560   23.9540   -6.9180 C.ar   12  TYR12      -0.0009
      8  CD2      -21.7800   22.6420   -5.8840 C.ar   12  TYR12      -0.0009
      9  CE1      -23.2880   23.2530   -8.0890 C.ar   12  TYR12       0.0417
     10  CE2      -21.6030   21.9370   -7.0490 C.ar   12  TYR12       0.0417
     11  CZ       -22.3590   22.2440   -8.1490 C.ar   12  TYR12       0.1957
     12  OH       -22.1820   21.5380   -9.3130 O.3    12  TYR12      -0.2866
     13  N        -12.9460   16.8880  -10.7800 N.3    45  VAL45      -0.1231
     14  CA       -12.3380   17.6940  -11.8170 C.3    45  VAL45       0.1692
     15  C        -10.8440   17.4340  -11.7740 C.2    45  VAL45       0.2592
     16  O        -10.3240   17.0120  -10.7480 O.2    45  VAL45      -0.2718
     17  CB       -12.6450   19.1800  -11.6050 C.3    45  VAL45       0.0266
     18  CG1      -12.0560   20.0250  -12.7140 C.3    45  VAL45       0.0020
     19  CG2      -14.1420   19.3860  -11.5250 C.3    45  VAL45       0.0020
     20  N        -10.1550   17.6570  -12.8840 N.am   46  GLY46      -0.1957
     21  CA        -8.7220   17.4660  -12.9280 C.3    46  GLY46       0.1869
     22  C         -8.3630   16.1480  -13.5720 C.2    46  GLY46       0.2309
     23  O         -9.1850   15.5450  -14.2600 O.2    46  GLY46      -0.2863
     24  N        -10.0660    9.2690  -17.4350 N.3    50  LYS50      -0.1245
     25  CA       -11.2970    8.8120  -18.0520 C.3    50  LYS50       0.1561
     26  C        -11.2550    8.9850  -19.5560 C.2    50  LYS50       0.2260
     27  O        -11.8090    8.1740  -20.2950 O.2    50  LYS50      -0.2867
     28  CB       -12.4930    9.5550  -17.4630 C.3    50  LYS50       0.0271
     29  CG       -12.9410   10.7720  -18.2310 C.3    50  LYS50       0.0035
     30  CD       -13.7840   11.6740  -17.3680 C.3    50  LYS50       0.0206
     31  CE       -14.2930   12.8370  -18.1720 C.3    50  LYS50       0.1093
     32  NZ       -14.9910   13.8090  -17.3070 N.3    50  LYS50      -0.1314
     33  N        -18.8690   16.1330  -25.9410 N.3    71  ARG71      -0.1245
     34  CA       -19.3590   17.3580  -25.3420 C.3    71  ARG71       0.1563
     35  C        -19.0590   18.5530  -26.2250 C.2    71  ARG71       0.2260
     36  O        -19.9690   19.2500  -26.6700 O.2    71  ARG71      -0.2867
     37  CB       -18.7390   17.5510  -23.9600 C.3    71  ARG71       0.0307
     38  CG       -19.0520   18.8800  -23.3170 C.3    71  ARG71       0.0489
     39  CD       -18.9610   18.7780  -21.8070 C.3    71  ARG71       0.2205
     40  NE       -20.1360   18.1300  -21.2390 N.pl3  71  ARG71      -0.0865
     41  CZ       -20.1790   17.6110  -20.0200 C.cat  71  ARG71       0.5346
     42  NH1      -19.1060   17.6460  -19.2500 N.pl3  71  ARG71       0.1354
     43  NH2      -21.2890   17.0440  -19.5780 N.pl3  71  ARG71       0.1354
     44  N        -17.2270   21.3300  -25.3340 N.3    73  TYR73      -0.1241
     45  CA       -17.5990   22.4370  -24.4700 C.3    73  TYR73       0.1605
     46  C        -17.3100   23.7830  -25.1170 C.2    73  TYR73       0.2264
     47  O        -18.1270   24.7000  -25.0530 O.2    73  TYR73      -0.2867
     48  CB       -16.8700   22.3300  -23.1340 C.3    73  TYR73       0.0534
     49  CG       -17.0630   23.5380  -22.2580 C.ar   73  TYR73      -0.0201
     50  CD1      -18.3210   23.8840  -21.7910 C.ar   73  TYR73      -0.0009
     51  CD2      -15.9870   24.3330  -21.8970 C.ar   73  TYR73      -0.0009
     52  CE1      -18.5020   24.9920  -20.9890 C.ar   73  TYR73       0.0417
     53  CE2      -16.1570   25.4420  -21.0960 C.ar   73  TYR73       0.0417
     54  CZ       -17.4150   25.7680  -20.6440 C.ar   73  TYR73       0.1957
     55  OH       -17.5860   26.8740  -19.8430 O.3    73  TYR73      -0.2866
     56  N        -11.6970   18.9730  -27.9390 N.3    99  GLU99      -0.1245
     57  CA       -12.0350   17.6890  -27.3500 C.3    99  GLU99       0.1567
     58  C        -12.4570   16.6720  -28.4090 C.2    99  GLU99       0.2260
     59  O        -11.8770   15.5910  -28.4760 O.2    99  GLU99      -0.2867
     60  CB       -13.1290   17.8440  -26.2860 C.3    99  GLU99       0.0388
     61  CG       -12.7260   18.6800  -25.0830 C.3    99  GLU99       0.1160
     62  CD       -12.9740   20.1580  -25.2920 C.2    99  GLU99       0.3649
     63  OE1      -13.9930   20.5080  -25.9210 O.co2  99  GLU99      -0.2457
     64  OE2      -12.1490   20.9700  -24.8260 O.co2  99  GLU99      -0.2457
     65  N        -17.4770   11.7020  -20.5180 N.3   138  ASP138     -0.1239
     66  CA       -17.8490   12.7620  -19.5930 C.3   138  ASP138      0.1674
     67  C        -19.3510   12.9920  -19.6390 C.2   138  ASP138      0.2266
     68  O        -19.8100   14.1050  -19.8680 O.2   138  ASP138     -0.2867
     69  CB       -17.0960   14.0520  -19.9230 C.3   138  ASP138      0.1410
     70  CG       -17.2590   15.1090  -18.8600 C.2   138  ASP138      0.3668
     71  OD1      -17.3640   14.7400  -17.6750 O.co2 138  ASP138     -0.2456
     72  OD2      -17.2890   16.3070  -19.2100 O.co2 138  ASP138     -0.2456
     73  N        -17.5020   21.5060   -5.0910 N.3   164  LEU164     -0.1245
     74  CA       -17.1450   22.7930   -5.6490 C.3   164  LEU164      0.1561
     75  C        -17.9310   23.8560   -4.9240 C.2   164  LEU164      0.2260
     76  O        -18.9710   23.5620   -4.3480 O.2   164  LEU164     -0.2867
     77  CB       -17.4460   22.8330   -7.1410 C.3   164  LEU164      0.0270
     78  CG       -16.4980   22.0370   -8.0170 C.3   164  LEU164      0.0019
     79  CD1      -17.1990   21.7430   -9.3060 C.3   164  LEU164      0.0001
     80  CD2      -15.2320   22.8230   -8.2660 C.3   164  LEU164      0.0001
     81  N        -18.0020   17.4060   -8.4060 N.3   170  ARG170     -0.1245
     82  CA       -19.1030   18.0450   -9.1020 C.3   170  ARG170      0.1563
     83  C        -20.4320   17.5560   -8.5660 C.2   170  ARG170      0.2260
     84  O        -21.4560   18.1970   -8.7570 O.2   170  ARG170     -0.2867
     85  CB       -19.0100   17.7930  -10.6020 C.3   170  ARG170      0.0307
     86  CG       -17.8930   18.5720  -11.2720 C.3   170  ARG170      0.0489
     87  CD       -17.8170   18.3140  -12.7680 C.3   170  ARG170      0.2205
     88  NE       -17.3020   16.9830  -13.0690 N.pl3 170  ARG170     -0.0865
     89  CZ       -17.1120   16.5170  -14.2980 C.cat 170  ARG170      0.5346
     90  NH1      -17.3940   17.2730  -15.3460 N.pl3 170  ARG170      0.1354
     91  NH2      -16.6420   15.2920  -14.4790 N.pl3 170  ARG170      0.1354
@<TRIPOS>BOND
     1    59    58    2
     2    58    57    1
     3    56    57    1
     4    57    60    1
     5    36    35    2
     6    60    61    1
     7    35    34    1
     8    33    34    1
     9    63    62   ar
    10    34    37    1
    11    44    45    1
    12    62    61    1
    13    62    64   ar
    14    46    47    2
    15    46    45    1
    16    45    48    1
    17    37    38    1
    18    38    39    1
    19    48    49    1
    20    49    51   ar
    21    49    50   ar
    22    51    53   ar
    23    39    40    1
    24    50    52   ar
    25    40    41    2
    26    53    54   ar
    27    52    54   ar
    28    54    55    1
    29    65    66    1
    30    27    26    2
    31    41    43    1
    32    41    42    1
    33    69    66    1
    34    69    70    1
    35    68    67    2
    36    67    66    1
    37    26    25    1
    38    72    70   ar
    39    70    71   ar
    40    29    28    1
    41    29    30    1
    42    31    30    1
    43    31    32    1
    44    25    28    1
    45    25    24    1
    46    90    89    1
    47    91    89    1
    48    89    88    2
    49    23    22    2
    50    22    21    1
    51    88    87    1
    52    21    20    1
    53    20    15   am
    54    87    86    1
    55    18    17    1
    56    14    15    1
    57    14    17    1
    58    14    13    1
    59    15    16    2
    60    17    19    1
    61    86    85    1
    62    85    82    1
    63    12    11    1
    64    79    78    1
    65    82    83    1
    66    82    81    1
    67    84    83    2
    68    80    78    1
    69    11     9   ar
    70    11    10   ar
    71     9     7   ar
    72    78    77    1
    73    77    74    1
    74    10     8   ar
    75     7     6   ar
    76     8     6   ar
    77     6     5    1
    78    74    73    1
    79    74    75    1
    80    75    76    2
    81     4     3    2
    82     5     2    1
    83     2     3    1
    84     2     1    1
