@<TRIPOS>MOLECULE
tmp/4ll5A00.pdb
 152 141 0 0 0
SMALL
GASTEIGER

@<TRIPOS>ATOM
      1  N         66.2130 -124.1410    6.2390 N.3    11  LEU11      -0.1231
      2  CA        67.6050 -123.9650    6.6370 C.3    11  LEU11       0.1693
      3  C         67.7770 -122.6780    7.4320 C.2    11  LEU11       0.2592
      4  O         68.5820 -122.6110    8.3650 O.2    11  LEU11      -0.2718
      5  CB        68.5270 -123.9700    5.4160 C.3    11  LEU11       0.0284
      6  CG        68.6860 -125.3210    4.7210 C.3    11  LEU11       0.0019
      7  CD1       69.7050 -125.2510    3.5970 C.3    11  LEU11       0.0001
      8  CD2       69.0880 -126.3760    5.7310 C.3    11  LEU11       0.0001
      9  N         67.0080 -121.6600    7.0600 N.am   12  GLY12      -0.1957
     10  CA        67.0490 -120.3840    7.7460 C.3    12  GLY12       0.1869
     11  C         66.1430 -119.3670    7.0850 C.2    12  GLY12       0.2309
     12  O         65.6780 -119.5750    5.9600 O.2    12  GLY12      -0.2863
     13  N         66.8160 -111.9650    3.7310 N.3    16  PHE16      -0.1241
     14  CA        67.0000 -112.6020    2.4320 C.3    16  PHE16       0.1605
     15  C         65.7900 -113.4340    2.0110 C.2    16  PHE16       0.2264
     16  O         65.6850 -113.8540    0.8550 O.2    16  PHE16      -0.2867
     17  CB        68.2510 -113.4810    2.4530 C.3    16  PHE16       0.0534
     18  CG        68.3130 -114.4260    3.6240 C.ar   16  PHE16      -0.0203
     19  CD1       67.6430 -115.6410    3.5900 C.ar   16  PHE16      -0.0042
     20  CD2       69.0520 -114.1050    4.7530 C.ar   16  PHE16      -0.0042
     21  CE1       67.7040 -116.5130    4.6620 C.ar   16  PHE16      -0.0003
     22  CE2       69.1160 -114.9700    5.8300 C.ar   16  PHE16      -0.0003
     23  CZ        68.4410 -116.1760    5.7850 C.ar   16  PHE16      -0.0000
     24  N         65.0040 -119.9140    3.2310 N.3    19  VAL19      -0.1245
     25  CA        65.7720 -120.9000    2.4710 C.3    19  VAL19       0.1561
     26  C         65.5150 -122.3210    2.9660 C.2    19  VAL19       0.2260
     27  O         65.7130 -122.6230    4.1450 O.2    19  VAL19      -0.2867
     28  CB        67.2810 -120.6150    2.5390 C.3    19  VAL19       0.0252
     29  CG1       68.0550 -121.6680    1.7620 C.3    19  VAL19       0.0019
     30  CG2       67.5820 -119.2320    1.9950 C.3    19  VAL19       0.0019
     31  N         69.3930 -125.7620   -2.6670 N.3    32  ALA32      -0.1245
     32  CA        68.7670 -124.8710   -1.7010 C.3    32  ALA32       0.1562
     33  C         67.6680 -124.1090   -2.4260 C.2    32  ALA32       0.2260
     34  O         67.8820 -123.6050   -3.5310 O.2    32  ALA32      -0.2867
     35  CB        69.7830 -123.9120   -1.1140 C.3    32  ALA32       0.0290
     36  N         65.2660 -120.9380   -2.2600 N.3    34  LYS34      -0.1245
     37  CA        65.0200 -119.6730   -1.5720 C.3    34  LYS34       0.1561
     38  C         63.7620 -118.9630   -2.0490 C.2    34  LYS34       0.2260
     39  O         63.6080 -118.6720   -3.2360 O.2    34  LYS34      -0.2867
     40  CB        66.2200 -118.7290   -1.6820 C.3    34  LYS34       0.0271
     41  CG        66.0110 -117.4230   -0.9230 C.3    34  LYS34       0.0035
     42  CD        67.3210 -116.7190   -0.6250 C.3    34  LYS34       0.0206
     43  CE        67.7580 -115.8550   -1.7850 C.3    34  LYS34       0.1093
     44  NZ        66.7760 -114.7710   -2.0600 N.3    34  LYS34      -0.1314
     45  N         68.9550 -109.5530   -7.5040 N.3    52  GLU52      -0.1245
     46  CA        69.6650 -110.7540   -7.0860 C.3    52  GLU52       0.1567
     47  C         69.7630 -111.7840   -8.2140 C.2    52  GLU52       0.2260
     48  O         70.8100 -112.4060   -8.4060 O.2    52  GLU52      -0.2867
     49  CB        68.9670 -111.3680   -5.8730 C.3    52  GLU52       0.0388
     50  CG        69.6510 -112.6050   -5.3320 C.3    52  GLU52       0.1160
     51  CD        68.9870 -113.1450   -4.0860 C.2    52  GLU52       0.3649
     52  OE1       67.8930 -112.6640   -3.7230 O.co2  52  GLU52      -0.2457
     53  OE2       69.5710 -114.0550   -3.4670 O.co2  52  GLU52      -0.2457
     54  N         78.1790 -119.6800   -4.8980 N.3    67  ILE67      -0.1245
     55  CA        77.0350 -120.5800   -4.9990 C.3    67  ILE67       0.1561
     56  C         76.2120 -120.2090   -6.2300 C.2    67  ILE67       0.2260
     57  O         75.7560 -119.0710   -6.3650 O.2    67  ILE67      -0.2867
     58  CB        76.1660 -120.5570   -3.7290 C.3    67  ILE67       0.0252
     59  CG1       76.8390 -121.3690   -2.6210 C.3    67  ILE67       0.0019
     60  CG2       74.7870 -121.1230   -4.0140 C.3    67  ILE67       0.0019
     61  CD1       76.9830 -122.8420   -2.9390 C.3    67  ILE67       0.0001
     62  N         69.2760 -122.8660   -5.8480 N.3    83  LEU83      -0.1231
     63  CA        70.7090 -122.6650   -5.6940 C.3    83  LEU83       0.1693
     64  C         71.4120 -123.9780   -5.3710 C.2    83  LEU83       0.2592
     65  O         70.7880 -124.9240   -4.8850 O.2    83  LEU83      -0.2718
     66  CB        70.9750 -121.6480   -4.5820 C.3    83  LEU83       0.0284
     67  CG        70.2720 -120.2960   -4.7210 C.3    83  LEU83       0.0019
     68  CD1       70.0160 -119.6740   -3.3590 C.3    83  LEU83       0.0001
     69  CD2       71.0850 -119.3470   -5.5860 C.3    83  LEU83       0.0001
     70  N         72.7110 -124.0290   -5.6520 N.am   84  GLU84      -0.1966
     71  CA        73.5320 -125.1720   -5.2770 C.3    84  GLU84       0.1733
     72  C         73.5130 -125.3590   -3.7700 C.2    84  GLU84       0.2616
     73  O         73.3510 -124.3950   -3.0180 O.2    84  GLU84      -0.2715
     74  CB        74.9800 -124.9540   -5.7120 C.3    84  GLU84       0.0429
     75  CG        75.2260 -124.9880   -7.2070 C.3    84  GLU84       0.1163
     76  CD        76.6950 -124.8190   -7.5390 C.2    84  GLU84       0.3649
     77  OE1       77.3180 -123.8760   -7.0050 O.co2  84  GLU84      -0.2457
     78  OE2       77.2290 -125.6340   -8.3190 O.co2  84  GLU84      -0.2457
     79  N         73.6830 -126.6000   -3.3290 N.am   85  ARG85      -0.1964
     80  CA        73.8480 -126.8750   -1.9090 C.3    85  ARG85       0.1714
     81  C         74.9400 -127.9060   -1.6770 C.2    85  ARG85       0.2458
     82  O         74.7800 -129.0790   -2.0170 O.2    85  ARG85      -0.2730
     83  CB        72.5400 -127.3470   -1.2740 C.3    85  ARG85       0.0347
     84  CG        72.7010 -127.7860    0.1750 C.3    85  ARG85       0.0492
     85  CD        71.3600 -128.0320    0.8440 C.3    85  ARG85       0.2205
     86  NE        70.6180 -129.1140    0.2050 N.pl3  85  ARG85      -0.0865
     87  CZ        70.7270 -130.3940    0.5460 C.cat  85  ARG85       0.5346
     88  NH1       71.5520 -130.7540    1.5200 N.pl3  85  ARG85       0.1354
     89  NH2       70.0130 -131.3150   -0.0850 N.pl3  85  ARG85       0.1354
     90  N         76.0630 -127.4640   -1.0990 N.am   86  PRO86      -0.2727
     91  CA        77.1210 -128.4000   -0.7170 C.3    86  PRO86       0.1402
     92  C         76.6510 -129.2450    0.4580 C.2    86  PRO86       0.2269
     93  O         75.8030 -128.7950    1.2320 O.2    86  PRO86      -0.2865
     94  CB        78.2610 -127.4800   -0.2630 C.3    86  PRO86       0.0296
     95  CG        77.9130 -126.1110   -0.7860 C.3    86  PRO86       0.0237
     96  CD        76.4210 -126.0680   -0.8020 C.3    86  PRO86       0.0939
     97  N         78.1060 -129.1120    4.8010 N.3    89  VAL89      -0.1245
     98  CA        78.4350 -127.6990    4.6740 C.3    89  VAL89       0.1561
     99  C         78.2770 -126.9870    6.0170 C.2    89  VAL89       0.2260
    100  O         77.4920 -127.4130    6.8670 O.2    89  VAL89      -0.2867
    101  CB        77.5490 -127.0210    3.5960 C.3    89  VAL89       0.0252
    102  CG1       76.1100 -126.9120    4.0710 C.3    89  VAL89       0.0019
    103  CG2       78.0950 -125.6530    3.2200 C.3    89  VAL89       0.0019
    104  N         78.6030 -122.6550    7.4600 N.3    91  ASP91      -0.1239
    105  CA        79.0170 -121.2830    7.1820 C.3    91  ASP91       0.1674
    106  C         80.1990 -120.8800    8.0590 C.2    91  ASP91       0.2266
    107  O         80.4350 -121.4820    9.1090 O.2    91  ASP91      -0.2867
    108  CB        77.8480 -120.2750    7.2450 C.3    91  ASP91       0.1410
    109  CG        77.3020 -120.0510    8.6550 C.2    91  ASP91       0.3668
    110  OD1       76.0710 -119.8850    8.7810 O.co2  91  ASP91      -0.2456
    111  OD2       78.0780 -119.9980    9.6310 O.co2  91  ASP91      -0.2456
    112  N         78.9920 -114.8370    7.6790 N.3   134  GLU134     -0.1231
    113  CA        77.6870 -115.4670    7.4830 C.3   134  GLU134      0.1699
    114  C         77.3980 -115.7780    6.0170 C.2   134  GLU134      0.2592
    115  O         76.6130 -116.6780    5.7090 O.2   134  GLU134     -0.2718
    116  CB        76.5730 -114.5740    8.0330 C.3   134  GLU134      0.0402
    117  CG        76.6590 -114.2890    9.5200 C.3   134  GLU134      0.1161
    118  CD        75.5060 -113.4390   10.0120 C.2   134  GLU134      0.3649
    119  OE1       74.4000 -113.9870   10.1990 O.co2 134  GLU134     -0.2457
    120  OE2       75.7070 -112.2240   10.2090 O.co2 134  GLU134     -0.2457
    121  N         78.0220 -115.0230    5.1180 N.am  135  ASN135     -0.1974
    122  CA        77.7850 -115.1830    3.6860 C.3   135  ASN135      0.1688
    123  C         78.8720 -115.9870    2.9800 C.2   135  ASN135      0.2292
    124  O         79.0730 -115.8590    1.7700 O.2   135  ASN135     -0.2864
    125  CB        77.5900 -113.8220    3.0110 C.3   135  ASN135      0.1181
    126  CG        76.2700 -113.1730    3.3800 C.2   135  ASN135      0.2629
    127  OD1       75.2950 -113.8560    3.6930 O.2   135  ASN135     -0.2716
    128  ND2       76.2300 -111.8460    3.3390 N.am  135  ASN135     -0.0877
    129  N         80.1320 -120.0380    2.7330 N.3   137  LEU137     -0.1245
    130  CA        79.8890 -121.4390    3.0580 C.3   137  LEU137      0.1561
    131  C         81.1630 -122.2530    2.8790 C.2   137  LEU137      0.2260
    132  O         81.9720 -121.9680    1.9950 O.2   137  LEU137     -0.2867
    133  CB        78.7760 -122.0140    2.1810 C.3   137  LEU137      0.0270
    134  CG        77.3780 -121.4150    2.3230 C.3   137  LEU137      0.0019
    135  CD1       76.3920 -122.1640    1.4420 C.3   137  LEU137      0.0001
    136  CD2       76.9270 -121.4400    3.7700 C.3   137  LEU137      0.0001
    137  N         77.7100 -116.5360   -0.7890 N.3   148  ILE148     -0.1231
    138  CA        76.2500 -116.5320   -0.8980 C.3   148  ILE148      0.1692
    139  C         75.6350 -115.1570   -0.6390 C.2   148  ILE148      0.2592
    140  O         76.3030 -114.2440   -0.1490 O.2   148  ILE148     -0.2718
    141  CB        75.5830 -117.5500    0.0580 C.3   148  ILE148      0.0266
    142  CG1       75.8660 -117.1960    1.5180 C.3   148  ILE148      0.0019
    143  CG2       76.0350 -118.9580   -0.2460 C.3   148  ILE148      0.0020
    144  CD1       75.1350 -118.0820    2.5140 C.3   148  ILE148      0.0001
    145  N         74.3520 -115.0360   -0.9790 N.am  149  ASP149     -0.1974
    146  CA        73.5460 -113.8370   -0.7300 C.3   149  ASP149      0.1709
    147  C         73.9920 -112.5830   -1.4800 C.2   149  ASP149      0.2293
    148  O         74.7250 -111.7530   -0.9430 O.2   149  ASP149     -0.2864
    149  CB        73.4190 -113.5530    0.7740 C.3   149  ASP149      0.1436
    150  CG        72.2520 -112.6370    1.0950 C.2   149  ASP149      0.3671
    151  OD1       71.4740 -112.3120    0.1720 O.co2 149  ASP149     -0.2456
    152  OD2       72.1000 -112.2560    2.2720 O.co2 149  ASP149     -0.2456
@<TRIPOS>BOND
     1    48    47    2
     2    78    76   ar
     3    47    46    1
     4    76    75    1
     5    76    77   ar
     6    45    46    1
     7    75    74    1
     8    46    49    1
     9    57    56    2
    10    56    55    1
    11    49    50    1
    12    62    63    1
    13    74    71    1
    14    63    64    1
    15    63    66    1
    16    70    64   am
    17    70    71    1
    18    69    67    1
    19    64    65    2
    20    50    51    1
    21    71    72    1
    22    55    54    1
    23    55    58    1
    24    67    66    1
    25    67    68    1
    26    51    52   ar
    27    51    53   ar
    28    60    58    1
    29    72    79   am
    30    72    73    2
    31    58    59    1
    32    34    33    2
    33    79    80    1
    34    39    38    2
    35    61    59    1
    36    31    32    1
    37    33    32    1
    38    36    37    1
    39    44    43    1
    40    38    37    1
    41    82    81    2
    42    80    81    1
    43    80    83    1
    44    43    42    1
    45    32    35    1
    46    40    37    1
    47    40    41    1
    48    81    90   am
    49   147   148    2
    50   147   146    1
    51    83    84    1
    52    90    96    1
    53    90    91    1
    54   145   146    1
    55   145   139   am
    56    41    42    1
    57   138   137    1
    58   138   139    1
    59   138   141    1
    60    96    95    1
    61    95    94    1
    62   146   149    1
    63    91    94    1
    64    91    92    1
    65   139   140    2
    66   143   141    1
    67    89    87    1
    68   141   142    1
    69   151   150   ar
    70    84    85    1
    71    86    87    2
    72    86    85    1
    73    92    93    2
    74    87    88    1
    75   149   150    1
    76    16    15    2
    77   150   152   ar
    78   135   134    1
    79   142   144    1
    80    29    28    1
    81   124   123    2
    82   132   131    2
    83    30    28    1
    84    15    14    1
    85   133   134    1
    86   133   130    1
    87   134   136    1
    88    14    17    1
    89    14    13    1
    90    17    18    1
    91    25    28    1
    92    25    26    1
    93    25    24    1
    94   129   130    1
    95   131   130    1
    96    26    27    2
    97   123   122    1
    98   125   126    1
    99   125   122    1
   100   103   101    1
   101   128   126   am
   102   126   127    2
   103    19    18   ar
   104    19    21   ar
   105   101   102    1
   106   101    98    1
   107     7     6    1
   108    18    20   ar
   109   122   121    1
   110    21    23   ar
   111    98    97    1
   112    98    99    1
   113     6     5    1
   114     6     8    1
   115    20    22   ar
   116   121   114   am
   117     5     2    1
   118   115   114    2
   119    23    22   ar
   120    12    11    2
   121   114   113    1
   122    99   100    2
   123     1     2    1
   124     2     3    1
   125     9     3   am
   126     9    10    1
   127    11    10    1
   128   105   108    1
   129   105   104    1
   130   105   106    1
   131   108   109    1
   132     3     4    2
   133   113   112    1
   134   113   116    1
   135   116   117    1
   136   106   107    2
   137   109   110   ar
   138   109   111   ar
   139   117   118    1
   140   118   119   ar
   141   118   120   ar
