@<TRIPOS>MOLECULE
tmp/4llhC00.pdb
 112 105 0 0 0
SMALL
GASTEIGER

@<TRIPOS>ATOM
      1  N          2.8230   -1.2150   42.9880 N.3    67  GLY67      -0.1210
      2  CA         2.1490   -1.3910   41.7180 C.3    67  GLY67       0.1956
      3  C          1.9180   -2.8350   41.3160 C.2    67  GLY67       0.2612
      4  O          0.9090   -3.1550   40.6860 O.2    67  GLY67      -0.2717
      5  N          2.8540   -3.7110   41.6660 N.am   68  THR68      -0.1952
      6  CA         2.7580   -5.1140   41.2660 C.3    68  THR68       0.1897
      7  C          1.7420   -5.8680   42.1220 C.2    68  THR68       0.2313
      8  O          1.2290   -6.9120   41.7210 O.2    68  THR68      -0.2863
      9  CB         4.1270   -5.8230   41.3180 C.3    68  THR68       0.1794
     10  OG1        4.6700   -5.7300   42.6420 O.3    68  THR68      -0.2208
     11  CG2        5.0920   -5.1850   40.3240 C.3    68  THR68       0.0378
     12  N         -1.6340   -7.0500   43.7010 N.3    70  ARG70      -0.1245
     13  CA        -2.8760   -7.2960   42.9900 C.3    70  ARG70       0.1563
     14  C         -4.0880   -7.1380   43.8910 C.2    70  ARG70       0.2260
     15  O         -4.2470   -7.8710   44.8650 O.2    70  ARG70      -0.2867
     16  CB        -2.8580   -8.6830   42.3550 C.3    70  ARG70       0.0307
     17  CG        -2.9430   -8.6310   40.8420 C.3    70  ARG70       0.0489
     18  CD        -1.8760   -9.4800   40.1820 C.3    70  ARG70       0.2205
     19  NE        -1.3480   -8.8400   38.9800 N.pl3  70  ARG70      -0.0865
     20  CZ        -2.0660   -8.5760   37.8910 C.cat  70  ARG70       0.5346
     21  NH1       -3.3530   -8.8910   37.8440 N.pl3  70  ARG70       0.1354
     22  NH2       -1.4960   -7.9930   36.8470 N.pl3  70  ARG70       0.1354
     23  N         -1.6050  -13.1490   43.2850 N.3    75  ASP75      -0.1239
     24  CA        -1.5430  -13.5640   41.8870 C.3    75  ASP75       0.1674
     25  C         -2.9140  -13.6330   41.2180 C.2    75  ASP75       0.2266
     26  O         -3.0510  -14.2040   40.1350 O.2    75  ASP75      -0.2867
     27  CB        -0.8380  -14.9150   41.7580 C.3    75  ASP75       0.1410
     28  CG        -0.1900  -15.1030   40.4010 C.2    75  ASP75       0.3668
     29  OD1        0.4240  -14.1360   39.9020 O.co2  75  ASP75      -0.2456
     30  OD2       -0.2980  -16.2100   39.8310 O.co2  75  ASP75      -0.2456
     31  N         -9.3910   -6.3050   29.3830 N.3    82  THR82      -0.1218
     32  CA        -8.8600   -4.9530   29.4900 C.3    82  THR82       0.1862
     33  C         -9.7040   -3.9640   28.6940 C.2    82  THR82       0.2287
     34  O        -10.1240   -2.9350   29.2170 O.2    82  THR82      -0.2866
     35  CB        -7.4030   -4.8740   29.0130 C.3    82  THR82       0.1770
     36  OG1       -6.5480   -5.4540   30.0040 O.3    82  THR82      -0.2211
     37  CG2       -6.9980   -3.4230   28.7860 C.3    82  THR82       0.0375
     38  N        -12.7940   -3.3450   30.2470 N.3    85  TRP85      -0.1227
     39  CA       -12.5100   -2.5370   31.4200 C.3    85  TRP85       0.1737
     40  C        -12.3990   -1.0680   31.0170 C.2    85  TRP85       0.2595
     41  O        -13.0570   -0.2000   31.5950 O.2    85  TRP85      -0.2718
     42  CB       -11.2090   -3.0250   32.0570 C.3    85  TRP85       0.0564
     43  CG       -10.7870   -2.2970   33.2940 C.ar   85  TRP85       0.0003
     44  CD1      -11.5450   -2.0450   34.4010 C.ar   85  TRP85       0.0946
     45  CD2       -9.4870   -1.7600   33.5660 C.ar   85  TRP85       0.0152
     46  NE1      -10.8000   -1.3660   35.3390 N.ar   85  TRP85      -0.2442
     47  CE2       -9.5330   -1.1820   34.8500 C.ar   85  TRP85       0.0810
     48  CE3       -8.2910   -1.7080   32.8450 C.ar   85  TRP85       0.0012
     49  CZ2       -8.4290   -0.5580   35.4270 C.ar   85  TRP85       0.0191
     50  CZ3       -7.1960   -1.0900   33.4210 C.ar   85  TRP85       0.0001
     51  CH2       -7.2720   -0.5230   34.6970 C.ar   85  TRP85       0.0015
     52  N        -11.5720   -0.8050   30.0090 N.am   86  ILE86      -0.1980
     53  CA       -11.3590    0.5470   29.5090 C.3    86  ILE86       0.1595
     54  C        -12.6690    1.2100   29.0990 C.2    86  ILE86       0.2287
     55  O        -12.9010    2.3800   29.4020 O.2    86  ILE86      -0.2864
     56  CB       -10.3850    0.5550   28.3130 C.3    86  ILE86       0.0276
     57  CG1       -8.9500    0.3290   28.7890 C.3    86  ILE86       0.0022
     58  CG2      -10.4720    1.8680   27.5620 C.3    86  ILE86       0.0022
     59  CD1       -7.9270    0.3650   27.6710 C.3    86  ILE86       0.0001
     60  N         -3.5370   -5.0760   38.8160 N.3   330  SER330     -0.1217
     61  CA        -2.4440   -4.6670   39.6790 C.3   330  SER330      0.1889
     62  C         -2.6810   -3.2120   40.0360 C.2   330  SER330      0.2288
     63  O         -3.3490   -2.4850   39.3010 O.2   330  SER330     -0.2866
     64  CB        -1.0860   -4.8450   38.9960 C.3   330  SER330      0.2089
     65  OG        -0.9610   -4.0210   37.8540 O.3   330  SER330     -0.2183
     66  N         -0.6520   -0.8750   39.8480 N.3   332  ARG332     -0.1231
     67  CA        -0.0380   -0.0610   38.8020 C.3   332  ARG332      0.1694
     68  C         -0.9430    0.0730   37.5840 C.2   332  ARG332      0.2591
     69  O         -1.1940    1.1750   37.1030 O.2   332  ARG332     -0.2718
     70  CB         1.2960   -0.6690   38.3800 C.3   332  ARG332      0.0321
     71  CG         2.1110    0.1970   37.4400 C.3   332  ARG332      0.0489
     72  CD         3.5400   -0.2790   37.4400 C.3   332  ARG332      0.2205
     73  NE         3.8820   -0.8240   38.7490 N.pl3 332  ARG332     -0.0865
     74  CZ         5.1200   -1.0680   39.1630 C.cat 332  ARG332      0.5346
     75  NH1        6.1560   -0.8070   38.3740 N.pl3 332  ARG332      0.1354
     76  NH2        5.3220   -1.5680   40.3740 N.pl3 332  ARG332      0.1354
     77  N         -1.4170   -1.0650   37.0890 N.am  333  GLU333     -0.1979
     78  CA        -2.3540   -1.1150   35.9690 C.3   333  GLU333      0.1602
     79  C         -3.6350   -0.3390   36.2760 C.2   333  GLU333      0.2287
     80  O         -4.2230    0.2770   35.3880 O.2   333  GLU333     -0.2864
     81  CB        -2.6840   -2.5750   35.6420 C.3   333  GLU333      0.0415
     82  CG        -3.8080   -2.7880   34.6420 C.3   333  GLU333      0.1163
     83  CD        -4.2900   -4.2300   34.6150 C.2   333  GLU333      0.3649
     84  OE1       -4.3260   -4.8620   35.6920 O.co2 333  GLU333     -0.2457
     85  OE2       -4.6280   -4.7340   33.5220 O.co2 333  GLU333     -0.2457
     86  N         -2.7510    3.8180   36.3750 N.3   336  LEU336     -0.1231
     87  CA        -2.5340    4.2990   35.0100 C.3   336  LEU336      0.1693
     88  C         -3.8120    4.2710   34.1750 C.2   336  LEU336      0.2592
     89  O         -4.0540    5.1670   33.3700 O.2   336  LEU336     -0.2718
     90  CB        -1.4110    3.5250   34.3070 C.3   336  LEU336      0.0284
     91  CG         0.0230    3.8060   34.7730 C.3   336  LEU336      0.0019
     92  CD1        1.0320    3.0790   33.8990 C.3   336  LEU336      0.0001
     93  CD2        0.3150    5.2960   34.7750 C.3   336  LEU336      0.0001
     94  N         -4.6290    3.2430   34.3720 N.am  337  GLY337     -0.1957
     95  CA        -5.8980    3.1420   33.6770 C.3   337  GLY337      0.1869
     96  C         -6.8270    4.2780   34.0580 C.2   337  GLY337      0.2309
     97  O         -7.2830    5.0310   33.1990 O.2   337  GLY337     -0.2863
     98  N         -5.2790    7.8080   32.7060 N.3   340  LEU340     -0.1231
     99  CA        -5.1280    8.0390   31.2730 C.3   340  LEU340      0.1693
    100  C         -6.4060    7.8800   30.4620 C.2   340  LEU340      0.2591
    101  O         -6.6160    8.6170   29.4990 O.2   340  LEU340     -0.2718
    102  CB        -4.0380    7.1360   30.6910 C.3   340  LEU340      0.0284
    103  CG        -2.6230    7.3480   31.2290 C.3   340  LEU340      0.0019
    104  CD1       -1.6360    6.4830   30.4610 C.3   340  LEU340      0.0001
    105  CD2       -2.2330    8.8160   31.1540 C.3   340  LEU340      0.0001
    106  N         -7.2540    6.9260   30.8350 N.am  341  VAL341     -0.1980
    107  CA        -8.4290    6.6140   30.0120 C.3   341  VAL341      0.1595
    108  C         -9.5630    7.6420   30.1020 C.2   341  VAL341      0.2287
    109  O         -9.9570    8.2230   29.0910 O.2   341  VAL341     -0.2864
    110  CB        -8.9700    5.1890   30.2680 C.3   341  VAL341      0.0276
    111  CG1      -10.3660    5.0370   29.6820 C.3   341  VAL341      0.0022
    112  CG2       -8.0220    4.1500   29.6780 C.3   341  VAL341      0.0022
@<TRIPOS>BOND
     1    58    56    1
     2    59    57    1
     3    56    57    1
     4    56    53    1
     5    33    34    2
     6    33    32    1
     7    37    35    1
     8    35    32    1
     9    35    36    1
    10   109   108    2
    11    54    55    2
    12    54    53    1
    13    31    32    1
    14   101   100    2
    15    53    52    1
    16   112   110    1
    17   111   110    1
    18    52    40   am
    19   107   108    1
    20   107   110    1
    21   107   106    1
    22    38    39    1
    23   104   103    1
    24   100   106   am
    25   100    99    1
    26   102   103    1
    27   102    99    1
    28    40    39    1
    29    40    41    2
    30   105   103    1
    31    99    98    1
    32    39    42    1
    33    42    43    1
    34    48    50   ar
    35    48    45   ar
    36    97    96    2
    37    43    45   ar
    38    43    44   ar
    39    89    88    2
    40    50    51   ar
    41    85    83   ar
    42    45    47   ar
    43    95    96    1
    44    95    94    1
    45    92    91    1
    46    88    94   am
    47    88    87    1
    48    90    91    1
    49    90    87    1
    50    44    46   ar
    51    83    82    1
    52    83    84   ar
    53    82    81    1
    54    51    49   ar
    55    91    93    1
    56    47    46   ar
    57    47    49   ar
    58    87    86    1
    59    80    79    2
    60    81    78    1
    61    78    79    1
    62    78    77    1
    63    22    20    1
    64    77    68   am
    65    69    68    2
    66    72    71    1
    67    72    73    1
    68    71    70    1
    69    68    67    1
    70    21    20    1
    71    65    64    1
    72    20    19    2
    73    75    74    1
    74    70    67    1
    75    73    74    2
    76    67    66    1
    77    60    61    1
    78    19    18    1
    79    64    61    1
    80    74    76    1
    81    63    62    2
    82    61    62    1
    83    30    28   ar
    84    29    28   ar
    85    26    25    2
    86    18    17    1
    87    11     9    1
    88    28    27    1
    89     4     3    2
    90    17    16    1
    91    25    24    1
    92     6     9    1
    93     6     5    1
    94     6     7    1
    95     3     5   am
    96     3     2    1
    97     9    10    1
    98     2     1    1
    99     8     7    2
   100    27    24    1
   101    24    23    1
   102    16    13    1
   103    13    12    1
   104    13    14    1
   105    14    15    2
