@<TRIPOS>MOLECULE
tmp/4lljA00.pdb
 127 122 0 0 0
SMALL
GASTEIGER

@<TRIPOS>ATOM
      1  N         14.9620   14.7900   47.0780 N.3    78  TYR78      -0.1227
      2  CA        13.7070   14.1840   47.5900 C.3    78  TYR78       0.1736
      3  C         13.8690   12.7340   48.0820 C.2    78  TYR78       0.2595
      4  O         13.4290   12.4310   49.1950 O.2    78  TYR78      -0.2718
      5  CB        12.6050   14.2370   46.5540 C.3    78  TYR78       0.0548
      6  CG        11.3330   13.6090   47.0870 C.ar   78  TYR78      -0.0200
      7  CD1       10.6380   14.2130   48.1380 C.ar   78  TYR78      -0.0009
      8  CD2       10.8510   12.3920   46.5920 C.ar   78  TYR78      -0.0009
      9  CE1        9.4800   13.6490   48.6550 C.ar   78  TYR78       0.0417
     10  CE2        9.6580   11.8230   47.1180 C.ar   78  TYR78       0.0417
     11  CZ         9.0030   12.4570   48.1400 C.ar   78  TYR78       0.1957
     12  OH         7.8070   11.9330   48.6680 O.3    78  TYR78      -0.2866
     13  N         14.4200   11.8500   47.2530 N.am   79  HIS79      -0.1975
     14  CA        14.4890   10.4110   47.6010 C.3    79  HIS79       0.1656
     15  C         15.7030   10.1270   48.4930 C.2    79  HIS79       0.2291
     16  O         16.6380    9.4420   48.0770 O.2    79  HIS79      -0.2864
     17  CB        14.5150    9.5750   46.3500 C.3    79  HIS79       0.0771
     18  CG        13.2080    9.5750   45.6120 C.ar   79  HIS79       0.0820
     19  ND1       12.9850   10.3400   44.4910 N.ar   79  HIS79      -0.2267
     20  CD2       12.0490    8.9160   45.8640 C.ar   79  HIS79       0.1154
     21  CE1       11.7420   10.1310   44.0610 C.ar   79  HIS79       0.1986
     22  NE2       11.1460    9.2870   44.8920 N.ar   79  HIS79      -0.2212
     23  N          4.8080    2.7520   41.7500 N.3   189  LEU189     -0.1245
     24  CA         3.4140    3.2760   41.5350 C.3   189  LEU189      0.1561
     25  C          2.8160    2.6740   40.3200 C.2   189  LEU189      0.2260
     26  O          1.6010    2.6510   40.1940 O.2   189  LEU189     -0.2867
     27  CB         3.4060    4.8020   41.4150 C.3   189  LEU189      0.0270
     28  CG         3.5040    5.6030   42.7100 C.3   189  LEU189      0.0019
     29  CD1        3.6700    7.1050   42.3450 C.3   189  LEU189      0.0001
     30  CD2        2.2270    5.3950   43.6000 C.3   189  LEU189      0.0001
     31  N          4.3510    5.9600   51.3510 N.3   228  ASP228     -0.1225
     32  CA         5.2830    6.5570   50.3670 C.3   228  ASP228      0.1805
     33  C          4.7890    7.9340   49.9370 C.2   228  ASP228      0.2597
     34  O          5.5750    8.8720   49.7830 O.2   228  ASP228     -0.2718
     35  CB         5.4010    5.6410   49.1470 C.3   228  ASP228      0.1424
     36  CG         6.6500    5.9230   48.3090 C.2   228  ASP228      0.3668
     37  OD1        6.6330    5.4980   47.1320 O.co2 228  ASP228     -0.2456
     38  OD2        7.6320    6.5470   48.8220 O.co2 228  ASP228     -0.2456
     39  N          3.4710    8.1100   49.7910 N.am  229  LEU229     -0.1979
     40  CA         2.9480    9.4000   49.3500 C.3   229  LEU229      0.1596
     41  C          2.5850   10.3410   50.4920 C.2   229  LEU229      0.2287
     42  O          1.9430   11.3830   50.2290 O.2   229  LEU229     -0.2864
     43  CB         1.6850    9.1780   48.4890 C.3   229  LEU229      0.0297
     44  CG         1.7970    8.2640   47.2770 C.3   229  LEU229      0.0022
     45  CD1        0.5170    8.2190   46.4500 C.3   229  LEU229      0.0001
     46  CD2        3.0470    8.7410   46.4390 C.3   229  LEU229      0.0001
     47  N          3.6110   12.6910   52.2380 N.3   231  SER231     -0.1202
     48  CA         3.7520   14.1630   52.1810 C.3   231  SER231      0.2020
     49  C          2.4370   14.8940   51.8400 C.2   231  SER231      0.2618
     50  O          2.2180   16.0330   52.2830 O.2   231  SER231     -0.2717
     51  CB         4.8790   14.5630   51.1930 C.3   231  SER231      0.2103
     52  OG         4.3470   14.5150   49.8720 O.3   231  SER231     -0.2182
     53  N          1.5520   14.2390   51.0940 N.am  232  VAL232     -0.1979
     54  CA         0.2770   14.8550   50.7590 C.3   232  VAL232      0.1595
     55  C         -0.6900   14.8460   51.9000 C.2   232  VAL232      0.2287
     56  O         -1.8080   15.3420   51.7380 O.2   232  VAL232     -0.2864
     57  CB        -0.3940   14.2820   49.4660 C.3   232  VAL232      0.0276
     58  CG1        0.6560   14.2310   48.2980 C.3   232  VAL232      0.0022
     59  CG2       -1.0310   12.8990   49.7430 C.3   232  VAL232      0.0022
     60  N          6.8560   19.3040   48.0150 N.3   243  ALA243     -0.1245
     61  CA         6.6600   19.3190   46.5820 C.3   243  ALA243      0.1562
     62  C          7.7930   20.0460   45.8730 C.2   243  ALA243      0.2260
     63  O          8.1990   19.6320   44.7860 O.2   243  ALA243     -0.2867
     64  CB         5.2700   19.9200   46.2140 C.3   243  ALA243      0.0290
     65  N         10.4780   17.3960   45.5460 N.3   246  ILE246     -0.1231
     66  CA        10.1120   16.4340   44.4950 C.3   246  ILE246      0.1692
     67  C         10.4560   17.0070   43.0890 C.2   246  ILE246      0.2592
     68  O         11.0730   16.3510   42.2400 O.2   246  ILE246     -0.2718
     69  CB         8.5620   16.1200   44.6100 C.3   246  ILE246      0.0266
     70  CG1        8.2560   15.4120   45.9600 C.3   246  ILE246      0.0019
     71  CG2        8.0840   15.3390   43.4610 C.3   246  ILE246      0.0020
     72  CD1        6.7130   15.3390   46.3920 C.3   246  ILE246      0.0001
     73  N         10.0100   18.2380   42.8540 N.am  247  TYR247     -0.1976
     74  CA        10.2040   18.8560   41.5590 C.3   247  TYR247      0.1639
     75  C         11.6580   19.1840   41.2810 C.2   247  TYR247      0.2290
     76  O         12.0420   19.1210   40.1530 O.2   247  TYR247     -0.2864
     77  CB         9.2860   20.0630   41.3620 C.3   247  TYR247      0.0560
     78  CG         7.9210   19.6540   40.8970 C.ar  247  TYR247     -0.0198
     79  CD1        6.9150   19.3660   41.8190 C.ar  247  TYR247     -0.0009
     80  CD2        7.6520   19.4780   39.5510 C.ar  247  TYR247     -0.0009
     81  CE1        5.6370   18.9970   41.3760 C.ar  247  TYR247      0.0417
     82  CE2        6.3710   19.0930   39.1050 C.ar  247  TYR247      0.0417
     83  CZ         5.3910   18.8570   40.0370 C.ar  247  TYR247      0.1957
     84  OH         4.1360   18.4720   39.6060 O.3   247  TYR247     -0.2866
     85  N         12.7430   16.0160   39.7050 N.3   250  PHE250     -0.1241
     86  CA        12.1430   15.8650   38.4070 C.3   250  PHE250      0.1605
     87  C         12.8500   16.7840   37.3840 C.2   250  PHE250      0.2264
     88  O         13.1290   16.3570   36.2790 O.2   250  PHE250     -0.2867
     89  CB        10.6700   16.2680   38.4520 C.3   250  PHE250      0.0534
     90  CG         9.7470   15.2920   39.1790 C.ar  250  PHE250     -0.0203
     91  CD1       10.0690   13.9720   39.3390 C.ar  250  PHE250     -0.0042
     92  CD2        8.5080   15.7370   39.6440 C.ar  250  PHE250     -0.0042
     93  CE1        9.2010   13.0820   40.0040 C.ar  250  PHE250     -0.0003
     94  CE2        7.6050   14.8620   40.2960 C.ar  250  PHE250     -0.0003
     95  CZ         7.9700   13.5110   40.4620 C.ar  250  PHE250     -0.0000
     96  N          6.1050   17.6410   33.3300 N.3   267  MET267     -0.1245
     97  CA         6.3200   17.5680   34.7690 C.3   267  MET267      0.1570
     98  C          7.7870   17.6490   35.1190 C.2   267  MET267      0.2261
     99  O          8.1390   18.1130   36.1920 O.2   267  MET267     -0.2867
    100  CB         5.7720   16.2350   35.3000 C.3   267  MET267      0.0387
    101  CG         5.6530   16.2210   36.8250 C.3   267  MET267      0.0595
    102  SD         5.2220   14.5910   37.4710 S.3   267  MET267     -0.1393
    103  CE         6.7540   13.7190   37.1690 C.3   267  MET267      0.0692
    104  N         -0.7900   19.8080   37.3670 N.3   279  GLY279     -0.1210
    105  CA        -0.1120   18.5040   37.5070 C.3   279  GLY279      0.1956
    106  C         -0.4110   17.8520   38.8610 C.2   279  GLY279      0.2611
    107  O         -0.6160   16.6310   38.9610 O.2   279  GLY279     -0.2717
    108  N         -0.3620   18.6640   39.9160 N.am  280  GLN280     -0.1979
    109  CA        -0.6750   18.1770   41.2620 C.3   280  GLN280      0.1601
    110  C         -2.1400   17.8020   41.3840 C.2   280  GLN280      0.2287
    111  O         -2.4760   16.7170   41.9010 O.2   280  GLN280     -0.2864
    112  CB        -0.3020   19.2400   42.2850 C.3   280  GLN280      0.0394
    113  CG         1.1900   19.3730   42.4860 C.3   280  GLN280      0.0908
    114  CD         1.8320   18.0710   42.8870 C.2   280  GLN280      0.2608
    115  OE1        2.5360   17.4440   42.0920 O.2   280  GLN280     -0.2717
    116  NE2        1.5270   17.6020   44.0690 N.am  280  GLN280     -0.0878
    117  N         -2.4020   14.3820   39.8310 N.3   283  PHE283     -0.1241
    118  CA        -1.8600   13.3640   40.7280 C.3   283  PHE283      0.1605
    119  C         -2.7970   13.0620   41.9150 C.2   283  PHE283      0.2264
    120  O         -3.0050   11.9020   42.2700 O.2   283  PHE283     -0.2867
    121  CB        -0.4730   13.7650   41.2470 C.3   283  PHE283      0.0534
    122  CG         0.1990   12.6700   42.0500 C.ar  283  PHE283     -0.0203
    123  CD1        0.8210   11.6110   41.3920 C.ar  283  PHE283     -0.0042
    124  CD2        0.2020   12.7010   43.4390 C.ar  283  PHE283     -0.0042
    125  CE1        1.4240   10.5700   42.1130 C.ar  283  PHE283     -0.0003
    126  CE2        0.7740   11.6570   44.1840 C.ar  283  PHE283     -0.0003
    127  CZ         1.4000   10.5970   43.5130 C.ar  283  PHE283     -0.0000
@<TRIPOS>BOND
     1    96    97    1
     2    97    98    1
     3    97   100    1
     4    98    99    2
     5   100   101    1
     6    88    87    2
     7   101   102    1
     8   103   102    1
     9   104   105    1
    10    87    86    1
    11   105   106    1
    12    86    89    1
    13    86    85    1
    14    89    90    1
    15   106   107    2
    16   106   108   am
    17    82    80   ar
    18    82    83   ar
    19    90    91   ar
    20    90    92   ar
    21    91    93   ar
    22    80    78   ar
    23    84    83    1
    24    92    94   ar
    25   117   118    1
    26   108   109    1
    27    93    95   ar
    28    83    81   ar
    29    76    75    2
    30    26    25    2
    31    94    95   ar
    32    25    24    1
    33   118   121    1
    34   118   119    1
    35    78    77    1
    36    78    79   ar
    37   121   122    1
    38   109   110    1
    39   109   112    1
    40    75    74    1
    41    77    74    1
    42    81    79   ar
    43   110   111    2
    44   123   122   ar
    45   123   125   ar
    46    27    24    1
    47    27    28    1
    48    24    23    1
    49    74    73    1
    50   119   120    2
    51   122   124   ar
    52   115   114    2
    53   125   127   ar
    54    68    67    2
    55   112   113    1
    56    29    28    1
    57   113   114    1
    58    28    30    1
    59    73    67   am
    60   114   116   am
    61    67    66    1
    62   124   126   ar
    63    71    69    1
    64   127   126   ar
    65    21    19   ar
    66    21    22   ar
    67    19    18   ar
    68    66    69    1
    69    66    65    1
    70    69    70    1
    71    63    62    2
    72    22    20   ar
    73    18    20   ar
    74    18    17    1
    75    62    61    1
    76    70    72    1
    77    64    61    1
    78    17    14    1
    79    46    44    1
    80    45    44    1
    81     5     6    1
    82     5     2    1
    83    61    60    1
    84     8     6   ar
    85     8    10   ar
    86     1     2    1
    87     6     7   ar
    88    10    11   ar
    89    37    36   ar
    90    13    14    1
    91    13     3   am
    92    44    43    1
    93     2     3    1
    94    14    15    1
    95    16    15    2
    96     3     4    2
    97     7     9   ar
    98    11     9   ar
    99    11    12    1
   100    58    57    1
   101    36    38   ar
   102    36    35    1
   103    43    40    1
   104    35    32    1
   105    40    39    1
   106    40    41    1
   107    57    59    1
   108    57    54    1
   109    34    33    2
   110    39    33   am
   111    52    51    1
   112    33    32    1
   113    42    41    2
   114    32    31    1
   115    54    53    1
   116    54    55    1
   117    53    49   am
   118    51    48    1
   119    56    55    2
   120    49    48    1
   121    49    50    2
   122    48    47    1
