@<TRIPOS>MOLECULE
tmp/4llpA00.pdb
 119 114 0 0 0
SMALL
GASTEIGER

@<TRIPOS>ATOM
      1  N         14.6110   14.8170   46.9510 N.3    79  TYR79      -0.1227
      2  CA        13.3690   14.2090   47.5020 C.3    79  TYR79       0.1736
      3  C         13.4890   12.7420   47.9430 C.2    79  TYR79       0.2595
      4  O         13.0680   12.4160   49.0450 O.2    79  TYR79      -0.2718
      5  CB        12.2070   14.3670   46.5210 C.3    79  TYR79       0.0548
      6  CG        10.9350   13.7050   47.0150 C.ar   79  TYR79      -0.0200
      7  CD1       10.1800   14.3040   48.0110 C.ar   79  TYR79      -0.0009
      8  CD2       10.5090   12.4750   46.4980 C.ar   79  TYR79      -0.0009
      9  CE1        8.9850   13.6980   48.4860 C.ar   79  TYR79       0.0417
     10  CE2        9.3380   11.8420   46.9890 C.ar   79  TYR79       0.0417
     11  CZ         8.5840   12.4900   47.9770 C.ar   79  TYR79       0.1957
     12  OH         7.4060   11.9110   48.4500 O.3    79  TYR79      -0.2866
     13  N         13.9990   11.8600   47.0830 N.am   80  HIS80      -0.1975
     14  CA        14.1000   10.4260   47.4440 C.3    80  HIS80       0.1656
     15  C         15.3050   10.1650   48.3570 C.2    80  HIS80       0.2291
     16  O         16.2540    9.4520   48.0000 O.2    80  HIS80      -0.2864
     17  CB        14.1100    9.5610   46.2080 C.3    80  HIS80       0.0771
     18  CG        12.8040    9.5550   45.4870 C.ar   80  HIS80       0.0820
     19  ND1       12.5990   10.2430   44.3120 N.ar   80  HIS80      -0.2267
     20  CD2       11.6150    8.9870   45.8070 C.ar   80  HIS80       0.1154
     21  CE1       11.3440   10.0740   43.9200 C.ar   80  HIS80       0.1986
     22  NE2       10.7250    9.3260   44.8170 N.ar   80  HIS80      -0.2212
     23  N          4.5690    2.5460   41.6290 N.3   190  LEU190     -0.1245
     24  CA         3.2260    3.0670   41.3170 C.3   190  LEU190      0.1561
     25  C          2.5770    2.4380   40.1080 C.2   190  LEU190      0.2260
     26  O          1.3540    2.4050   40.0120 O.2   190  LEU190     -0.2867
     27  CB         3.2420    4.6000   41.1780 C.3   190  LEU190      0.0270
     28  CG         3.1340    5.4010   42.4680 C.3   190  LEU190      0.0019
     29  CD1        3.3480    6.9090   42.1850 C.3   190  LEU190      0.0001
     30  CD2        1.7930    5.1500   43.2280 C.3   190  LEU190      0.0001
     31  N          3.0950    8.0530   49.5140 N.3   230  LEU230     -0.1245
     32  CA         2.4940    9.2970   49.0720 C.3   230  LEU230      0.1561
     33  C          2.1010   10.2840   50.1660 C.2   230  LEU230      0.2260
     34  O          1.5940   11.3470   49.8280 O.2   230  LEU230     -0.2867
     35  CB         1.2520    9.0310   48.1720 C.3   230  LEU230      0.0270
     36  CG         1.4270    8.1310   46.9400 C.3   230  LEU230      0.0019
     37  CD1        0.0550    7.9940   46.2360 C.3   230  LEU230      0.0001
     38  CD2        2.4560    8.7050   45.9850 C.3   230  LEU230      0.0001
     39  N          3.1170   12.6980   51.9090 N.3   232  SER232     -0.1202
     40  CA         3.2940   14.1610   51.8250 C.3   232  SER232      0.2020
     41  C          1.9720   14.8630   51.4740 C.2   232  SER232      0.2618
     42  O          1.7600   15.9950   51.9070 O.2   232  SER232     -0.2717
     43  CB         4.3930   14.5420   50.8120 C.3   232  SER232      0.2103
     44  OG         3.9640   14.2910   49.4920 O.3   232  SER232     -0.2182
     45  N          1.1050   14.1920   50.7060 N.am  233  VAL233     -0.1979
     46  CA        -0.1710   14.8210   50.3320 C.3   233  VAL233      0.1595
     47  C         -1.1980   14.8330   51.4580 C.2   233  VAL233      0.2287
     48  O         -2.3460   15.3010   51.2520 O.2   233  VAL233     -0.2864
     49  CB        -0.8250   14.2020   49.0400 C.3   233  VAL233      0.0276
     50  CG1        0.1720   14.2890   47.8570 C.3   233  VAL233      0.0022
     51  CG2       -1.3690   12.7510   49.2880 C.3   233  VAL233      0.0022
     52  N          6.3250   19.4730   47.7080 N.3   244  ALA244     -0.1245
     53  CA         6.1910   19.5300   46.2310 C.3   244  ALA244      0.1562
     54  C          7.4070   20.1720   45.5490 C.2   244  ALA244      0.2260
     55  O          7.8540   19.6730   44.5120 O.2   244  ALA244     -0.2867
     56  CB         4.9190   20.2180   45.8380 C.3   244  ALA244      0.0290
     57  N         10.1770   17.4680   45.3060 N.3   247  ILE247     -0.1231
     58  CA         9.7830   16.4780   44.3100 C.3   247  ILE247      0.1692
     59  C         10.0690   17.0350   42.9020 C.2   247  ILE247      0.2592
     60  O         10.6250   16.3360   42.0250 O.2   247  ILE247     -0.2718
     61  CB         8.2300   16.2240   44.4990 C.3   247  ILE247      0.0266
     62  CG1        7.9940   15.3110   45.7140 C.3   247  ILE247      0.0019
     63  CG2        7.5820   15.6670   43.2780 C.3   247  ILE247      0.0020
     64  CD1        6.4940   15.2700   46.2540 C.3   247  ILE247      0.0001
     65  N          9.6950   18.2950   42.6800 N.am  248  TYR248     -0.1976
     66  CA         9.8740   18.8910   41.3530 C.3   248  TYR248      0.1639
     67  C         11.3330   19.2010   41.0540 C.2   248  TYR248      0.2290
     68  O         11.7420   19.1330   39.9100 O.2   248  TYR248     -0.2864
     69  CB         8.9810   20.1200   41.1470 C.3   248  TYR248      0.0560
     70  CG         7.6190   19.7030   40.6740 C.ar  248  TYR248     -0.0198
     71  CD1        6.5810   19.5200   41.5760 C.ar  248  TYR248     -0.0009
     72  CD2        7.3760   19.4360   39.3320 C.ar  248  TYR248     -0.0009
     73  CE1        5.3270   19.1130   41.1470 C.ar  248  TYR248      0.0417
     74  CE2        6.1100   19.0240   38.9010 C.ar  248  TYR248      0.0417
     75  CZ         5.1090   18.8740   39.8130 C.ar  248  TYR248      0.1957
     76  OH         3.8660   18.4820   39.3980 O.3   248  TYR248     -0.2866
     77  N         12.4400   15.9940   39.4960 N.3   251  PHE251     -0.1241
     78  CA        11.8550   15.8250   38.1980 C.3   251  PHE251      0.1605
     79  C         12.5570   16.7310   37.1720 C.2   251  PHE251      0.2264
     80  O         12.9080   16.2690   36.0880 O.2   251  PHE251     -0.2867
     81  CB        10.3720   16.1970   38.2200 C.3   251  PHE251      0.0534
     82  CG         9.4920   15.2300   38.9850 C.ar  251  PHE251     -0.0203
     83  CD1        9.8820   13.9270   39.2240 C.ar  251  PHE251     -0.0042
     84  CD2        8.2190   15.6420   39.4090 C.ar  251  PHE251     -0.0042
     85  CE1        9.0280   13.0290   39.9220 C.ar  251  PHE251     -0.0003
     86  CE2        7.3640   14.7580   40.0920 C.ar  251  PHE251     -0.0003
     87  CZ         7.7780   13.4580   40.3540 C.ar  251  PHE251     -0.0000
     88  N          5.8330   17.5030   33.1260 N.3   268  MET268     -0.1245
     89  CA         6.0970   17.4170   34.5700 C.3   268  MET268      0.1570
     90  C          7.5700   17.5410   34.9260 C.2   268  MET268      0.2261
     91  O          7.9050   18.0610   35.9800 O.2   268  MET268     -0.2867
     92  CB         5.4970   16.1200   35.1480 C.3   268  MET268      0.0387
     93  CG         5.4780   16.0670   36.6620 C.3   268  MET268      0.0595
     94  SD         5.0060   14.4320   37.2780 S.3   268  MET268     -0.1393
     95  CE         6.5000   13.5070   36.9300 C.3   268  MET268      0.0692
     96  N         -1.1600   19.6400   36.8800 N.3   280  GLY280     -0.1210
     97  CA        -0.4930   18.3610   37.0990 C.3   280  GLY280      0.1956
     98  C         -0.8300   17.7820   38.4690 C.2   280  GLY280      0.2611
     99  O         -1.0540   16.5930   38.5930 O.2   280  GLY280     -0.2717
    100  N         -0.8550   18.6350   39.4890 N.am  281  GLN281     -0.1979
    101  CA        -1.0920   18.2000   40.8610 C.3   281  GLN281      0.1601
    102  C         -2.5450   17.7510   40.9400 C.2   281  GLN281      0.2287
    103  O         -2.8510   16.6990   41.4900 O.2   281  GLN281     -0.2864
    104  CB        -0.8360   19.3520   41.8290 C.3   281  GLN281      0.0394
    105  CG         0.6490   19.5800   42.1460 C.3   281  GLN281      0.0908
    106  CD         1.2590   18.3660   42.8330 C.2   281  GLN281      0.2608
    107  OE1        0.8080   17.9530   43.9040 O.2   281  GLN281     -0.2717
    108  NE2        2.2590   17.7590   42.1910 N.am  281  GLN281     -0.0878
    109  N         -2.8120   14.3090   39.5090 N.3   284  PHE284     -0.1241
    110  CA        -2.2690   13.3230   40.4140 C.3   284  PHE284      0.1605
    111  C         -3.2150   13.0120   41.5770 C.2   284  PHE284      0.2264
    112  O         -3.4100   11.8500   41.9250 O.2   284  PHE284     -0.2867
    113  CB        -0.9160   13.7690   40.9710 C.3   284  PHE284      0.0534
    114  CG        -0.2950   12.7530   41.8630 C.ar  284  PHE284     -0.0203
    115  CD1        0.4200   11.6850   41.3200 C.ar  284  PHE284     -0.0042
    116  CD2       -0.4160   12.8510   43.2460 C.ar  284  PHE284     -0.0042
    117  CE1        1.0010   10.7130   42.1450 C.ar  284  PHE284     -0.0003
    118  CE2        0.1720   11.8760   44.0780 C.ar  284  PHE284     -0.0003
    119  CZ         0.8660   10.8120   43.5230 C.ar  284  PHE284     -0.0000
@<TRIPOS>BOND
     1    88    89    1
     2    89    90    1
     3    89    92    1
     4    90    91    2
     5    92    93    1
     6    80    79    2
     7    93    94    1
     8    96    97    1
     9    95    94    1
    10    97    98    1
    11    79    78    1
    12    78    81    1
    13    78    77    1
    14    81    82    1
    15    98    99    2
    16    98   100   am
    17    74    72   ar
    18    74    75   ar
    19    82    83   ar
    20    82    84   ar
    21    83    85   ar
    22    72    70   ar
    23    76    75    1
    24    84    86   ar
    25   100   101    1
    26   109   110    1
    27    75    73   ar
    28    68    67    2
    29    85    87   ar
    30    26    25    2
    31    86    87   ar
    32    25    24    1
    33   110   113    1
    34   110   111    1
    35    70    69    1
    36    70    71   ar
    37   101   102    1
    38   101   104    1
    39   102   103    2
    40   113   114    1
    41    67    66    1
    42    69    66    1
    43    73    71   ar
    44    27    24    1
    45    27    28    1
    46    24    23    1
    47   115   114   ar
    48   115   117   ar
    49    66    65    1
    50   111   112    2
    51   104   105    1
    52   114   116   ar
    53    60    59    2
    54   117   119   ar
    55   105   106    1
    56    29    28    1
    57   108   106   am
    58    28    30    1
    59    65    59   am
    60   106   107    2
    61    59    58    1
    62   116   118   ar
    63    63    61    1
    64   119   118   ar
    65    21    19   ar
    66    21    22   ar
    67    58    61    1
    68    58    57    1
    69    19    18   ar
    70    61    62    1
    71    55    54    2
    72    22    20   ar
    73    18    20   ar
    74    18    17    1
    75    54    53    1
    76    62    64    1
    77    56    53    1
    78    38    36    1
    79    17    14    1
    80    53    52    1
    81    37    36    1
    82     8    10   ar
    83     8     6   ar
    84     5     6    1
    85     5     2    1
    86    36    35    1
    87     1     2    1
    88    10    11   ar
    89     6     7   ar
    90    13    14    1
    91    13     3   am
    92    14    15    1
    93     2     3    1
    94    50    49    1
    95     3     4    2
    96    11    12    1
    97    11     9   ar
    98    16    15    2
    99     7     9   ar
   100    35    32    1
   101    49    51    1
   102    49    46    1
   103    32    31    1
   104    32    33    1
   105    44    43    1
   106    34    33    2
   107    46    45    1
   108    46    47    1
   109    45    41   am
   110    43    40    1
   111    48    47    2
   112    41    40    1
   113    41    42    2
   114    40    39    1
