@<TRIPOS>MOLECULE
tmp/4llsA01.pdb
 215 202 0 0 0
SMALL
GASTEIGER

@<TRIPOS>ATOM
      1  N         -0.5720    3.4310    3.6150 N.3    55  ARG55      -0.1245
      2  CA        -1.2060    2.2130    4.0790 C.3    55  ARG55       0.1563
      3  C         -2.5940    2.5380    4.6570 C.2    55  ARG55       0.2260
      4  O         -3.5770    1.8960    4.3170 O.2    55  ARG55      -0.2867
      5  CB        -0.3220    1.5250    5.1260 C.3    55  ARG55       0.0307
      6  CG         0.9150    0.9380    4.4880 C.3    55  ARG55       0.0489
      7  CD         2.0260    0.6590    5.4930 C.3    55  ARG55       0.2205
      8  NE         3.3030    0.3580    4.8310 N.pl3  55  ARG55      -0.0865
      9  CZ         4.1370    1.2710    4.3290 C.cat  55  ARG55       0.5346
     10  NH1        5.2690    0.8600    3.7560 N.pl3  55  ARG55       0.1354
     11  NH2        3.8540    2.5550    4.3700 N.pl3  55  ARG55       0.1354
     12  N          2.8010    0.1430   11.2500 N.3    84  HIS84      -0.1241
     13  CA         3.8790    0.6800   10.4420 C.3    84  HIS84       0.1621
     14  C          4.7750    1.5630   11.2870 C.2    84  HIS84       0.2264
     15  O          6.0210    1.4780   11.2050 O.2    84  HIS84      -0.2867
     16  CB         3.2290    1.3960    9.2820 C.3    84  HIS84       0.0745
     17  CG         4.1600    2.1850    8.4380 C.ar   84  HIS84       0.0817
     18  ND1        5.1680    1.6150    7.7010 N.ar   84  HIS84      -0.2268
     19  CD2        4.1200    3.4900    8.0880 C.ar   84  HIS84       0.1154
     20  CE1        5.7700    2.5600    6.9890 C.ar   84  HIS84       0.1986
     21  NE2        5.1390    3.7010    7.1940 N.ar   84  HIS84      -0.2212
     22  N          5.3350    1.6130   14.4410 N.3    86  TYR86      -0.1227
     23  CA         6.1260    0.8320   15.4060 C.3    86  TYR86       0.1736
     24  C          7.3290    0.2420   14.6950 C.2    86  TYR86       0.2596
     25  O          8.4810    0.3020   15.2190 O.2    86  TYR86      -0.2718
     26  CB         5.2700   -0.2730   16.0730 C.3    86  TYR86       0.0548
     27  CG         5.7580   -1.6820   15.8900 C.ar   86  TYR86      -0.0200
     28  CD1        6.9080   -2.1430   16.5270 C.ar   86  TYR86      -0.0009
     29  CD2        5.0200   -2.6050   15.2020 C.ar   86  TYR86      -0.0009
     30  CE1        7.3560   -3.4200   16.3090 C.ar   86  TYR86       0.0417
     31  CE2        5.3810   -3.9310   15.1170 C.ar   86  TYR86       0.0417
     32  CZ         6.5760   -4.3400   15.6530 C.ar   86  TYR86       0.1957
     33  OH         7.0520   -5.6190   15.4510 O.3    86  TYR86      -0.2866
     34  N          7.1260   -0.3060   13.5150 N.am   87  SER87      -0.1938
     35  CA         8.2080   -0.9680   12.7830 C.3    87  SER87       0.2055
     36  C          9.3270    0.0070   12.4760 C.2    87  SER87       0.2642
     37  O         10.4980   -0.3610   12.5330 O.2    87  SER87      -0.2714
     38  CB         7.6800   -1.6520   11.4900 C.3    87  SER87       0.2130
     39  OG         7.4360   -0.6950   10.4430 O.3    87  SER87      -0.2179
     40  N          8.9850    1.2580   12.2200 N.am   88  LEU88      -0.1977
     41  CA        10.0080    2.2710   11.8590 C.3    88  LEU88       0.1596
     42  C         10.7580    2.7060   13.1230 C.2    88  LEU88       0.2287
     43  O         11.9760    2.9450   13.0670 O.2    88  LEU88      -0.2864
     44  CB         9.4060    3.4790   11.1700 C.3    88  LEU88       0.0297
     45  CG         8.6740    3.2160    9.8440 C.3    88  LEU88       0.0022
     46  CD1        8.1450    4.5230    9.2700 C.3    88  LEU88       0.0001
     47  CD2        9.5060    2.4390    8.8490 C.3    88  LEU88       0.0001
     48  N         11.4430    0.8980   15.7280 N.3    90  HIS90      -0.1226
     49  CA        12.4260   -0.1660   15.9720 C.3    90  HIS90       0.1752
     50  C         13.5000   -0.2510   14.9050 C.2    90  HIS90       0.2596
     51  O         14.6770   -0.3970   15.2550 O.2    90  HIS90      -0.2718
     52  CB        11.7420   -1.5150   16.2380 C.3    90  HIS90       0.0759
     53  CG        11.0610   -1.5680   17.5670 C.ar   90  HIS90       0.0818
     54  ND1       10.5340   -2.7310   18.0970 N.ar   90  HIS90      -0.2268
     55  CD2       10.9260   -0.6330   18.5270 C.ar   90  HIS90       0.1154
     56  CE1       10.0330   -2.4830   19.2810 C.ar   90  HIS90       0.1986
     57  NE2       10.2420   -1.2090   19.5660 N.ar   90  HIS90      -0.2212
     58  N         13.1520   -0.1340   13.6280 N.am   91  ASP91      -0.1960
     59  CA        14.1300   -0.1750   12.5450 C.3    91  ASP91       0.1840
     60  C         15.1850    0.9070   12.7280 C.2    91  ASP91       0.2622
     61  O         16.3420    0.6930   12.3430 O.2    91  ASP91      -0.2715
     62  CB        13.4560   -0.0160   11.1790 C.3    91  ASP91       0.1450
     63  CG        14.4260   -0.2500    9.9910 C.2    91  ASP91       0.3671
     64  OD1       14.9550   -1.3720    9.8620 O.co2  91  ASP91      -0.2456
     65  OD2       14.5400    0.6820    9.1700 O.co2  91  ASP91      -0.2456
     66  N         14.7800    2.0690   13.2090 N.am   92  ASP92      -0.1971
     67  CA        15.6940    3.2190   13.2770 C.3    92  ASP92       0.1709
     68  C         16.7270    3.0290   14.3930 C.2    92  ASP92       0.2293
     69  O         17.6810    3.7920   14.4510 O.2    92  ASP92      -0.2864
     70  CB        14.9320    4.5290   13.4370 C.3    92  ASP92       0.1436
     71  CG        14.1960    4.9820   12.1400 C.2    92  ASP92       0.3671
     72  OD1       13.1900    5.7270   12.2480 O.co2  92  ASP92      -0.2456
     73  OD2       14.6090    4.5830   11.0530 O.co2  92  ASP92      -0.2456
     74  N         19.7980   -1.5840   15.0200 N.3    96  MET96      -0.1230
     75  CA        19.2930   -1.9510   13.7170 C.3    96  MET96       0.1702
     76  C         19.8710   -1.0140   12.6600 C.2    96  MET96       0.2592
     77  O         21.0820   -1.0600   12.3860 O.2    96  MET96      -0.2718
     78  CB        17.7470   -1.9220   13.7410 C.3    96  MET96       0.0401
     79  CG        17.1730   -2.8020   14.8390 C.3    96  MET96       0.0596
     80  SD        16.1260   -4.1320   14.2200 S.3    96  MET96      -0.1393
     81  CE        15.7280   -4.9500   15.7660 C.3    96  MET96       0.0692
     82  N         19.0740   -0.1170   12.0880 N.am   97  ASP97      -0.1974
     83  CA        19.6170    0.7280   11.0130 C.3    97  ASP97       0.1709
     84  C         20.3030    1.9870   11.5320 C.2    97  ASP97       0.2293
     85  O         21.0370    2.6650   10.7760 O.2    97  ASP97      -0.2864
     86  CB        18.5330    1.0680    9.9790 C.3    97  ASP97       0.1436
     87  CG        18.2990   -0.0480    8.9830 C.2    97  ASP97       0.3671
     88  OD1       18.7830   -1.1930    9.1690 O.co2  97  ASP97      -0.2456
     89  OD2       17.4840    0.1620    8.0280 O.co2  97  ASP97      -0.2456
     90  N         19.3910    5.2410   12.5630 N.3    99  ASP99      -0.1239
     91  CA        19.0910    6.4650   11.8530 C.3    99  ASP99       0.1674
     92  C         18.6410    7.5770   12.7770 C.2    99  ASP99       0.2266
     93  O         17.8930    7.3400   13.7300 O.2    99  ASP99      -0.2867
     94  CB        17.9950    6.1920   10.8410 C.3    99  ASP99       0.1410
     95  CG        18.5430    5.8570    9.4960 C.2    99  ASP99       0.3668
     96  OD1       18.5580    4.6610    9.1540 O.co2  99  ASP99      -0.2456
     97  OD2       19.0030    6.7920    8.7870 O.co2  99  ASP99      -0.2456
     98  N         13.7910   10.8630   10.6180 N.3   102  ARG102     -0.1245
     99  CA        12.6670   10.1530    9.9810 C.3   102  ARG102      0.1563
    100  C         11.5680   11.2140    9.8370 C.2   102  ARG102      0.2260
    101  O         11.2520   11.9260   10.7770 O.2   102  ARG102     -0.2867
    102  CB        12.2410    8.9910   10.9090 C.3   102  ARG102      0.0307
    103  CG        10.8770    8.3260   10.6890 C.3   102  ARG102      0.0489
    104  CD        10.8420    7.3810    9.5230 C.3   102  ARG102      0.2205
    105  NE        11.6990    6.2000    9.6650 N.pl3 102  ARG102     -0.0865
    106  CZ        12.0830    5.4820    8.6250 C.cat 102  ARG102      0.5346
    107  NH1       12.9220    4.4880    8.7870 N.pl3 102  ARG102      0.1354
    108  NH2       11.5370    5.6920    7.4260 N.pl3 102  ARG102      0.1354
    109  N          6.2990   -9.4430    8.3340 N.3   160  MET160     -0.1230
    110  CA         7.1860   -8.3100    8.4500 C.3   160  MET160      0.1702
    111  C          8.4240   -8.6250    9.2810 C.2   160  MET160      0.2592
    112  O          9.5140   -8.1930    8.8920 O.2   160  MET160     -0.2718
    113  CB         6.4170   -7.1150    9.0030 C.3   160  MET160      0.0401
    114  CG         7.2170   -5.8350    9.0400 C.3   160  MET160      0.0596
    115  SD         6.3170   -4.5240    9.8620 S.3   160  MET160     -0.1393
    116  CE         6.4210   -5.0830   11.5960 C.3   160  MET160      0.0692
    117  N          8.2750   -9.2590   10.4620 N.am  161  VAL161     -0.1980
    118  CA         9.4580   -9.5160   11.2860 C.3   161  VAL161      0.1595
    119  C         10.3950  -10.5260   10.6300 C.2   161  VAL161      0.2287
    120  O         11.6220  -10.3680   10.7290 O.2   161  VAL161     -0.2864
    121  CB         9.0730   -9.9050   12.7090 C.3   161  VAL161      0.0276
    122  CG1       10.3350  -10.2920   13.4670 C.3   161  VAL161      0.0022
    123  CG2        8.3770   -8.7550   13.4040 C.3   161  VAL161      0.0022
    124  N         12.4580   -8.5560    8.1780 N.3   164  GLN164     -0.1245
    125  CA        13.5020   -7.8440    8.9040 C.3   164  GLN164      0.1566
    126  C         14.6290   -8.7910    9.2650 C.2   164  GLN164      0.2260
    127  O         15.8130   -8.4060    9.2160 O.2   164  GLN164     -0.2867
    128  CB        12.9750   -7.1240   10.1480 C.3   164  GLN164      0.0367
    129  CG        13.9920   -6.2090   10.8390 C.3   164  GLN164      0.0905
    130  CD        14.3840   -4.9520   10.0670 C.2   164  GLN164      0.2608
    131  OE1       14.1980   -4.8580    8.8570 O.2   164  GLN164     -0.2717
    132  NE2       14.7600   -3.9090   10.8090 N.am  164  GLN164     -0.0878
    133  N         16.7400   -9.5840    6.4100 N.3   167  ASP167     -0.1239
    134  CA        17.4520   -8.3960    5.9600 C.3   167  ASP167      0.1674
    135  C         18.6900   -8.2610    6.8080 C.2   167  ASP167      0.2266
    136  O         19.8030   -8.1550    6.2700 O.2   167  ASP167     -0.2867
    137  CB        16.5820   -7.1490    6.0900 C.3   167  ASP167      0.1410
    138  CG        17.0600   -6.0070    5.2200 C.2   167  ASP167      0.3668
    139  OD1       17.6760   -6.3100    4.1800 O.co2 167  ASP167     -0.2456
    140  OD2       16.9590   -4.8330    5.6570 O.co2 167  ASP167     -0.2456
    141  N          9.0800   -7.9190    4.2420 N.3   189  LYS189     -0.1231
    142  CA         9.5190   -6.7300    4.9470 C.3   189  LYS189      0.1693
    143  C          8.6150   -5.5400    4.6810 C.2   189  LYS189      0.2592
    144  O          8.3200   -4.7570    5.6130 O.2   189  LYS189     -0.2718
    145  CB        10.9700   -6.4030    4.6010 C.3   189  LYS189      0.0285
    146  CG        11.5440   -5.3400    5.4980 C.3   189  LYS189      0.0035
    147  CD        13.0640   -5.4890    5.5870 C.3   189  LYS189      0.0206
    148  CE        13.7880   -4.1630    5.7590 C.3   189  LYS189      0.1093
    149  NZ        14.5810   -3.6960    4.5810 N.3   189  LYS189     -0.1314
    150  N          8.1740   -5.3850    3.4350 N.am  190  THR190     -0.1953
    151  CA         7.2920   -4.3180    3.0440 C.3   190  THR190      0.1897
    152  C          5.9830   -4.7440    2.3530 C.2   190  THR190      0.2313
    153  O          4.9290   -4.0430    2.4650 O.2   190  THR190     -0.2863
    154  CB         8.0620   -3.2910    2.2140 C.3   190  THR190      0.1794
    155  OG1        8.4440   -3.9080    0.9930 O.3   190  THR190     -0.2208
    156  CG2        9.2920   -2.8570    3.0000 C.3   190  THR190      0.0378
    157  N          2.4850   -5.6480    4.9270 N.3   193  LEU193     -0.1245
    158  CA         1.5780   -4.6360    5.4700 C.3   193  LEU193      0.1561
    159  C          0.8380   -3.9700    4.3470 C.2   193  LEU193      0.2260
    160  O         -0.2800   -3.5200    4.5480 O.2   193  LEU193     -0.2867
    161  CB         2.2980   -3.5550    6.2760 C.3   193  LEU193      0.0270
    162  CG         3.0500   -3.9740    7.5220 C.3   193  LEU193      0.0019
    163  CD1        3.3910   -2.7340    8.3390 C.3   193  LEU193      0.0001
    164  CD2        2.2660   -5.0210    8.3140 C.3   193  LEU193      0.0001
    165  N          8.5470   -0.6580   -3.1390 N.3   224  GLN224     -0.1245
    166  CA         9.8770   -0.9210   -2.6370 C.3   224  GLN224      0.1566
    167  C         10.9300   -0.5010   -3.6570 C.2   224  GLN224      0.2260
    168  O         11.9750    0.0210   -3.2560 O.2   224  GLN224     -0.2867
    169  CB        10.0370   -2.3740   -2.2210 C.3   224  GLN224      0.0367
    170  CG        11.3720   -2.6060   -1.4980 C.3   224  GLN224      0.0905
    171  CD        11.5010   -1.7540   -0.2430 C.2   224  GLN224      0.2608
    172  OE1       10.5570   -1.6830    0.5600 O.2   224  GLN224     -0.2717
    173  NE2       12.5800   -0.9630   -0.1490 N.am  224  GLN224     -0.0878
    174  N         11.2700    3.1230   -3.3210 N.3   227  ASP227     -0.1225
    175  CA        12.0490    3.4360   -2.1300 C.3   227  ASP227      0.1805
    176  C         13.5560    3.2500   -2.3480 C.2   227  ASP227      0.2597
    177  O         14.3560    4.0170   -1.8550 O.2   227  ASP227     -0.2718
    178  CB        11.5580    2.6110   -0.9230 C.3   227  ASP227      0.1424
    179  CG        12.1770    3.0660    0.3960 C.2   227  ASP227      0.3668
    180  OD1       13.0920    2.3530    0.8870 O.co2 227  ASP227     -0.2456
    181  OD2       11.9270    4.2110    0.8550 O.co2 227  ASP227     -0.2456
    182  N         13.9060    2.1640   -3.0320 N.am  228  ASP228     -0.1974
    183  CA        15.3270    1.8580   -3.3020 C.3   228  ASP228      0.1709
    184  C         15.9160    2.9060   -4.2600 C.2   228  ASP228      0.2293
    185  O         17.0700    3.3220   -4.1140 O.2   228  ASP228     -0.2864
    186  CB        15.4310    0.4700   -3.9100 C.3   228  ASP228      0.1436
    187  CG        15.1680   -0.6760   -2.9160 C.2   228  ASP228      0.3671
    188  OD1       15.0200   -0.5080   -1.6650 O.co2 228  ASP228     -0.2456
    189  OD2       15.0810   -1.8150   -3.4320 O.co2 228  ASP228     -0.2456
    190  N         14.5900   11.5830    5.3970 N.3   241  LYS241     -0.1245
    191  CA        15.4940   10.6440    6.0320 C.3   241  LYS241      0.1561
    192  C         16.7950   10.6670    5.2160 C.2   241  LYS241      0.2260
    193  O         16.8230   11.2070    4.1050 O.2   241  LYS241     -0.2867
    194  CB        14.8930    9.2200    6.0190 C.3   241  LYS241      0.0271
    195  CG        14.6730    8.6360    4.6200 C.3   241  LYS241      0.0035
    196  CD        13.6380    7.4930    4.5780 C.3   241  LYS241      0.0206
    197  CE        13.6980    6.7170    3.2630 C.3   241  LYS241      0.1093
    198  NZ        12.5250    5.7840    3.0930 N.3   241  LYS241     -0.1314
    199  N         22.2380    5.3020    1.8390 N.3   245  LYS245     -0.1231
    200  CA        22.5140    4.3980    2.9510 C.3   245  LYS245      0.1693
    201  C         22.8040    2.9670    2.5110 C.2   245  LYS245      0.2592
    202  O         23.5390    2.2370    3.1890 O.2   245  LYS245     -0.2718
    203  CB        21.3370    4.4030    3.9290 C.3   245  LYS245      0.0285
    204  CG        21.0090    5.7790    4.4610 C.3   245  LYS245      0.0035
    205  CD        20.4020    5.7070    5.8410 C.3   245  LYS245      0.0206
    206  CE        18.9700    5.2000    5.7540 C.3   245  LYS245      0.1093
    207  NZ        17.9630    6.2070    6.2140 N.3   245  LYS245     -0.1314
    208  N         22.0780    2.5120    1.4960 N.am  246  ASP246     -0.1974
    209  CA        22.0200    1.1020    1.1760 C.3   246  ASP246      0.1709
    210  C         23.4050    0.5790    0.7670 C.2   246  ASP246      0.2293
    211  O         23.8430   -0.4720    1.2300 O.2   246  ASP246     -0.2864
    212  CB        21.0060    0.8660    0.0410 C.3   246  ASP246      0.1436
    213  CG        19.5480    1.0230    0.5090 C.2   246  ASP246      0.3671
    214  OD1       19.3310    0.9830    1.7400 O.co2 246  ASP246     -0.2456
    215  OD2       18.6460    1.1080   -0.3670 O.co2 246  ASP246     -0.2456
@<TRIPOS>BOND
     1   184   185    2
     2   184   183    1
     3   186   183    1
     4   186   187    1
     5   167   168    2
     6   167   166    1
     7   189   187   ar
     8   174   175    1
     9   183   182    1
    10   165   166    1
    11   182   176   am
    12   187   188   ar
    13   166   169    1
    14   176   175    1
    15   176   177    2
    16   169   170    1
    17   175   178    1
    18   170   171    1
    19   178   179    1
    20   215   213   ar
    21   171   173   am
    22   171   172    2
    23   212   213    1
    24   212   209    1
    25   179   181   ar
    26   179   180   ar
    27   213   214   ar
    28   210   209    1
    29   210   211    2
    30   155   154    1
    31   209   208    1
    32   208   201   am
    33   199   200    1
    34   154   156    1
    35   154   151    1
    36   152   153    2
    37   152   151    1
    38   201   200    1
    39   201   202    2
    40   200   203    1
    41   151   150    1
    42   198   197    1
    43   197   196    1
    44   150   143   am
    45     1     2    1
    46    10     9    1
    47   203   204    1
    48     2     3    1
    49     2     5    1
    50   193   192    2
    51   139   138   ar
    52   141   142    1
    53     4     3    2
    54     9    11    1
    55     9     8    2
    56   159   160    2
    57   159   158    1
    58   204   205    1
    59     6     5    1
    60     6     7    1
    61   196   195    1
    62   149   148    1
    63   145   142    1
    64   145   146    1
    65   195   194    1
    66   143   142    1
    67   143   144    2
    68     8     7    1
    69   157   158    1
    70   192   191    1
    71   138   140   ar
    72   138   137    1
    73   190   191    1
    74   158   161    1
    75   146   147    1
    76   147   148    1
    77   206   205    1
    78   206   207    1
    79   134   137    1
    80   134   133    1
    81   134   135    1
    82   194   191    1
    83   136   135    2
    84   161   162    1
    85    20    21   ar
    86    20    18   ar
    87    21    19   ar
    88   108   106    1
    89   162   164    1
    90   162   163    1
    91    18    17   ar
    92    89    87   ar
    93    19    17   ar
    94   124   125    1
    95   109   110    1
    96    17    16    1
    97   110   113    1
    98   110   111    1
    99   106   107    1
   100   106   105    2
   101    97    95   ar
   102    47    45    1
   103   131   130    2
   104   112   111    2
   105   125   126    1
   106   125   128    1
   107    87    88   ar
   108    87    86    1
   109   113   114    1
   110   114   115    1
   111    96    95   ar
   112    65    63   ar
   113   127   126    2
   114    46    45    1
   115   111   117   am
   116    16    13    1
   117    95    94    1
   118   104   105    1
   119   104   103    1
   120   100    99    1
   121   100   101    2
   122    45    44    1
   123   115   116    1
   124    64    63   ar
   125    86    83    1
   126    99    98    1
   127    99   102    1
   128    63    62    1
   129   130   132   am
   130   130   129    1
   131   128   129    1
   132    13    12    1
   133    13    14    1
   134    39    38    1
   135   117   118    1
   136   119   120    2
   137   119   118    1
   138   103   102    1
   139    85    84    2
   140    94    91    1
   141    83    84    1
   142    83    82    1
   143    73    71   ar
   144    44    41    1
   145    62    59    1
   146    15    14    2
   147   118   121    1
   148    38    35    1
   149    91    90    1
   150    91    92    1
   151    41    40    1
   152    41    42    1
   153    82    76   am
   154    71    72   ar
   155    71    70    1
   156    40    36   am
   157    61    60    2
   158    77    76    2
   159    36    37    2
   160    36    35    1
   161    59    60    1
   162    59    58    1
   163    76    75    1
   164   121   123    1
   165   121   122    1
   166    60    66   am
   167    92    93    2
   168    35    34    1
   169    43    42    2
   170    66    67    1
   171    67    70    1
   172    67    68    1
   173    34    24   am
   174    58    50   am
   175    75    78    1
   176    75    74    1
   177    78    79    1
   178    80    79    1
   179    80    81    1
   180    68    69    2
   181    22    23    1
   182    24    25    2
   183    24    23    1
   184    50    51    2
   185    50    49    1
   186    31    29   ar
   187    31    32   ar
   188    29    27   ar
   189    23    26    1
   190    33    32    1
   191    32    30   ar
   192    48    49    1
   193    27    26    1
   194    27    28   ar
   195    49    52    1
   196    52    53    1
   197    30    28   ar
   198    53    54   ar
   199    53    55   ar
   200    54    56   ar
   201    55    57   ar
   202    56    57   ar
