@<TRIPOS>MOLECULE
tmp/4llsA00.pdb
 166 158 0 0 0
SMALL
GASTEIGER

@<TRIPOS>ATOM
      1  N          4.0790   11.3690    7.6990 N.3    51  GLY51      -0.1210
      2  CA         4.0070   10.2690    6.7590 C.3    51  GLY51       0.1956
      3  C          3.0320   10.5090    5.6530 C.2    51  GLY51       0.2612
      4  O          2.1270   11.3470    5.7570 O.2    51  GLY51      -0.2717
      5  N          3.2220    9.7890    4.5610 N.am   52  LYS52      -0.1965
      6  CA         2.3100    9.8730    3.4340 C.3    52  LYS52       0.1728
      7  C          0.9440    9.2510    3.7170 C.2    52  LYS52       0.2616
      8  O         -0.0580    9.5630    3.0230 O.2    52  LYS52      -0.2715
      9  CB         2.9040    9.2040    2.2200 C.3    52  LYS52       0.0311
     10  CG         4.1910    9.8220    1.6900 C.3    52  LYS52       0.0038
     11  CD         4.7590    8.9990    0.5410 C.3    52  LYS52       0.0206
     12  CE         5.3380    7.6770    1.0040 C.3    52  LYS52       0.1093
     13  NZ         6.5060    7.9180    1.8890 N.3    52  LYS52      -0.1314
     14  N          0.8810    8.3490    4.6940 N.am   53  ARG53      -0.1963
     15  CA        -0.3270    7.5590    4.9580 C.3    53  ARG53       0.1729
     16  C         -0.7470    6.6430    3.8330 C.2    53  ARG53       0.2616
     17  O         -1.9460    6.3400    3.6680 O.2    53  ARG53      -0.2715
     18  CB        -1.5030    8.4260    5.4130 C.3    53  ARG53       0.0348
     19  CG        -1.1680    9.4390    6.4490 C.3    53  ARG53       0.0492
     20  CD        -0.5770    8.8420    7.6910 C.3    53  ARG53       0.2205
     21  NE        -0.6320    9.8060    8.7930 N.pl3  53  ARG53      -0.0865
     22  CZ        -0.1530    9.6050   10.0040 C.cat  53  ARG53       0.5346
     23  NH1        0.3560    8.4160   10.3530 N.pl3  53  ARG53       0.1354
     24  NH2       -0.3160   10.5630   10.9180 N.pl3  53  ARG53       0.1354
     25  N          0.1870    6.1330    3.0580 N.am   54  LEU54      -0.1963
     26  CA        -0.1780    5.2280    1.9980 C.3    54  LEU54       0.1728
     27  C         -1.0160    4.0540    2.5310 C.2    54  LEU54       0.2616
     28  O         -2.0160    3.6530    1.9200 O.2    54  LEU54      -0.2715
     29  CB         1.0600    4.6830    1.2890 C.3    54  LEU54       0.0311
     30  CG         0.8850    3.5540    0.2800 C.3    54  LEU54       0.0022
     31  CD1        0.0720    4.0020   -0.9240 C.3    54  LEU54       0.0001
     32  CD2        2.2270    2.9840   -0.1720 C.3    54  LEU54       0.0001
     33  N         -0.5720    3.4310    3.6150 N.am   55  ARG55      -0.1977
     34  CA        -1.2060    2.2130    4.0790 C.3    55  ARG55       0.1597
     35  C         -2.5940    2.5380    4.6570 C.2    55  ARG55       0.2287
     36  O         -3.5770    1.8960    4.3170 O.2    55  ARG55      -0.2864
     37  CB        -0.3220    1.5250    5.1260 C.3    55  ARG55       0.0334
     38  CG         0.9150    0.9380    4.4880 C.3    55  ARG55       0.0492
     39  CD         2.0260    0.6590    5.4930 C.3    55  ARG55       0.2205
     40  NE         3.3030    0.3580    4.8310 N.pl3  55  ARG55      -0.0865
     41  CZ         4.1370    1.2710    4.3290 C.cat  55  ARG55       0.5346
     42  NH1        5.2690    0.8600    3.7560 N.pl3  55  ARG55       0.1354
     43  NH2        3.8540    2.5550    4.3700 N.pl3  55  ARG55       0.1354
     44  N         -1.4210    2.1950   10.2970 N.3    81  GLU81      -0.1245
     45  CA        -0.4550    3.2650   10.5240 C.3    81  GLU81       0.1567
     46  C          0.3050    3.1630   11.8650 C.2    81  GLU81       0.2260
     47  O          1.5020    3.4670   11.9480 O.2    81  GLU81      -0.2867
     48  CB        -1.0950    4.6170   10.3700 C.3    81  GLU81       0.0388
     49  CG        -1.4730    4.8870    8.9380 C.3    81  GLU81       0.1160
     50  CD        -0.3050    5.1490    7.9930 C.2    81  GLU81       0.3649
     51  OE1        0.7020    5.7680    8.4480 O.co2  81  GLU81      -0.2457
     52  OE2       -0.4190    4.8050    6.7890 O.co2  81  GLU81      -0.2457
     53  N          2.8010    0.1430   11.2500 N.3    84  HIS84      -0.1241
     54  CA         3.8790    0.6800   10.4420 C.3    84  HIS84       0.1621
     55  C          4.7750    1.5630   11.2870 C.2    84  HIS84       0.2264
     56  O          6.0210    1.4780   11.2050 O.2    84  HIS84      -0.2867
     57  CB         3.2290    1.3960    9.2820 C.3    84  HIS84       0.0745
     58  CG         4.1600    2.1850    8.4380 C.ar   84  HIS84       0.0817
     59  ND1        5.1680    1.6150    7.7010 N.ar   84  HIS84      -0.2268
     60  CD2        4.1200    3.4900    8.0880 C.ar   84  HIS84       0.1154
     61  CE1        5.7700    2.5600    6.9890 C.ar   84  HIS84       0.1986
     62  NE2        5.1390    3.7010    7.1940 N.ar   84  HIS84      -0.2212
     63  N          8.9850    1.2580   12.2200 N.3    88  LEU88      -0.1245
     64  CA        10.0080    2.2710   11.8590 C.3    88  LEU88       0.1561
     65  C         10.7580    2.7060   13.1230 C.2    88  LEU88       0.2260
     66  O         11.9760    2.9450   13.0670 O.2    88  LEU88      -0.2867
     67  CB         9.4060    3.4790   11.1700 C.3    88  LEU88       0.0270
     68  CG         8.6740    3.2160    9.8440 C.3    88  LEU88       0.0019
     69  CD1        8.1450    4.5230    9.2700 C.3    88  LEU88       0.0001
     70  CD2        9.5060    2.4390    8.8490 C.3    88  LEU88       0.0001
     71  N         13.7910   10.8630   10.6180 N.3   102  ARG102     -0.1231
     72  CA        12.6670   10.1530    9.9810 C.3   102  ARG102      0.1694
     73  C         11.5680   11.2140    9.8370 C.2   102  ARG102      0.2591
     74  O         11.2520   11.9260   10.7770 O.2   102  ARG102     -0.2718
     75  CB        12.2410    8.9910   10.9090 C.3   102  ARG102      0.0321
     76  CG        10.8770    8.3260   10.6890 C.3   102  ARG102      0.0489
     77  CD        10.8420    7.3810    9.5230 C.3   102  ARG102      0.2205
     78  NE        11.6990    6.2000    9.6650 N.pl3 102  ARG102     -0.0865
     79  CZ        12.0830    5.4820    8.6250 C.cat 102  ARG102      0.5346
     80  NH1       12.9220    4.4880    8.7870 N.pl3 102  ARG102      0.1354
     81  NH2       11.5370    5.6920    7.4260 N.pl3 102  ARG102      0.1354
     82  N         10.9810   11.2920    8.6530 N.am  103  ARG103     -0.1980
     83  CA         9.9070   12.2480    8.3720 C.3   103  ARG103      0.1597
     84  C         10.3050   13.6980    8.7150 C.2   103  ARG103      0.2287
     85  O          9.4540   14.5070    9.1310 O.2   103  ARG103     -0.2864
     86  CB         8.6060   11.8680    9.0880 C.3   103  ARG103      0.0334
     87  CG         7.9960   10.5760    8.5430 C.3   103  ARG103      0.0492
     88  CD         6.9820   10.0130    9.5180 C.3   103  ARG103      0.2205
     89  NE         6.3700    8.7730    9.0530 N.pl3 103  ARG103     -0.0865
     90  CZ         5.5200    8.0620    9.7790 C.cat 103  ARG103      0.5346
     91  NH1        5.0500    6.9220    9.3210 N.pl3 103  ARG103      0.1354
     92  NH2        5.2040    8.4880   11.0080 N.pl3 103  ARG103      0.1354
     93  N          9.0800   -7.9190    4.2420 N.3   189  LYS189     -0.1231
     94  CA         9.5190   -6.7300    4.9470 C.3   189  LYS189      0.1693
     95  C          8.6150   -5.5400    4.6810 C.2   189  LYS189      0.2592
     96  O          8.3200   -4.7570    5.6130 O.2   189  LYS189     -0.2718
     97  CB        10.9700   -6.4030    4.6010 C.3   189  LYS189      0.0285
     98  CG        11.5440   -5.3400    5.4980 C.3   189  LYS189      0.0035
     99  CD        13.0640   -5.4890    5.5870 C.3   189  LYS189      0.0206
    100  CE        13.7880   -4.1630    5.7590 C.3   189  LYS189      0.1093
    101  NZ        14.5810   -3.6960    4.5810 N.3   189  LYS189     -0.1314
    102  N          8.1740   -5.3850    3.4350 N.am  190  THR190     -0.1953
    103  CA         7.2920   -4.3180    3.0440 C.3   190  THR190      0.1897
    104  C          5.9830   -4.7440    2.3530 C.2   190  THR190      0.2313
    105  O          4.9290   -4.0430    2.4650 O.2   190  THR190     -0.2863
    106  CB         8.0620   -3.2910    2.2140 C.3   190  THR190      0.1794
    107  OG1        8.4440   -3.9080    0.9930 O.3   190  THR190     -0.2208
    108  CG2        9.2920   -2.8570    3.0000 C.3   190  THR190      0.0378
    109  N          6.3780   -0.0690   -4.9290 N.3   223  PHE223     -0.1227
    110  CA         6.6870    0.8080   -3.8200 C.3   223  PHE223      0.1736
    111  C          8.1390    0.5890   -3.3250 C.2   223  PHE223      0.2595
    112  O          8.8520    1.5570   -3.0660 O.2   223  PHE223     -0.2718
    113  CB         5.6690    0.5770   -2.6900 C.3   223  PHE223      0.0547
    114  CG         6.0210    1.2560   -1.3880 C.ar  223  PHE223     -0.0202
    115  CD1        5.6350    2.5400   -1.1630 C.ar  223  PHE223     -0.0042
    116  CD2        6.8740    0.6330   -0.4900 C.ar  223  PHE223     -0.0042
    117  CE1        6.0330    3.1820    0.0090 C.ar  223  PHE223     -0.0003
    118  CE2        7.2460    1.2480    0.6810 C.ar  223  PHE223     -0.0003
    119  CZ         6.8570    2.5460    0.8870 C.ar  223  PHE223     -0.0000
    120  N          8.5470   -0.6580   -3.1390 N.am  224  GLN224     -0.1979
    121  CA         9.8770   -0.9210   -2.6370 C.3   224  GLN224      0.1601
    122  C         10.9300   -0.5010   -3.6570 C.2   224  GLN224      0.2287
    123  O         11.9750    0.0210   -3.2560 O.2   224  GLN224     -0.2864
    124  CB        10.0370   -2.3740   -2.2210 C.3   224  GLN224      0.0394
    125  CG        11.3720   -2.6060   -1.4980 C.3   224  GLN224      0.0908
    126  CD        11.5010   -1.7540   -0.2430 C.2   224  GLN224      0.2608
    127  OE1       10.5570   -1.6830    0.5600 O.2   224  GLN224     -0.2717
    128  NE2       12.5800   -0.9630   -0.1490 N.am  224  GLN224     -0.0878
    129  N         11.2700    3.1230   -3.3210 N.3   227  ASP227     -0.1239
    130  CA        12.0490    3.4360   -2.1300 C.3   227  ASP227      0.1674
    131  C         13.5560    3.2500   -2.3480 C.2   227  ASP227      0.2266
    132  O         14.3560    4.0170   -1.8550 O.2   227  ASP227     -0.2867
    133  CB        11.5580    2.6110   -0.9230 C.3   227  ASP227      0.1410
    134  CG        12.1770    3.0660    0.3960 C.2   227  ASP227      0.3668
    135  OD1       13.0920    2.3530    0.8870 O.co2 227  ASP227     -0.2456
    136  OD2       11.9270    4.2110    0.8550 O.co2 227  ASP227     -0.2456
    137  N         14.5900   11.5830    5.3970 N.3   241  LYS241     -0.1245
    138  CA        15.4940   10.6440    6.0320 C.3   241  LYS241      0.1561
    139  C         16.7950   10.6670    5.2160 C.2   241  LYS241      0.2260
    140  O         16.8230   11.2070    4.1050 O.2   241  LYS241     -0.2867
    141  CB        14.8930    9.2200    6.0190 C.3   241  LYS241      0.0271
    142  CG        14.6730    8.6360    4.6200 C.3   241  LYS241      0.0035
    143  CD        13.6380    7.4930    4.5780 C.3   241  LYS241      0.0206
    144  CE        13.6980    6.7170    3.2630 C.3   241  LYS241      0.1093
    145  NZ        12.5250    5.7840    3.0930 N.3   241  LYS241     -0.1314
    146  N          6.1550    9.3900   -6.8900 N.3   298  ARG298     -0.1245
    147  CA         6.3220   10.2340   -5.7290 C.3   298  ARG298      0.1563
    148  C          7.7740   10.6890   -5.5320 C.2   298  ARG298      0.2260
    149  O          8.7070    9.9810   -5.9000 O.2   298  ARG298     -0.2867
    150  CB         5.8320    9.4820   -4.4960 C.3   298  ARG298      0.0307
    151  CG         6.6430    8.2210   -4.2280 C.3   298  ARG298      0.0489
    152  CD         5.9410    7.2870   -3.2560 C.3   298  ARG298      0.2205
    153  NE         6.6520    6.0360   -3.1250 N.pl3 298  ARG298     -0.0865
    154  CZ         7.5580    5.7950   -2.1840 C.cat 298  ARG298      0.5346
    155  NH1        7.8890    6.7350   -1.2990 N.pl3 298  ARG298      0.1354
    156  NH2        8.1700    4.6250   -2.1470 N.pl3 298  ARG298      0.1354
    157  N          8.8680   11.4370   -2.3800 N.3   300  HIS300     -0.1241
    158  CA         9.1160   11.1910   -0.9660 C.3   300  HIS300      0.1621
    159  C          8.2990    9.9670   -0.5730 C.2   300  HIS300      0.2264
    160  O          8.3280    9.5650    0.6130 O.2   300  HIS300     -0.2867
    161  CB         8.7120   12.4120   -0.1210 C.3   300  HIS300      0.0745
    162  CG         7.2740   12.7830   -0.2690 C.ar  300  HIS300      0.0817
    163  ND1        6.7720   13.3160   -1.4370 N.ar  300  HIS300     -0.2268
    164  CD2        6.1960   12.4840    0.4980 C.ar  300  HIS300      0.1154
    165  CE1        5.4520   13.3960   -1.3540 C.ar  300  HIS300      0.1986
    166  NE2        5.0840   12.9430   -0.1670 N.ar  300  HIS300     -0.2212
@<TRIPOS>BOND
     1   146   147    1
     2   149   148    2
     3   147   148    1
     4   147   150    1
     5   109   110    1
     6   150   151    1
     7   151   152    1
     8   110   111    1
     9   110   113    1
    10   122   123    2
    11   122   121    1
    12   111   120   am
    13   111   112    2
    14   129   130    1
    15   152   153    1
    16   120   121    1
    17   153   154    2
    18   113   114    1
    19   121   124    1
    20   157   158    1
    21   131   130    1
    22   131   132    2
    23   124   125    1
    24   154   156    1
    25   154   155    1
    26   130   133    1
    27   125   126    1
    28   163   165   ar
    29   163   162   ar
    30   114   115   ar
    31   114   116   ar
    32   165   166   ar
    33   115   117   ar
    34   158   159    1
    35   158   161    1
    36    31    30    1
    37   133   134    1
    38   159   160    2
    39   116   118   ar
    40   162   161    1
    41   162   164   ar
    42   126   128   am
    43   126   127    2
    44    32    30    1
    45   166   164   ar
    46   117   119   ar
    47    30    29    1
    48   134   136   ar
    49   134   135   ar
    50    11    12    1
    51    11    10    1
    52   118   119   ar
    53   107   106    1
    54    12    13    1
    55    29    26    1
    56    10     9    1
    57    28    27    2
    58    26    27    1
    59    26    25    1
    60   106   108    1
    61   106   103    1
    62     9     6    1
    63   104   105    2
    64   104   103    1
    65    27    33   am
    66     8     7    2
    67   103   102    1
    68    25    16   am
    69   145   144    1
    70   144   143    1
    71     6     7    1
    72     6     5    1
    73   102    95   am
    74    33    34    1
    75    17    16    2
    76     7    14   am
    77    42    41    1
    78    16    15    1
    79    34    35    1
    80    34    37    1
    81   140   139    2
    82    93    94    1
    83    36    35    2
    84    41    43    1
    85    41    40    2
    86    38    37    1
    87    38    39    1
    88     5     3   am
    89   143   142    1
    90   101   100    1
    91    97    94    1
    92    97    98    1
    93   142   141    1
    94    95    94    1
    95    95    96    2
    96    14    15    1
    97    40    39    1
    98    15    18    1
    99   139   138    1
   100   137   138    1
   101    18    19    1
   102    98    99    1
   103    99   100    1
   104     3     4    2
   105     3     2    1
   106   141   138    1
   107    19    20    1
   108     2     1    1
   109    52    50   ar
   110    61    62   ar
   111    61    59   ar
   112    62    60   ar
   113    81    79    1
   114    20    21    1
   115    59    58   ar
   116    50    51   ar
   117    50    49    1
   118    60    58   ar
   119    83    82    1
   120    83    84    1
   121    83    86    1
   122    58    57    1
   123    87    86    1
   124    87    88    1
   125    79    80    1
   126    79    78    2
   127    82    73   am
   128    84    85    2
   129    21    22    2
   130    70    68    1
   131    49    48    1
   132    89    88    1
   133    89    90    2
   134    69    68    1
   135    57    54    1
   136    91    90    1
   137    77    78    1
   138    77    76    1
   139    90    92    1
   140    73    72    1
   141    73    74    2
   142    68    67    1
   143    72    71    1
   144    72    75    1
   145    22    23    1
   146    22    24    1
   147    44    45    1
   148    48    45    1
   149    54    53    1
   150    54    55    1
   151    45    46    1
   152    76    75    1
   153    67    64    1
   154    56    55    2
   155    64    63    1
   156    64    65    1
   157    46    47    2
   158    66    65    2
