@<TRIPOS>MOLECULE
tmp/4lltB01.pdb
 150 137 0 0 0
SMALL
GASTEIGER

@<TRIPOS>ATOM
      1  N          3.6230   -6.2510   27.9220 N.3    74  HIS74      -0.1241
      2  CA         4.5330   -6.1530   29.0320 C.3    74  HIS74       0.1621
      3  C          5.9960   -6.3930   28.6670 C.2    74  HIS74       0.2264
      4  O          6.8600   -5.6050   29.0310 O.2    74  HIS74      -0.2867
      5  CB         4.0180   -7.1380   30.0730 C.3    74  HIS74       0.0745
      6  CG         4.9120   -7.3570   31.2410 C.ar   74  HIS74       0.0817
      7  ND1        5.1900   -6.3830   32.1810 N.ar   74  HIS74      -0.2268
      8  CD2        5.5050   -8.5010   31.6750 C.ar   74  HIS74       0.1154
      9  CE1        5.9470   -6.9160   33.1310 C.ar   74  HIS74       0.1986
     10  NE2        6.1260   -8.2020   32.8570 N.ar   74  HIS74      -0.2212
     11  N          7.4780   -3.3670   26.9190 N.3    77  SER77      -0.1202
     12  CA         7.7400   -2.2670   27.8370 C.3    77  SER77       0.2020
     13  C          9.0600   -2.4890   28.5730 C.2    77  SER77       0.2618
     14  O          9.7980   -1.5180   28.7790 O.2    77  SER77      -0.2717
     15  CB         6.5920   -2.1180   28.8040 C.3    77  SER77       0.2103
     16  OG         6.5660   -3.0760   29.8280 O.3    77  SER77      -0.2182
     17  N          9.3710   -3.7470   28.8970 N.am   78  LEU78      -0.1979
     18  CA        10.6430   -4.0820   29.5660 C.3    78  LEU78       0.1596
     19  C         11.8110   -3.9700   28.6260 C.2    78  LEU78       0.2287
     20  O         12.8800   -3.4280   28.9970 O.2    78  LEU78      -0.2864
     21  CB        10.6230   -5.4690   30.1940 C.3    78  LEU78       0.0297
     22  CG         9.4810   -5.7640   31.1470 C.3    78  LEU78       0.0022
     23  CD1        9.5250   -7.1830   31.6770 C.3    78  LEU78       0.0001
     24  CD2        9.4080   -4.8060   32.2940 C.3    78  LEU78       0.0001
     25  N         12.4140   -0.3230   28.5420 N.3    81  ASP81      -0.1225
     26  CA        12.8290    0.2190   29.8620 C.3    81  ASP81       0.1805
     27  C         14.2730   -0.1030   30.1540 C.2    81  ASP81       0.2597
     28  O         14.9640    0.6660   30.8590 O.2    81  ASP81      -0.2718
     29  CB        11.9450   -0.3380   30.9540 C.3    81  ASP81       0.1424
     30  CG        12.0670    0.4020   32.2800 C.2    81  ASP81       0.3668
     31  OD1       11.9340    1.6540   32.3220 O.co2  81  ASP81      -0.2456
     32  OD2       12.3710   -0.3140   33.2620 O.co2  81  ASP81      -0.2456
     33  N         14.7460   -1.2190   29.6400 N.am   82  ASP82      -0.1974
     34  CA        16.0830   -1.6890   29.9910 C.3    82  ASP82       0.1709
     35  C         17.1600   -0.9340   29.2040 C.2    82  ASP82       0.2293
     36  O         18.3510   -1.0830   29.4860 O.2    82  ASP82      -0.2864
     37  CB        16.1840   -3.1960   29.7580 C.3    82  ASP82       0.1436
     38  CG        15.4750   -4.0410   30.8630 C.2    82  ASP82       0.3671
     39  OD1       15.0290   -5.2030   30.5490 O.co2  82  ASP82      -0.2456
     40  OD2       15.2340   -3.5170   31.9880 O.co2  82  ASP82      -0.2456
     41  N         16.5830    2.8120   31.7380 N.3    87  ASP87      -0.1239
     42  CA        17.0960    2.4010   33.0530 C.3    87  ASP87       0.1674
     43  C         18.4480    1.6710   32.9240 C.2    87  ASP87       0.2266
     44  O         19.1410    1.4490   33.9270 O.2    87  ASP87      -0.2867
     45  CB        16.0790    1.5270   33.8180 C.3    87  ASP87       0.1410
     46  CG        14.9550    2.3310   34.5070 C.2    87  ASP87       0.3668
     47  OD1       14.9100    3.5830   34.4490 O.co2  87  ASP87      -0.2456
     48  OD2       14.0480    1.6870   35.1020 O.co2  87  ASP87      -0.2456
     49  N         19.7790   -1.4830   32.0580 N.3    89  ASP89      -0.1239
     50  CA        19.9420   -2.7600   32.7490 C.3    89  ASP89       0.1674
     51  C         20.5320   -3.7880   31.7870 C.2    89  ASP89       0.2266
     52  O         20.1020   -3.9040   30.6190 O.2    89  ASP89      -0.2867
     53  CB        18.6170   -3.2550   33.3010 C.3    89  ASP89       0.1410
     54  CG        18.3520   -2.7500   34.7120 C.2    89  ASP89       0.3668
     55  OD1       19.0580   -3.2210   35.6460 O.co2  89  ASP89      -0.2456
     56  OD2       17.5510   -1.7980   34.8800 O.co2  89  ASP89      -0.2456
     57  N         17.7670   -9.2390   32.8150 N.3    92  ARG92      -0.1245
     58  CA        16.3420   -9.3110   33.0330 C.3    92  ARG92       0.1563
     59  C         15.9670  -10.7890   33.0000 C.2    92  ARG92       0.2260
     60  O         16.3470  -11.5010   32.0570 O.2    92  ARG92      -0.2867
     61  CB        15.6390   -8.5130   31.9130 C.3    92  ARG92       0.0307
     62  CG        14.1250   -8.6970   31.7420 C.3    92  ARG92       0.0489
     63  CD        13.3060   -7.9580   32.7640 C.3    92  ARG92       0.2205
     64  NE        13.4260   -6.4970   32.7140 N.pl3  92  ARG92      -0.0865
     65  CZ        12.9210   -5.7370   33.6710 C.cat  92  ARG92       0.5346
     66  NH1       13.0590   -4.4520   33.6030 N.pl3  92  ARG92       0.1354
     67  NH2       12.2730   -6.2950   34.7000 N.pl3  92  ARG92       0.1354
     68  N          0.3920    3.1630   30.8400 N.3   150  MET150     -0.1245
     69  CA         1.7400    2.7140   31.1620 C.3   150  MET150      0.1570
     70  C          2.8220    3.7200   30.7380 C.2   150  MET150      0.2261
     71  O          3.7470    3.9640   31.5090 O.2   150  MET150     -0.2867
     72  CB         2.0090    1.3680   30.5140 C.3   150  MET150      0.0387
     73  CG         3.3170    0.7350   30.8370 C.3   150  MET150      0.0595
     74  SD         3.6170   -0.6140   29.6730 S.3   150  MET150     -0.1393
     75  CE         3.9530    0.1410   28.0530 C.3   150  MET150      0.0692
     76  N          5.6700    5.7610   32.8560 N.3   154  GLN154     -0.1245
     77  CA         7.0840    5.8650   32.4830 C.3   154  GLN154      0.1566
     78  C          7.5320    7.3190   32.4100 C.2   154  GLN154      0.2260
     79  O          8.6630    7.6720   32.8420 O.2   154  GLN154     -0.2867
     80  CB         7.3710    5.1730   31.1600 C.3   154  GLN154      0.0367
     81  CG         7.3410    3.6810   31.2760 C.3   154  GLN154      0.0905
     82  CD         8.5720    3.1390   31.9630 C.2   154  GLN154      0.2608
     83  OE1        8.7600    3.3080   33.1850 O.2   154  GLN154     -0.2717
     84  NE2        9.4130    2.4740   31.1980 N.am  154  GLN154     -0.0878
     85  N          2.2430    3.2820   35.8390 N.3   179  LYS179     -0.1231
     86  CA         3.3980    2.4760   35.5130 C.3   179  LYS179      0.1693
     87  C          3.2110    0.9670   35.6520 C.2   179  LYS179      0.2592
     88  O          3.7560    0.2000   34.8470 O.2   179  LYS179     -0.2718
     89  CB         4.5750    2.8850   36.3930 C.3   179  LYS179      0.0285
     90  CG         5.8920    2.3900   35.8590 C.3   179  LYS179      0.0035
     91  CD         7.0570    3.2580   36.3270 C.3   179  LYS179      0.0206
     92  CE         7.8840    2.4930   37.3170 C.3   179  LYS179      0.1093
     93  NZ         9.3120    2.8880   37.1780 N.3   179  LYS179     -0.1314
     94  N          2.5080    0.5470   36.6840 N.am  180  THR180     -0.1953
     95  CA         2.1820   -0.8500   36.9290 C.3   180  THR180      0.1897
     96  C          0.6750   -1.1330   37.0060 C.2   180  THR180      0.2313
     97  O          0.2230   -2.2310   36.6110 O.2   180  THR180     -0.2863
     98  CB         2.8510   -1.3400   38.2280 C.3   180  THR180      0.1794
     99  OG1        2.3050   -0.6550   39.3540 O.3   180  THR180     -0.2208
    100  CG2        4.3110   -1.1240   38.1270 C.3   180  THR180      0.0378
    101  N         -1.6010   -1.9750   33.3650 N.3   183  LEU183     -0.1245
    102  CA        -1.5670   -3.2710   32.6620 C.3   183  LEU183      0.1561
    103  C         -2.1400   -4.3690   33.5570 C.2   183  LEU183      0.2260
    104  O         -2.7750   -5.3160   33.0830 O.2   183  LEU183     -0.2867
    105  CB        -0.1960   -3.6700   32.2090 C.3   183  LEU183      0.0270
    106  CG         0.5700   -2.7920   31.2270 C.3   183  LEU183      0.0019
    107  CD1        1.7560   -3.5760   30.6870 C.3   183  LEU183      0.0001
    108  CD2       -0.3480   -2.3950   30.1140 C.3   183  LEU183      0.0001
    109  N          3.4160   -3.4360   43.3190 N.3   214  GLN214     -0.1245
    110  CA         4.4410   -2.4310   43.2550 C.3   214  GLN214      0.1566
    111  C          5.1800   -2.2990   44.5610 C.2   214  GLN214      0.2260
    112  O          6.4000   -2.1720   44.5640 O.2   214  GLN214     -0.2867
    113  CB         3.9370   -1.0800   42.8160 C.3   214  GLN214      0.0367
    114  CG         5.1050   -0.1570   42.4450 C.3   214  GLN214      0.0905
    115  CD         6.0480   -0.8230   41.4360 C.2   214  GLN214      0.2608
    116  OE1        5.5850   -1.3710   40.4350 O.2   214  GLN214     -0.2717
    117  NE2        7.3550   -0.8610   41.7340 N.am  214  GLN214     -0.0878
    118  N          7.4850   -5.0840   44.6280 N.3   217  ASP217     -0.1225
    119  CA         8.6080   -4.9070   43.7050 C.3   217  ASP217      0.1805
    120  C          9.6280   -3.9340   44.3180 C.2   217  ASP217      0.2597
    121  O         10.8360   -4.1340   44.1930 O.2   217  ASP217     -0.2718
    122  CB         8.1140   -4.3630   42.3490 C.3   217  ASP217      0.1424
    123  CG         9.2490   -4.2310   41.3370 C.2   217  ASP217      0.3668
    124  OD1        9.7620   -5.2850   40.8700 O.co2 217  ASP217     -0.2456
    125  OD2        9.6190   -3.0760   41.0300 O.co2 217  ASP217     -0.2456
    126  N          9.1380   -2.9040   45.0200 N.am  218  ASP218     -0.1974
    127  CA        10.0240   -1.9640   45.7250 C.3   218  ASP218      0.1709
    128  C         10.7170   -2.6190   46.8980 C.2   218  ASP218      0.2293
    129  O         11.9090   -2.3810   47.1240 O.2   218  ASP218     -0.2864
    130  CB         9.2590   -0.7710   46.2570 C.3   218  ASP218      0.1436
    131  CG         8.7120    0.1240   45.1650 C.2   218  ASP218      0.3671
    132  OD1        9.0090   -0.0540   43.9590 O.co2 218  ASP218     -0.2456
    133  OD2        7.9410    1.0330   45.5310 O.co2 218  ASP218     -0.2456
    134  N         17.2070   -9.7380   38.0790 N.3   231  LYS231     -0.1245
    135  CA        17.6380   -8.4130   37.6770 C.3   231  LYS231      0.1561
    136  C         18.4490   -7.7900   38.8250 C.2   231  LYS231      0.2260
    137  O         18.4090   -8.2820   39.9560 O.2   231  LYS231     -0.2867
    138  CB        16.3940   -7.5400   37.3280 C.3   231  LYS231      0.0271
    139  CG        15.5160   -7.2070   38.5370 C.3   231  LYS231      0.0035
    140  CD        14.0600   -6.8440   38.1760 C.3   231  LYS231      0.0206
    141  CE        13.3140   -6.2360   39.3700 C.3   231  LYS231      0.1093
    142  NZ        11.8250   -6.0750   39.1640 N.3   231  LYS231     -0.1314
    143  N         17.0260    1.5540   43.1450 N.3   236  ASP236     -0.1239
    144  CA        16.1350    2.6550   43.4220 C.3   236  ASP236      0.1674
    145  C         16.9120    3.7290   44.2020 C.2   236  ASP236      0.2266
    146  O         16.9080    4.8930   43.8270 O.2   236  ASP236     -0.2867
    147  CB        14.8990    2.1550   44.1920 C.3   236  ASP236      0.1410
    148  CG        13.9170    1.3570   43.3030 C.2   236  ASP236      0.3668
    149  OD1       13.9590    1.5140   42.0630 O.co2 236  ASP236     -0.2456
    150  OD2       13.0550    0.6230   43.8650 O.co2 236  ASP236     -0.2456
@<TRIPOS>BOND
     1    11    12    1
     2    12    13    1
     3    12    15    1
     4     1     2    1
     5    75    74    1
     6    25    26    1
     7    13    14    2
     8    13    17   am
     9    19    20    2
    10    19    18    1
    11     3     4    2
    12     3     2    1
    13    15    16    1
    14    17    18    1
    15     2     5    1
    16    35    36    2
    17    35    34    1
    18    18    21    1
    19    33    34    1
    20    33    27   am
    21    74    73    1
    22    37    34    1
    23    37    38    1
    24    26    27    1
    25    26    29    1
    26     5     6    1
    27   108   106    1
    28    27    28    2
    29    21    22    1
    30    72    73    1
    31    72    69    1
    32    39    38   ar
    33    52    51    2
    34   107   106    1
    35    70    69    1
    36    70    71    2
    37    68    69    1
    38    38    40   ar
    39    29    30    1
    40    22    23    1
    41    22    24    1
    42    80    81    1
    43    80    77    1
    44    84    82   am
    45   106   105    1
    46     6     8   ar
    47     6     7   ar
    48    81    82    1
    49     8    10   ar
    50    41    42    1
    51    62    61    1
    52    62    63    1
    53    51    50    1
    54    61    58    1
    55    82    83    2
    56    60    59    2
    57    49    50    1
    58     7     9   ar
    59   105   102    1
    60    30    31   ar
    61    30    32   ar
    62    78    77    1
    63    78    79    2
    64    77    76    1
    65   102   101    1
    66   102   103    1
    67    64    63    1
    68    64    65    2
    69    50    53    1
    70    57    58    1
    71    10     9   ar
    72    43    42    1
    73    43    44    2
    74    59    58    1
    75    42    45    1
    76   104   103    2
    77    53    54    1
    78    66    65    1
    79    65    67    1
    80    45    46    1
    81    47    46   ar
    82    46    48   ar
    83    54    56   ar
    84    54    55   ar
    85    88    87    2
    86    86    87    1
    87    86    85    1
    88    86    89    1
    89    87    94   am
    90    90    91    1
    91    90    89    1
    92    91    92    1
    93    97    96    2
    94    94    95    1
    95    95    96    1
    96    95    98    1
    97    93    92    1
    98   138   135    1
    99   138   139    1
   100   135   134    1
   101   135   136    1
   102   100    98    1
   103   140   139    1
   104   140   141    1
   105    98    99    1
   106   136   137    2
   107   142   141    1
   108   116   115    2
   109   124   123   ar
   110   125   123   ar
   111   123   122    1
   112   115   117   am
   113   115   114    1
   114   149   148   ar
   115   122   119    1
   116   114   113    1
   117   113   110    1
   118   143   144    1
   119   110   109    1
   120   110   111    1
   121   148   150   ar
   122   148   147    1
   123   144   147    1
   124   144   145    1
   125   119   120    1
   126   119   118    1
   127   146   145    2
   128   132   131   ar
   129   121   120    2
   130   120   126   am
   131   111   112    2
   132   126   127    1
   133   131   133   ar
   134   131   130    1
   135   127   130    1
   136   127   128    1
   137   128   129    2
