@<TRIPOS>MOLECULE
tmp/4llxA00.pdb
 127 122 0 0 0
SMALL
GASTEIGER

@<TRIPOS>ATOM
      1  N         14.9540   14.5260   46.6860 N.3    79  TYR79      -0.1227
      2  CA        13.7300   13.9210   47.2850 C.3    79  TYR79       0.1736
      3  C         13.8670   12.4670   47.7590 C.2    79  TYR79       0.2595
      4  O         13.5400   12.1430   48.9110 O.2    79  TYR79      -0.2718
      5  CB        12.5470   14.0700   46.3390 C.3    79  TYR79       0.0548
      6  CG        11.2840   13.4240   46.8610 C.ar   79  TYR79      -0.0200
      7  CD1       10.5860   13.9900   47.9280 C.ar   79  TYR79      -0.0009
      8  CD2       10.8090   12.2420   46.3100 C.ar   79  TYR79      -0.0009
      9  CE1        9.4290   13.3930   48.4400 C.ar   79  TYR79       0.0417
     10  CE2        9.6240   11.6210   46.8240 C.ar   79  TYR79       0.0417
     11  CZ         8.9530   12.2190   47.8840 C.ar   79  TYR79       0.1957
     12  OH         7.7800   11.6660   48.3900 O.3    79  TYR79      -0.2866
     13  N         14.3390   11.5750   46.8900 N.am   80  HIS80      -0.1975
     14  CA        14.4170   10.1410   47.2700 C.3    80  HIS80       0.1656
     15  C         15.6060    9.8780   48.1610 C.2    80  HIS80       0.2291
     16  O         16.5640    9.2250   47.7830 O.2    80  HIS80      -0.2864
     17  CB        14.3740    9.2480   46.0450 C.3    80  HIS80       0.0771
     18  CG        13.0540    9.2640   45.3360 C.ar   80  HIS80       0.0820
     19  ND1       12.8310   10.0270   44.2100 N.ar   80  HIS80      -0.2267
     20  CD2       11.8750    8.6450   45.6060 C.ar   80  HIS80       0.1154
     21  CE1       11.5860    9.8450   43.7960 C.ar   80  HIS80       0.1986
     22  NE2       10.9820    9.0330   44.6390 N.ar   80  HIS80      -0.2212
     23  N          4.7320    2.5470   41.6460 N.3   190  LEU190     -0.1245
     24  CA         3.3620    3.0820   41.3840 C.3   190  LEU190      0.1561
     25  C          2.6670    2.4580   40.1710 C.2   190  LEU190      0.2260
     26  O          1.3970    2.4520   40.1060 O.2   190  LEU190     -0.2867
     27  CB         3.3750    4.6130   41.2470 C.3   190  LEU190      0.0270
     28  CG         3.4240    5.4330   42.5450 C.3   190  LEU190      0.0019
     29  CD1        3.5900    6.9270   42.2080 C.3   190  LEU190      0.0001
     30  CD2        2.1390    5.1730   43.3880 C.3   190  LEU190      0.0001
     31  N          4.3590    5.8400   51.1330 N.3   229  ASP229     -0.1225
     32  CA         5.2670    6.4260   50.1270 C.3   229  ASP229      0.1805
     33  C          4.7730    7.8150   49.7350 C.2   229  ASP229      0.2597
     34  O          5.5500    8.7340   49.5850 O.2   229  ASP229     -0.2718
     35  CB         5.3650    5.5190   48.8550 C.3   229  ASP229      0.1424
     36  CG         6.7200    5.6360   48.1090 C.2   229  ASP229      0.3668
     37  OD1        6.9120    4.9900   47.0730 O.co2 229  ASP229     -0.2456
     38  OD2        7.5620    6.4060   48.5270 O.co2 229  ASP229     -0.2456
     39  N          3.4660    7.9960   49.6110 N.am  230  LEU230     -0.1979
     40  CA         2.9480    9.2690   49.1830 C.3   230  LEU230      0.1596
     41  C          2.5410   10.2390   50.3050 C.2   230  LEU230      0.2287
     42  O          1.9160   11.2560   49.9930 O.2   230  LEU230     -0.2864
     43  CB         1.7110    9.0390   48.3040 C.3   230  LEU230      0.0297
     44  CG         1.9070    8.1420   47.0690 C.3   230  LEU230      0.0022
     45  CD1        0.5370    8.0490   46.4240 C.3   230  LEU230      0.0001
     46  CD2        2.9710    8.7490   46.1210 C.3   230  LEU230      0.0001
     47  N          3.7180   12.6150   52.1020 N.3   232  SER232     -0.1202
     48  CA         3.8880   14.0670   51.9510 C.3   232  SER232      0.2020
     49  C          2.5880   14.7860   51.7110 C.2   232  SER232      0.2618
     50  O          2.4220   15.9040   52.1920 O.2   232  SER232     -0.2717
     51  CB         4.8240   14.4500   50.8080 C.3   232  SER232      0.2103
     52  OG         4.1710   14.4660   49.5420 O.3   232  SER232     -0.2182
     53  N          1.7120   14.1620   50.9290 N.am  233  VAL233     -0.1979
     54  CA         0.3970   14.7450   50.6300 C.3   233  VAL233      0.1595
     55  C         -0.6340   14.7130   51.7620 C.2   233  VAL233      0.2287
     56  O         -1.7640   15.2250   51.5690 O.2   233  VAL233     -0.2864
     57  CB        -0.2450   14.1660   49.3180 C.3   233  VAL233      0.0276
     58  CG1        0.7300   14.2470   48.1200 C.3   233  VAL233      0.0022
     59  CG2       -0.7870   12.7290   49.5370 C.3   233  VAL233      0.0022
     60  N          6.9070   19.0630   47.8850 N.3   244  ALA244     -0.1245
     61  CA         6.7100   19.1370   46.4300 C.3   244  ALA244      0.1562
     62  C          7.8820   19.8620   45.7220 C.2   244  ALA244      0.2260
     63  O          8.3040   19.4470   44.6450 O.2   244  ALA244     -0.2867
     64  CB         5.3640   19.7930   46.0890 C.3   244  ALA244      0.0290
     65  N         10.6220   17.2220   45.3220 N.3   247  ILE247     -0.1231
     66  CA        10.2080   16.2540   44.3050 C.3   247  ILE247      0.1692
     67  C         10.4410   16.8010   42.8710 C.2   247  ILE247      0.2592
     68  O         10.9870   16.1020   42.0130 O.2   247  ILE247     -0.2718
     69  CB         8.6590   15.9600   44.4770 C.3   247  ILE247      0.0266
     70  CG1        8.3520   15.2120   45.7890 C.3   247  ILE247      0.0019
     71  CG2        8.0750   15.2540   43.3000 C.3   247  ILE247      0.0020
     72  CD1        6.8350   15.2300   46.1930 C.3   247  ILE247      0.0001
     73  N          9.9960   18.0290   42.6120 N.am  248  TYR248     -0.1976
     74  CA        10.1040   18.6010   41.2800 C.3   248  TYR248      0.1639
     75  C         11.5470   18.9340   40.9740 C.2   248  TYR248      0.2290
     76  O         11.9380   18.8780   39.8400 O.2   248  TYR248     -0.2864
     77  CB         9.2360   19.8290   41.1070 C.3   248  TYR248      0.0560
     78  CG         7.8540   19.4150   40.7140 C.ar  248  TYR248     -0.0198
     79  CD1        6.9350   19.0490   41.6740 C.ar  248  TYR248     -0.0009
     80  CD2        7.5000   19.3010   39.3740 C.ar  248  TYR248     -0.0009
     81  CE1        5.6480   18.6330   41.3050 C.ar  248  TYR248      0.0417
     82  CE2        6.1940   18.8810   38.9900 C.ar  248  TYR248      0.0417
     83  CZ         5.3010   18.5590   39.9570 C.ar  248  TYR248      0.1957
     84  OH         4.0300   18.1330   39.6180 O.3   248  TYR248     -0.2866
     85  N         12.6260   15.8290   39.4960 N.3   251  PHE251     -0.1241
     86  CA        12.0520   15.7130   38.1640 C.3   251  PHE251      0.1605
     87  C         12.7970   16.6000   37.1130 C.2   251  PHE251      0.2264
     88  O         13.1020   16.1440   36.0070 O.2   251  PHE251     -0.2867
     89  CB        10.5720   16.0810   38.1830 C.3   251  PHE251      0.0534
     90  CG         9.6790   15.0960   38.9140 C.ar  251  PHE251     -0.0203
     91  CD1       10.0590   13.7910   39.1230 C.ar  251  PHE251     -0.0042
     92  CD2        8.4230   15.5080   39.3690 C.ar  251  PHE251     -0.0042
     93  CE1        9.2030   12.8800   39.8060 C.ar  251  PHE251     -0.0003
     94  CE2        7.5420   14.6180   40.0190 C.ar  251  PHE251     -0.0003
     95  CZ         7.9380   13.2960   40.2390 C.ar  251  PHE251     -0.0000
     96  N          6.0300   17.4370   33.1910 N.3   268  MET268     -0.1245
     97  CA         6.2230   17.3580   34.6170 C.3   268  MET268      0.1570
     98  C          7.7260   17.4880   34.9250 C.2   268  MET268      0.2261
     99  O          8.1290   18.0110   35.9590 O.2   268  MET268     -0.2867
    100  CB         5.7190   16.0120   35.1480 C.3   268  MET268      0.0387
    101  CG         5.6420   15.9500   36.6600 C.3   268  MET268      0.0595
    102  SD         5.2140   14.3310   37.3310 S.3   268  MET268     -0.1393
    103  CE         6.7110   13.4030   37.0020 C.3   268  MET268      0.0692
    104  N         -0.7470   19.7570   37.2870 N.3   280  GLY280     -0.1210
    105  CA        -0.1500   18.4290   37.3610 C.3   280  GLY280      0.1956
    106  C         -0.4140   17.8000   38.7190 C.2   280  GLY280      0.2611
    107  O         -0.7770   16.6090   38.7970 O.2   280  GLY280     -0.2717
    108  N         -0.2790   18.6120   39.7730 N.am  281  GLN281     -0.1979
    109  CA        -0.5560   18.1410   41.1290 C.3   281  GLN281      0.1601
    110  C         -2.0180   17.7560   41.2520 C.2   281  GLN281      0.2287
    111  O         -2.3520   16.7040   41.8140 O.2   281  GLN281     -0.2864
    112  CB        -0.1430   19.1720   42.1800 C.3   281  GLN281      0.0394
    113  CG         1.3720   19.1640   42.4320 C.3   281  GLN281      0.0908
    114  CD         1.8680   17.8320   43.0020 C.2   281  GLN281      0.2608
    115  OE1        1.5870   17.5090   44.1480 O.2   281  GLN281     -0.2717
    116  NE2        2.6010   17.0470   42.1930 N.am  281  GLN281     -0.0878
    117  N         -2.3850   14.3890   39.7280 N.3   284  PHE284     -0.1241
    118  CA        -1.8400   13.4180   40.6470 C.3   284  PHE284      0.1605
    119  C         -2.7610   13.0780   41.8430 C.2   284  PHE284      0.2264
    120  O         -2.9980   11.9000   42.1470 O.2   284  PHE284     -0.2867
    121  CB        -0.4220   13.8190   41.1110 C.3   284  PHE284      0.0534
    122  CG         0.2000   12.7770   41.9470 C.ar  284  PHE284     -0.0203
    123  CD1        0.7910   11.6500   41.3460 C.ar  284  PHE284     -0.0042
    124  CD2        0.1220   12.8460   43.3390 C.ar  284  PHE284     -0.0042
    125  CE1        1.3310   10.6410   42.1210 C.ar  284  PHE284     -0.0003
    126  CE2        0.6720   11.8240   44.1210 C.ar  284  PHE284     -0.0003
    127  CZ         1.2660   10.7310   43.5190 C.ar  284  PHE284     -0.0000
@<TRIPOS>BOND
     1    96    97    1
     2    97    98    1
     3    97   100    1
     4    98    99    2
     5   100   101    1
     6    88    87    2
     7   101   102    1
     8   103   102    1
     9    87    86    1
    10   104   105    1
    11   105   106    1
    12    86    89    1
    13    86    85    1
    14    89    90    1
    15   106   107    2
    16   106   108   am
    17    90    91   ar
    18    90    92   ar
    19    82    80   ar
    20    82    83   ar
    21    91    93   ar
    22    92    94   ar
    23    80    78   ar
    24    84    83    1
    25   117   118    1
    26   108   109    1
    27    93    95   ar
    28    76    75    2
    29    83    81   ar
    30    94    95   ar
    31    26    25    2
    32    25    24    1
    33   118   121    1
    34   118   119    1
    35    78    77    1
    36    78    79   ar
    37    75    74    1
    38    77    74    1
    39   121   122    1
    40   109   110    1
    41   109   112    1
    42    27    24    1
    43    27    28    1
    44   110   111    2
    45    74    73    1
    46    81    79   ar
    47   123   122   ar
    48   123   125   ar
    49    24    23    1
    50   119   120    2
    51   122   124   ar
    52    68    67    2
    53   125   127   ar
    54   112   113    1
    55   116   114   am
    56    29    28    1
    57   113   114    1
    58    28    30    1
    59    73    67   am
    60    67    66    1
    61   114   115    2
    62    71    69    1
    63   124   126   ar
    64   127   126   ar
    65    21    19   ar
    66    21    22   ar
    67    19    18   ar
    68    66    69    1
    69    66    65    1
    70    69    70    1
    71    22    20   ar
    72    63    62    2
    73    18    20   ar
    74    18    17    1
    75    62    61    1
    76    70    72    1
    77    17    14    1
    78    64    61    1
    79    46    44    1
    80     8    10   ar
    81     8     6   ar
    82     5     6    1
    83     5     2    1
    84    45    44    1
    85    61    60    1
    86     1     2    1
    87    10    11   ar
    88     6     7   ar
    89    13    14    1
    90    13     3   am
    91    44    43    1
    92    37    36   ar
    93    14    15    1
    94     2     3    1
    95     3     4    2
    96    16    15    2
    97    11    12    1
    98    11     9   ar
    99     7     9   ar
   100    36    38   ar
   101    36    35    1
   102    58    57    1
   103    43    40    1
   104    35    32    1
   105    40    39    1
   106    40    41    1
   107    57    59    1
   108    57    54    1
   109    52    51    1
   110    34    33    2
   111    39    33   am
   112    33    32    1
   113    42    41    2
   114    32    31    1
   115    54    53    1
   116    54    55    1
   117    51    48    1
   118    53    49   am
   119    56    55    2
   120    49    48    1
   121    49    50    2
   122    48    47    1
