@<TRIPOS>MOLECULE
tmp/4lm0A00.pdb
 101 98 0 0 0
SMALL
GASTEIGER

@<TRIPOS>ATOM
      1  N         14.7560   14.7150   47.0690 N.3    79  TYR79      -0.1227
      2  CA        13.5570   14.0910   47.6430 C.3    79  TYR79       0.1736
      3  C         13.6870   12.6410   48.1180 C.2    79  TYR79       0.2595
      4  O         13.2400   12.3420   49.2260 O.2    79  TYR79      -0.2718
      5  CB        12.3930   14.1850   46.6730 C.3    79  TYR79       0.0548
      6  CG        11.1180   13.5810   47.2250 C.ar   79  TYR79      -0.0200
      7  CD1       10.4260   14.2130   48.2410 C.ar   79  TYR79      -0.0009
      8  CD2       10.6250   12.3560   46.7380 C.ar   79  TYR79      -0.0009
      9  CE1        9.2360   13.6430   48.7650 C.ar   79  TYR79       0.0417
     10  CE2        9.4570   11.7900   47.2490 C.ar   79  TYR79       0.0417
     11  CZ         8.7690   12.4630   48.2540 C.ar   79  TYR79       0.1957
     12  OH         7.5940   11.9260   48.7470 O.3    79  TYR79      -0.2866
     13  N         14.2330   11.7460   47.2840 N.am   80  HIS80      -0.1975
     14  CA        14.2640   10.3170   47.6560 C.3    80  HIS80       0.1656
     15  C         15.4610   10.0250   48.5250 C.2    80  HIS80       0.2291
     16  O         16.3740    9.3090   48.1060 O.2    80  HIS80      -0.2864
     17  CB        14.2520    9.4250   46.4390 C.3    80  HIS80       0.0771
     18  CG        12.9690    9.4590   45.6820 C.ar   80  HIS80       0.0820
     19  ND1       12.7700   10.2920   44.6040 N.ar   80  HIS80      -0.2267
     20  CD2       11.8010    8.8010   45.8710 C.ar   80  HIS80       0.1154
     21  CE1       11.5430   10.1130   44.1310 C.ar   80  HIS80       0.1986
     22  NE2       10.9260    9.2350   44.9010 N.ar   80  HIS80      -0.2212
     23  N          4.6150    2.7300   41.9390 N.3   190  LEU190     -0.1245
     24  CA         3.2520    3.2730   41.6670 C.3   190  LEU190      0.1561
     25  C          2.6050    2.6440   40.4350 C.2   190  LEU190      0.2260
     26  O          1.3850    2.6040   40.3200 O.2   190  LEU190     -0.2867
     27  CB         3.2280    4.8020   41.5570 C.3   190  LEU190      0.0270
     28  CG         3.1990    5.6140   42.8480 C.3   190  LEU190      0.0019
     29  CD1        3.3620    7.0870   42.4790 C.3   190  LEU190      0.0001
     30  CD2        1.8870    5.3530   43.6670 C.3   190  LEU190      0.0001
     31  N          3.3230    8.1330   49.9090 N.3   230  LEU230     -0.1245
     32  CA         2.8100    9.4070   49.4790 C.3   230  LEU230      0.1561
     33  C          2.3910   10.3280   50.6050 C.2   230  LEU230      0.2260
     34  O          1.7580   11.3610   50.3160 O.2   230  LEU230     -0.2867
     35  CB         1.5450    9.1880   48.6090 C.3   230  LEU230      0.0270
     36  CG         1.7470    8.2840   47.3730 C.3   230  LEU230      0.0019
     37  CD1        0.4570    8.1360   46.6180 C.3   230  LEU230      0.0001
     38  CD2        2.8500    8.8320   46.4710 C.3   230  LEU230      0.0001
     39  N         10.3690   17.3490   45.6400 N.3   247  ILE247     -0.1231
     40  CA         9.9750   16.3820   44.6060 C.3   247  ILE247      0.1692
     41  C         10.3070   16.9590   43.2110 C.2   247  ILE247      0.2592
     42  O         10.9850   16.3260   42.3780 O.2   247  ILE247     -0.2718
     43  CB         8.4080   16.1340   44.7260 C.3   247  ILE247      0.0266
     44  CG1        8.0960   15.3830   46.0340 C.3   247  ILE247      0.0019
     45  CG2        7.8720   15.4250   43.5290 C.3   247  ILE247      0.0020
     46  CD1        6.5800   15.4260   46.5110 C.3   247  ILE247      0.0001
     47  N          9.8440   18.1820   42.9640 N.am  248  TYR248     -0.1976
     48  CA        10.0630   18.8190   41.6660 C.3   248  TYR248      0.1639
     49  C         11.5140   19.1450   41.3720 C.2   248  TYR248      0.2290
     50  O         11.8970   19.0670   40.2260 O.2   248  TYR248     -0.2864
     51  CB         9.1810   20.0420   41.4830 C.3   248  TYR248      0.0560
     52  CG         7.8160   19.6350   40.9940 C.ar  248  TYR248     -0.0198
     53  CD1        6.7990   19.3270   41.9000 C.ar  248  TYR248     -0.0009
     54  CD2        7.5550   19.4860   39.6240 C.ar  248  TYR248     -0.0009
     55  CE1        5.5320   18.9220   41.4490 C.ar  248  TYR248      0.0417
     56  CE2        6.2990   19.0860   39.1610 C.ar  248  TYR248      0.0417
     57  CZ         5.2930   18.8280   40.0770 C.ar  248  TYR248      0.1957
     58  OH         4.0570   18.4390   39.6660 O.3   248  TYR248     -0.2866
     59  N         12.5550   16.0320   39.8520 N.3   251  PHE251     -0.1241
     60  CA        12.0030   15.8300   38.5440 C.3   251  PHE251      0.1605
     61  C         12.7310   16.7270   37.5150 C.2   251  PHE251      0.2264
     62  O         12.9920   16.2990   36.3950 O.2   251  PHE251     -0.2867
     63  CB        10.5060   16.2170   38.5230 C.3   251  PHE251      0.0534
     64  CG         9.5900   15.2780   39.2830 C.ar  251  PHE251     -0.0203
     65  CD1        9.9460   13.9870   39.5590 C.ar  251  PHE251     -0.0042
     66  CD2        8.3240   15.7280   39.6950 C.ar  251  PHE251     -0.0042
     67  CE1        9.0820   13.1310   40.2670 C.ar  251  PHE251     -0.0003
     68  CE2        7.4390   14.8810   40.3940 C.ar  251  PHE251     -0.0003
     69  CZ         7.8300   13.5680   40.6690 C.ar  251  PHE251     -0.0000
     70  N          5.9580   17.6410   33.4690 N.3   268  MET268     -0.1245
     71  CA         6.1940   17.5530   34.8950 C.3   268  MET268      0.1570
     72  C          7.6720   17.6280   35.2290 C.2   268  MET268      0.2261
     73  O          8.0510   18.1060   36.3020 O.2   268  MET268     -0.2867
     74  CB         5.6250   16.2340   35.4360 C.3   268  MET268      0.0387
     75  CG         5.5440   16.1930   36.9650 C.3   268  MET268      0.0595
     76  SD         5.1330   14.5360   37.6140 S.3   268  MET268     -0.1393
     77  CE         6.7110   13.6830   37.3770 C.3   268  MET268      0.0692
     78  N         -0.9560   19.7340   37.3410 N.3   280  GLY280     -0.1210
     79  CA        -0.2860   18.4540   37.5040 C.3   280  GLY280      0.1956
     80  C         -0.5760   17.8470   38.8840 C.2   280  GLY280      0.2611
     81  O         -0.8240   16.6430   39.0070 O.2   280  GLY280     -0.2717
     82  N         -0.5070   18.6800   39.9220 N.am  281  GLN281     -0.1979
     83  CA        -0.8340   18.2200   41.2750 C.3   281  GLN281      0.1601
     84  C         -2.3020   17.8230   41.3970 C.2   281  GLN281      0.2287
     85  O         -2.6010   16.7870   41.9950 O.2   281  GLN281     -0.2864
     86  CB        -0.4840   19.2920   42.2840 C.3   281  GLN281      0.0394
     87  CG         1.0300   19.4620   42.4810 C.3   281  GLN281      0.0908
     88  CD         1.6650   18.1990   43.0340 C.2   281  GLN281      0.2608
     89  OE1        1.4180   17.8330   44.1730 O.2   281  GLN281     -0.2717
     90  NE2        2.4540   17.4910   42.2020 N.am  281  GLN281     -0.0878
     91  N         -2.6310   14.4220   39.9510 N.3   284  PHE284     -0.1241
     92  CA        -2.0560   13.4070   40.8300 C.3   284  PHE284      0.1605
     93  C         -2.9750   13.0870   42.0140 C.2   284  PHE284      0.2264
     94  O         -3.1510   11.9080   42.3570 O.2   284  PHE284     -0.2867
     95  CB        -0.6640   13.8380   41.3340 C.3   284  PHE284      0.0534
     96  CG        -0.0020   12.7900   42.1740 C.ar  284  PHE284     -0.0203
     97  CD1        0.6110   11.7070   41.5640 C.ar  284  PHE284     -0.0042
     98  CD2       -0.0390   12.8580   43.5760 C.ar  284  PHE284     -0.0042
     99  CE1        1.2070   10.6980   42.3140 C.ar  284  PHE284     -0.0003
    100  CE2        0.5490   11.8320   44.3610 C.ar  284  PHE284     -0.0003
    101  CZ         1.1700   10.7530   43.7270 C.ar  284  PHE284     -0.0000
@<TRIPOS>BOND
     1    70    71    1
     2    71    72    1
     3    71    74    1
     4    72    73    2
     5    74    75    1
     6    62    61    2
     7    75    76    1
     8    78    79    1
     9    77    76    1
    10    79    80    1
    11    61    60    1
    12    63    60    1
    13    63    64    1
    14    60    59    1
    15    80    81    2
    16    80    82   am
    17    56    54   ar
    18    56    57   ar
    19    64    65   ar
    20    64    66   ar
    21    65    67   ar
    22    54    52   ar
    23    58    57    1
    24    66    68   ar
    25    82    83    1
    26    91    92    1
    27    57    55   ar
    28    50    49    2
    29    67    69   ar
    30    26    25    2
    31    68    69   ar
    32    25    24    1
    33    92    95    1
    34    92    93    1
    35    52    51    1
    36    52    53   ar
    37    83    84    1
    38    83    86    1
    39    95    96    1
    40    49    48    1
    41    84    85    2
    42    55    53   ar
    43    51    48    1
    44    27    24    1
    45    27    28    1
    46    97    96   ar
    47    97    99   ar
    48    48    47    1
    49    24    23    1
    50    93    94    2
    51    96    98   ar
    52    90    88   am
    53    86    87    1
    54    99   101   ar
    55    42    41    2
    56    29    28    1
    57    87    88    1
    58    28    30    1
    59    47    41   am
    60    88    89    2
    61    41    40    1
    62    45    43    1
    63    98   100   ar
    64   101   100   ar
    65    21    19   ar
    66    21    22   ar
    67    19    18   ar
    68    40    43    1
    69    40    39    1
    70    43    44    1
    71    22    20   ar
    72    18    20   ar
    73    18    17    1
    74    44    46    1
    75    17    14    1
    76    38    36    1
    77    37    36    1
    78     5     6    1
    79     5     2    1
    80     8     6   ar
    81     8    10   ar
    82     1     2    1
    83     6     7   ar
    84    10    11   ar
    85    13    14    1
    86    13     3   am
    87    36    35    1
    88     2     3    1
    89    14    15    1
    90    16    15    2
    91     3     4    2
    92     7     9   ar
    93    11    12    1
    94    11     9   ar
    95    35    32    1
    96    32    31    1
    97    32    33    1
    98    34    33    2
