@<TRIPOS>MOLECULE
tmp/4lm1A00.pdb
 127 122 0 0 0
SMALL
GASTEIGER

@<TRIPOS>ATOM
      1  N         15.0840   14.5400   46.7280 N.3    79  TYR79      -0.1227
      2  CA        13.8900   13.9570   47.3150 C.3    79  TYR79       0.1736
      3  C         14.0380   12.5030   47.7890 C.2    79  TYR79       0.2595
      4  O         13.6520   12.2010   48.9160 O.2    79  TYR79      -0.2718
      5  CB        12.7240   14.0920   46.3420 C.3    79  TYR79       0.0548
      6  CG        11.4470   13.4880   46.8790 C.ar   79  TYR79      -0.0200
      7  CD1       10.7440   14.1220   47.9080 C.ar   79  TYR79      -0.0009
      8  CD2       10.9940   12.2760   46.4040 C.ar   79  TYR79      -0.0009
      9  CE1        9.5670   13.5590   48.4140 C.ar   79  TYR79       0.0417
     10  CE2        9.8220   11.6990   46.9190 C.ar   79  TYR79       0.0417
     11  CZ         9.1310   12.3560   47.9160 C.ar   79  TYR79       0.1957
     12  OH         7.9480   11.7790   48.3970 O.3    79  TYR79      -0.2866
     13  N         14.5940   11.6190   46.9530 N.am   80  HIS80      -0.1975
     14  CA        14.6100   10.1670   47.2700 C.3    80  HIS80       0.1656
     15  C         15.7630    9.8590   48.1860 C.2    80  HIS80       0.2291
     16  O         16.6810    9.1440   47.8140 O.2    80  HIS80      -0.2864
     17  CB        14.6070    9.3230   46.0170 C.3    80  HIS80       0.0771
     18  CG        13.2880    9.3300   45.2960 C.ar   80  HIS80       0.0820
     19  ND1       13.0720   10.0880   44.1690 N.ar   80  HIS80      -0.2267
     20  CD2       12.1160    8.6940   45.5540 C.ar   80  HIS80       0.1154
     21  CE1       11.8220    9.9100   43.7540 C.ar   80  HIS80       0.1986
     22  NE2       11.2180    9.0930   44.5900 N.ar   80  HIS80      -0.2212
     23  N          4.9230    2.6060   41.6110 N.3   190  LEU190     -0.1245
     24  CA         3.5490    3.1460   41.3390 C.3   190  LEU190      0.1561
     25  C          2.8220    2.5180   40.1500 C.2   190  LEU190      0.2260
     26  O          1.5750    2.5090   40.1300 O.2   190  LEU190     -0.2867
     27  CB         3.5350    4.6780   41.2100 C.3   190  LEU190      0.0270
     28  CG         3.5700    5.4940   42.5050 C.3   190  LEU190      0.0019
     29  CD1        3.6850    6.9750   42.1430 C.3   190  LEU190      0.0001
     30  CD2        2.2100    5.2240   43.3420 C.3   190  LEU190      0.0001
     31  N          4.5650    5.8050   51.1820 N.3   229  ASP229     -0.1225
     32  CA         5.4100    6.4360   50.1910 C.3   229  ASP229      0.1805
     33  C          4.9070    7.8270   49.8040 C.2   229  ASP229      0.2597
     34  O          5.6990    8.7490   49.6090 O.2   229  ASP229     -0.2718
     35  CB         5.4890    5.5440   48.9430 C.3   229  ASP229      0.1424
     36  CG         6.7710    5.7360   48.1350 C.2   229  ASP229      0.3668
     37  OD1        6.7690    5.2180   46.9940 O.co2 229  ASP229     -0.2456
     38  OD2        7.7740    6.3880   48.5860 O.co2 229  ASP229     -0.2456
     39  N          3.5980    7.9960   49.6800 N.am  230  LEU230     -0.1979
     40  CA         3.0750    9.2370   49.2090 C.3   230  LEU230      0.1596
     41  C          2.7830   10.2290   50.3530 C.2   230  LEU230      0.2287
     42  O          2.2600   11.3010   50.0650 O.2   230  LEU230     -0.2864
     43  CB         1.7860    8.9850   48.3930 C.3   230  LEU230      0.0297
     44  CG         2.0140    8.1460   47.1320 C.3   230  LEU230      0.0022
     45  CD1        0.6480    8.0560   46.4640 C.3   230  LEU230      0.0001
     46  CD2        3.0500    8.7840   46.2120 C.3   230  LEU230      0.0001
     47  N          3.8900   12.5680   52.1540 N.3   232  SER232     -0.1202
     48  CA         4.0720   14.0180   52.0550 C.3   232  SER232      0.2020
     49  C          2.8060   14.7710   51.6810 C.2   232  SER232      0.2618
     50  O          2.6380   15.9210   52.0890 O.2   232  SER232     -0.2717
     51  CB         5.1570   14.3770   51.0330 C.3   232  SER232      0.2103
     52  OG         4.5320   14.4030   49.7430 O.3   232  SER232     -0.2182
     53  N          1.9100   14.1380   50.9200 N.am  233  VAL233     -0.1979
     54  CA         0.6420   14.7650   50.6240 C.3   233  VAL233      0.1595
     55  C         -0.3730   14.7450   51.7580 C.2   233  VAL233      0.2287
     56  O         -1.5020   15.2420   51.5910 O.2   233  VAL233     -0.2864
     57  CB        -0.0350   14.2230   49.3280 C.3   233  VAL233      0.0276
     58  CG1        0.9450   14.1870   48.1780 C.3   233  VAL233      0.0022
     59  CG2       -0.6980   12.8590   49.5730 C.3   233  VAL233      0.0022
     60  N          7.0110   19.1360   47.8680 N.3   244  ALA244     -0.1245
     61  CA         6.8410   19.2320   46.3980 C.3   244  ALA244      0.1562
     62  C          8.0530   19.9420   45.7120 C.2   244  ALA244      0.2260
     63  O          8.5500   19.5070   44.6610 O.2   244  ALA244     -0.2867
     64  CB         5.5280   19.9050   46.0480 C.3   244  ALA244      0.0290
     65  N         10.7060   17.2470   45.3020 N.3   247  ILE247     -0.1231
     66  CA        10.3090   16.2770   44.2750 C.3   247  ILE247      0.1692
     67  C         10.6110   16.8510   42.8640 C.2   247  ILE247      0.2592
     68  O         11.2170   16.1910   41.9850 O.2   247  ILE247     -0.2718
     69  CB         8.7330   16.0120   44.4100 C.3   247  ILE247      0.0266
     70  CG1        8.3950   15.2450   45.7100 C.3   247  ILE247      0.0019
     71  CG2        8.1770   15.3600   43.2400 C.3   247  ILE247      0.0020
     72  CD1        6.9500   15.3670   46.2250 C.3   247  ILE247      0.0001
     73  N         10.1850   18.0910   42.6530 N.am  248  TYR248     -0.1976
     74  CA        10.2880   18.7000   41.3410 C.3   248  TYR248      0.1639
     75  C         11.7380   18.9830   40.9960 C.2   248  TYR248      0.2290
     76  O         12.0860   18.9180   39.8290 O.2   248  TYR248     -0.2864
     77  CB         9.4180   19.9380   41.2170 C.3   248  TYR248      0.0560
     78  CG         8.0800   19.5470   40.7300 C.ar  248  TYR248     -0.0198
     79  CD1        7.0520   19.2460   41.6290 C.ar  248  TYR248     -0.0009
     80  CD2        7.8240   19.4350   39.3680 C.ar  248  TYR248     -0.0009
     81  CE1        5.8140   18.8400   41.1790 C.ar  248  TYR248      0.0417
     82  CE2        6.5440   19.0540   38.9150 C.ar  248  TYR248      0.0417
     83  CZ         5.5690   18.7700   39.8180 C.ar  248  TYR248      0.1957
     84  OH         4.3300   18.3920   39.4000 O.3   248  TYR248     -0.2866
     85  N         12.7220   15.8820   39.4130 N.3   251  PHE251     -0.1241
     86  CA        12.1100   15.7590   38.1120 C.3   251  PHE251      0.1605
     87  C         12.8040   16.6360   37.0640 C.2   251  PHE251      0.2264
     88  O         13.0240   16.1840   35.9530 O.2   251  PHE251     -0.2867
     89  CB        10.6390   16.1500   38.1470 C.3   251  PHE251      0.0534
     90  CG         9.7300   15.1920   38.8870 C.ar  251  PHE251     -0.0203
     91  CD1       10.0560   13.8700   39.0830 C.ar  251  PHE251     -0.0042
     92  CD2        8.4810   15.6580   39.3330 C.ar  251  PHE251     -0.0042
     93  CE1        9.1770   13.0110   39.7710 C.ar  251  PHE251     -0.0003
     94  CE2        7.5690   14.8240   39.9900 C.ar  251  PHE251     -0.0003
     95  CZ         7.9200   13.4950   40.2200 C.ar  251  PHE251     -0.0000
     96  N          6.0490   17.4800   33.1510 N.3   268  MET268     -0.1245
     97  CA         6.2520   17.4210   34.5720 C.3   268  MET268      0.1570
     98  C          7.7420   17.5530   34.8570 C.2   268  MET268      0.2261
     99  O          8.1310   18.0830   35.8810 O.2   268  MET268     -0.2867
    100  CB         5.7650   16.0790   35.1430 C.3   268  MET268      0.0387
    101  CG         5.6160   16.0730   36.6290 C.3   268  MET268      0.0595
    102  SD         5.2030   14.4640   37.2940 S.3   268  MET268     -0.1393
    103  CE         6.7370   13.5250   36.9530 C.3   268  MET268      0.0692
    104  N         -0.7050   19.7800   37.2680 N.3   280  GLY280     -0.1210
    105  CA        -0.0950   18.4650   37.3790 C.3   280  GLY280      0.1956
    106  C         -0.3260   17.8530   38.7460 C.2   280  GLY280      0.2611
    107  O         -0.5420   16.6390   38.8530 O.2   280  GLY280     -0.2717
    108  N         -0.3060   18.7020   39.7760 N.am  281  GLN281     -0.1979
    109  CA        -0.6340   18.2590   41.1400 C.3   281  GLN281      0.1601
    110  C         -2.0790   17.8360   41.2300 C.2   281  GLN281      0.2287
    111  O         -2.3850   16.7700   41.7880 O.2   281  GLN281     -0.2864
    112  CB        -0.3400   19.3420   42.1520 C.3   281  GLN281      0.0394
    113  CG         1.1680   19.5350   42.3450 C.3   281  GLN281      0.0908
    114  CD         1.8230   18.3030   42.9210 C.2   281  GLN281      0.2608
    115  OE1        1.4900   17.8840   44.0240 O.2   281  GLN281     -0.2717
    116  NE2        2.7610   17.6960   42.1650 N.am  281  GLN281     -0.0878
    117  N         -2.3020   14.4600   39.7410 N.3   284  PHE284     -0.1241
    118  CA        -1.7160   13.4600   40.5980 C.3   284  PHE284      0.1605
    119  C         -2.6300   13.1200   41.7860 C.2   284  PHE284      0.2264
    120  O         -2.8130   11.9420   42.1050 O.2   284  PHE284     -0.2867
    121  CB        -0.3370   13.8770   41.1030 C.3   284  PHE284      0.0534
    122  CG         0.2960   12.8310   41.9600 C.ar  284  PHE284     -0.0203
    123  CD1        0.9030   11.6980   41.3690 C.ar  284  PHE284     -0.0042
    124  CD2        0.2350   12.9270   43.3670 C.ar  284  PHE284     -0.0042
    125  CE1        1.4440   10.6800   42.1660 C.ar  284  PHE284     -0.0003
    126  CE2        0.7940   11.9100   44.1720 C.ar  284  PHE284     -0.0003
    127  CZ         1.3960   10.7980   43.5730 C.ar  284  PHE284     -0.0000
@<TRIPOS>BOND
     1    96    97    1
     2    97    98    1
     3    97   100    1
     4    98    99    2
     5   100   101    1
     6    88    87    2
     7   101   102    1
     8   103   102    1
     9    87    86    1
    10   104   105    1
    11   105   106    1
    12    86    89    1
    13    86    85    1
    14    89    90    1
    15   106   107    2
    16   106   108   am
    17    90    91   ar
    18    90    92   ar
    19    82    80   ar
    20    82    83   ar
    21    91    93   ar
    22    92    94   ar
    23    80    78   ar
    24    84    83    1
    25   117   118    1
    26    93    95   ar
    27   108   109    1
    28    83    81   ar
    29    76    75    2
    30    94    95   ar
    31    26    25    2
    32    25    24    1
    33   118   121    1
    34   118   119    1
    35    78    77    1
    36    78    79   ar
    37    75    74    1
    38   121   122    1
    39   109   110    1
    40   109   112    1
    41    81    79   ar
    42    27    24    1
    43    27    28    1
    44    77    74    1
    45   110   111    2
    46    24    23    1
    47    74    73    1
    48   123   122   ar
    49   123   125   ar
    50   119   120    2
    51   122   124   ar
    52    68    67    2
    53    29    28    1
    54   112   113    1
    55   116   114   am
    56   125   127   ar
    57   113   114    1
    58    28    30    1
    59    73    67   am
    60    67    66    1
    61   114   115    2
    62    71    69    1
    63   124   126   ar
    64   127   126   ar
    65    21    19   ar
    66    21    22   ar
    67    19    18   ar
    68    66    69    1
    69    66    65    1
    70    69    70    1
    71    22    20   ar
    72    63    62    2
    73    18    20   ar
    74    18    17    1
    75    70    72    1
    76    62    61    1
    77    17    14    1
    78    64    61    1
    79    46    44    1
    80     5     6    1
    81     5     2    1
    82    61    60    1
    83     8     6   ar
    84     8    10   ar
    85    45    44    1
    86     1     2    1
    87     6     7   ar
    88    10    11   ar
    89    13    14    1
    90    13     3   am
    91    37    36   ar
    92    44    43    1
    93    14    15    1
    94     2     3    1
    95     3     4    2
    96    16    15    2
    97     7     9   ar
    98    11    12    1
    99    11     9   ar
   100    36    38   ar
   101    36    35    1
   102    58    57    1
   103    43    40    1
   104    35    32    1
   105    40    39    1
   106    40    41    1
   107    57    59    1
   108    57    54    1
   109    34    33    2
   110    39    33   am
   111    52    51    1
   112    33    32    1
   113    42    41    2
   114    32    31    1
   115    54    53    1
   116    54    55    1
   117    53    49   am
   118    51    48    1
   119    56    55    2
   120    49    48    1
   121    49    50    2
   122    48    47    1
