@<TRIPOS>MOLECULE
tmp/4lm3A00.pdb
 123 116 0 0 0
SMALL
GASTEIGER

@<TRIPOS>ATOM
      1  N         14.9980   14.6470   46.8920 N.3    79  TYR79      -0.1241
      2  CA        13.7950   14.0420   47.4880 C.3    79  TYR79       0.1605
      3  C         13.9360   12.5830   47.9470 C.2    79  TYR79       0.2264
      4  O         13.5650   12.2540   49.0880 O.2    79  TYR79      -0.2867
      5  CB        12.6160   14.1560   46.5350 C.3    79  TYR79       0.0534
      6  CG        11.3500   13.5100   47.0740 C.ar   79  TYR79      -0.0201
      7  CD1       10.6470   14.0920   48.1170 C.ar   79  TYR79      -0.0009
      8  CD2       10.9040   12.2980   46.5780 C.ar   79  TYR79      -0.0009
      9  CE1        9.4950   13.4950   48.6260 C.ar   79  TYR79       0.0417
     10  CE2        9.7500   11.6920   47.0950 C.ar   79  TYR79       0.0417
     11  CZ         9.0750   12.3090   48.1120 C.ar   79  TYR79       0.1957
     12  OH         7.9140   11.7230   48.5980 O.3    79  TYR79      -0.2866
     13  N          4.7390    2.6760   41.7520 N.3   190  LEU190     -0.1245
     14  CA         3.3730    3.2000   41.4930 C.3   190  LEU190      0.1561
     15  C          2.7090    2.5360   40.2910 C.2   190  LEU190      0.2260
     16  O          1.4870    2.4990   40.2240 O.2   190  LEU190     -0.2867
     17  CB         3.3550    4.7140   41.3290 C.3   190  LEU190      0.0270
     18  CG         3.4510    5.5080   42.6270 C.3   190  LEU190      0.0019
     19  CD1        3.6820    6.9780   42.3150 C.3   190  LEU190      0.0001
     20  CD2        2.1660    5.3030   43.4970 C.3   190  LEU190      0.0001
     21  N          3.5690    8.0030   49.8090 N.3   230  LEU230     -0.1245
     22  CA         3.0260    9.2830   49.3620 C.3   230  LEU230      0.1561
     23  C          2.6610   10.2480   50.5070 C.2   230  LEU230      0.2260
     24  O          2.0980   11.3100   50.2390 O.2   230  LEU230     -0.2867
     25  CB         1.8040    9.0730   48.4520 C.3   230  LEU230      0.0270
     26  CG         1.9610    8.2070   47.2090 C.3   230  LEU230      0.0019
     27  CD1        0.5950    8.1170   46.5100 C.3   230  LEU230      0.0001
     28  CD2        3.0220    8.8080   46.2970 C.3   230  LEU230      0.0001
     29  N          3.7520   12.5220   52.2790 N.3   232  SER232     -0.1202
     30  CA         3.9380   13.9690   52.2680 C.3   232  SER232      0.2020
     31  C          2.6780   14.7490   51.8840 C.2   232  SER232      0.2618
     32  O          2.5400   15.8950   52.3160 O.2   232  SER232     -0.2717
     33  CB         5.0690   14.3560   51.3570 C.3   232  SER232      0.2103
     34  OG         4.6120   14.3590   49.9940 O.3   232  SER232     -0.2182
     35  N          1.7670   14.1300   51.1100 N.am  233  VAL233     -0.1979
     36  CA         0.5150   14.7830   50.7490 C.3   233  VAL233      0.1595
     37  C         -0.4930   14.7680   51.8920 C.2   233  VAL233      0.2287
     38  O         -1.6210   15.2750   51.7160 O.2   233  VAL233     -0.2864
     39  CB        -0.1230   14.2290   49.4470 C.3   233  VAL233      0.0276
     40  CG1        0.9050   14.1820   48.3160 C.3   233  VAL233      0.0022
     41  CG2       -0.7770   12.8610   49.6710 C.3   233  VAL233      0.0022
     42  N          3.6720   19.9420   53.0140 N.3   240  THR240     -0.1218
     43  CA         3.3810   19.3530   51.7180 C.3   240  THR240      0.1862
     44  C          4.0010   20.1540   50.5540 C.2   240  THR240      0.2287
     45  O          4.5900   19.5900   49.6280 O.2   240  THR240     -0.2866
     46  CB         1.8280   19.2150   51.5760 C.3   240  THR240      0.1770
     47  OG1        1.3480   18.3340   52.6090 O.3   240  THR240     -0.2211
     48  CG2        1.4340   18.6650   50.2370 C.3   240  THR240      0.0375
     49  N          7.8440   19.9820   50.4610 N.3   243  THR243     -0.1203
     50  CA         8.2470   18.6720   49.9390 C.3   243  THR243      0.1994
     51  C          8.0430   18.5780   48.4160 C.2   243  THR243      0.2617
     52  O          8.8590   17.9940   47.7020 O.2   243  THR243     -0.2717
     53  CB         7.4890   17.5450   50.6520 C.3   243  THR243      0.1784
     54  OG1        7.7130   17.6580   52.0640 O.3   243  THR243     -0.2211
     55  CG2        7.9520   16.1930   50.1490 C.3   243  THR243      0.0376
     56  N          6.9460   19.1320   47.9080 N.am  244  ALA244     -0.1979
     57  CA         6.7350   19.1550   46.4640 C.3   244  ALA244      0.1597
     58  C          7.8810   19.8870   45.7410 C.2   244  ALA244      0.2287
     59  O          8.2920   19.4720   44.6530 O.2   244  ALA244     -0.2864
     60  CB         5.3560   19.7790   46.1020 C.3   244  ALA244      0.0319
     61  N         10.6630   17.2720   45.3850 N.3   247  ILE247     -0.1231
     62  CA        10.5120   16.2460   44.3590 C.3   247  ILE247      0.1692
     63  C         10.6320   16.8360   42.9500 C.2   247  ILE247      0.2592
     64  O         11.1810   16.1970   42.0710 O.2   247  ILE247     -0.2718
     65  CB         9.2920   15.3360   44.5210 C.3   247  ILE247      0.0266
     66  CG1        9.5200   14.0320   43.7310 C.3   247  ILE247      0.0019
     67  CG2        8.0410   16.0340   44.1110 C.3   247  ILE247      0.0020
     68  CD1        8.4380   12.9250   43.9880 C.3   247  ILE247      0.0001
     69  N         10.1190   18.0480   42.7430 N.am  248  TYR248     -0.1976
     70  CA        10.2330   18.6590   41.4160 C.3   248  TYR248      0.1639
     71  C         11.6850   18.9950   41.0730 C.2   248  TYR248      0.2290
     72  O         12.0330   18.9360   39.9060 O.2   248  TYR248     -0.2864
     73  CB         9.2720   19.8580   41.2330 C.3   248  TYR248      0.0560
     74  CG         7.8940   19.4080   40.8050 C.ar  248  TYR248     -0.0198
     75  CD1        6.9570   18.9940   41.7510 C.ar  248  TYR248     -0.0009
     76  CD2        7.5310   19.3460   39.4540 C.ar  248  TYR248     -0.0009
     77  CE1        5.6820   18.5370   41.3610 C.ar  248  TYR248      0.0417
     78  CE2        6.2450   18.9050   39.0640 C.ar  248  TYR248      0.0417
     79  CZ         5.3350   18.5190   40.0300 C.ar  248  TYR248      0.1957
     80  OH         4.0760   18.0630   39.6860 O.3   248  TYR248     -0.2866
     81  N         12.7080   15.9050   39.4620 N.3   251  PHE251     -0.1241
     82  CA        12.0780   15.7750   38.1890 C.3   251  PHE251      0.1605
     83  C         12.7480   16.6720   37.1380 C.2   251  PHE251      0.2264
     84  O         12.9530   16.2480   36.0130 O.2   251  PHE251     -0.2867
     85  CB        10.5950   16.1610   38.2660 C.3   251  PHE251      0.0534
     86  CG         9.7250   15.2160   39.0470 C.ar  251  PHE251     -0.0203
     87  CD1       10.0840   13.9000   39.2550 C.ar  251  PHE251     -0.0042
     88  CD2        8.4940   15.6690   39.5250 C.ar  251  PHE251     -0.0042
     89  CE1        9.2520   13.0390   39.9860 C.ar  251  PHE251     -0.0003
     90  CE2        7.6410   14.8200   40.2420 C.ar  251  PHE251     -0.0003
     91  CZ         8.0290   13.5010   40.4660 C.ar  251  PHE251     -0.0000
     92  N          5.9760   17.4630   33.2340 N.3   268  MET268     -0.1245
     93  CA         6.2250   17.3820   34.6610 C.3   268  MET268      0.1570
     94  C          7.7160   17.5230   34.9810 C.2   268  MET268      0.2261
     95  O          8.0830   18.0400   36.0280 O.2   268  MET268     -0.2867
     96  CB         5.6750   16.0640   35.2270 C.3   268  MET268      0.0387
     97  CG         5.7260   16.0110   36.7280 C.3   268  MET268      0.0595
     98  SD         5.2410   14.4120   37.3780 S.3   268  MET268     -0.1393
     99  CE         6.7980   13.5170   37.1930 C.3   268  MET268      0.0692
    100  N         -0.8870   19.7240   37.2890 N.3   280  GLY280     -0.1210
    101  CA        -0.2500   18.4100   37.4040 C.3   280  GLY280      0.1956
    102  C         -0.4860   17.7940   38.7760 C.2   280  GLY280      0.2611
    103  O         -0.7230   16.5750   38.9020 O.2   280  GLY280     -0.2717
    104  N         -0.4030   18.6290   39.8110 N.am  281  GLN281     -0.1979
    105  CA        -0.7010   18.1540   41.1690 C.3   281  GLN281      0.1601
    106  C         -2.1540   17.7750   41.3160 C.2   281  GLN281      0.2287
    107  O         -2.4780   16.7330   41.8970 O.2   281  GLN281     -0.2864
    108  CB        -0.2830   19.1960   42.2000 C.3   281  GLN281      0.0394
    109  CG         1.2350   19.2250   42.3780 C.3   281  GLN281      0.0908
    110  CD         1.7450   17.9240   42.9580 C.2   281  GLN281      0.2608
    111  OE1        1.4730   17.6130   44.1110 O.2   281  GLN281     -0.2717
    112  NE2        2.4770   17.1400   42.1540 N.am  281  GLN281     -0.0878
    113  N         -2.4550   14.3790   39.8530 N.3   284  PHE284     -0.1241
    114  CA        -1.8670   13.3830   40.7380 C.3   284  PHE284      0.1605
    115  C         -2.7630   13.0570   41.9380 C.2   284  PHE284      0.2264
    116  O         -2.9640   11.8670   42.2620 O.2   284  PHE284     -0.2867
    117  CB        -0.4710   13.8190   41.2200 C.3   284  PHE284      0.0534
    118  CG         0.1990   12.7920   42.0680 C.ar  284  PHE284     -0.0203
    119  CD1        0.7150   11.6270   41.4900 C.ar  284  PHE284     -0.0042
    120  CD2        0.2790   12.9620   43.4490 C.ar  284  PHE284     -0.0042
    121  CE1        1.3320   10.6410   42.2840 C.ar  284  PHE284     -0.0003
    122  CE2        0.9000   11.9710   44.2510 C.ar  284  PHE284     -0.0003
    123  CZ         1.4120   10.8290   43.6660 C.ar  284  PHE284     -0.0000
@<TRIPOS>BOND
     1    92    93    1
     2    93    94    1
     3    93    96    1
     4    94    95    2
     5    96    97    1
     6    84    83    2
     7    97    98    1
     8    83    82    1
     9    99    98    1
    10   100   101    1
    11   101   102    1
    12    82    85    1
    13    82    81    1
    14    85    86    1
    15   102   103    2
    16   102   104   am
    17    86    87   ar
    18    86    88   ar
    19    78    76   ar
    20    78    79   ar
    21    87    89   ar
    22    76    74   ar
    23    88    90   ar
    24    80    79    1
    25   104   105    1
    26   113   114    1
    27    72    71    2
    28    89    91   ar
    29    79    77   ar
    30    16    15    2
    31    90    91   ar
    32    15    14    1
    33   114   117    1
    34   114   115    1
    35    74    73    1
    36    74    75   ar
    37    71    70    1
    38   105   106    1
    39   105   108    1
    40   117   118    1
    41    73    70    1
    42   106   107    2
    43    17    14    1
    44    17    18    1
    45    77    75   ar
    46    70    69    1
    47   119   118   ar
    48   119   121   ar
    49    14    13    1
    50   115   116    2
    51   118   120   ar
    52    64    63    2
    53   112   110   am
    54   108   109    1
    55   121   123   ar
    56    19    18    1
    57   109   110    1
    58    18    20    1
    59    69    63   am
    60    63    62    1
    61   110   111    2
    62   120   122   ar
    63   123   122   ar
    64    66    68    1
    65    66    65    1
    66    67    65    1
    67    62    65    1
    68    62    61    1
    69    59    58    2
    70    58    57    1
    71    60    57    1
    72    28    26    1
    73    57    56    1
    74    27    26    1
    75     5     6    1
    76     5     2    1
    77     8     6   ar
    78     8    10   ar
    79     1     2    1
    80     6     7   ar
    81    10    11   ar
    82    26    25    1
    83     2     3    1
    84    52    51    2
    85    56    51   am
    86     3     4    2
    87    11    12    1
    88    11     9   ar
    89     7     9   ar
    90    40    39    1
    91    51    50    1
    92    25    22    1
    93    22    21    1
    94    22    23    1
    95    39    41    1
    96    39    36    1
    97    45    44    2
    98    50    49    1
    99    50    53    1
   100    34    33    1
   101    55    53    1
   102    48    46    1
   103    24    23    2
   104    44    43    1
   105    53    54    1
   106    36    35    1
   107    36    37    1
   108    35    31   am
   109    33    30    1
   110    46    43    1
   111    46    47    1
   112    38    37    2
   113    43    42    1
   114    31    30    1
   115    31    32    2
   116    30    29    1
