@<TRIPOS>MOLECULE
tmp/4lm4A00.pdb
 113 107 0 0 0
SMALL
GASTEIGER

@<TRIPOS>ATOM
      1  N         14.8050   14.6260   47.0160 N.3    79  TYR79      -0.1241
      2  CA        13.5730   14.0440   47.5870 C.3    79  TYR79       0.1605
      3  C         13.7230   12.6000   48.0490 C.2    79  TYR79       0.2264
      4  O         13.3740   12.2910   49.1870 O.2    79  TYR79      -0.2867
      5  CB        12.4110   14.1430   46.5990 C.3    79  TYR79       0.0534
      6  CG        11.1300   13.5280   47.1260 C.ar   79  TYR79      -0.0201
      7  CD1       10.4320   14.1240   48.1570 C.ar   79  TYR79      -0.0009
      8  CD2       10.6320   12.3390   46.6000 C.ar   79  TYR79      -0.0009
      9  CE1        9.2530   13.5530   48.6570 C.ar   79  TYR79       0.0417
     10  CE2        9.4280   11.7560   47.1060 C.ar   79  TYR79       0.0417
     11  CZ         8.7650   12.3890   48.1250 C.ar   79  TYR79       0.1957
     12  OH         7.5940   11.8410   48.6050 O.3    79  TYR79      -0.2866
     13  N          4.5880    2.6940   41.8900 N.3   190  LEU190     -0.1245
     14  CA         3.2580    3.2250   41.5910 C.3   190  LEU190      0.1561
     15  C          2.5820    2.5730   40.3750 C.2   190  LEU190      0.2260
     16  O          1.3610    2.5340   40.3050 O.2   190  LEU190     -0.2867
     17  CB         3.2510    4.7480   41.4530 C.3   190  LEU190      0.0270
     18  CG         3.3380    5.5370   42.7520 C.3   190  LEU190      0.0019
     19  CD1        3.4780    7.0130   42.4190 C.3   190  LEU190      0.0001
     20  CD2        2.0940    5.3070   43.6490 C.3   190  LEU190      0.0001
     21  N          4.1770    5.9280   51.4130 N.3   229  ASP229     -0.1225
     22  CA         5.1050    6.5510   50.4460 C.3   229  ASP229      0.1805
     23  C          4.6410    7.9390   50.0230 C.2   229  ASP229      0.2597
     24  O          5.4720    8.8590   49.8070 O.2   229  ASP229     -0.2718
     25  CB         5.1980    5.6390   49.2430 C.3   229  ASP229      0.1424
     26  CG         6.4450    5.8920   48.4080 C.2   229  ASP229      0.3668
     27  OD1        6.3820    5.4660   47.2320 O.co2 229  ASP229     -0.2456
     28  OD2        7.5230    6.4280   48.8960 O.co2 229  ASP229     -0.2456
     29  N          3.3140    8.0910   49.9160 N.am  230  LEU230     -0.1979
     30  CA         2.7250    9.3440   49.4390 C.3   230  LEU230      0.1596
     31  C          2.3690   10.3250   50.5500 C.2   230  LEU230      0.2287
     32  O          1.8280   11.3850   50.2730 O.2   230  LEU230     -0.2864
     33  CB         1.4830    9.0730   48.5740 C.3   230  LEU230      0.0297
     34  CG         1.6810    8.2110   47.3210 C.3   230  LEU230      0.0022
     35  CD1        0.3740    8.0950   46.5400 C.3   230  LEU230      0.0001
     36  CD2        2.8060    8.7730   46.4680 C.3   230  LEU230      0.0001
     37  N          3.4690   12.6900   52.2610 N.3   232  SER232     -0.1202
     38  CA         3.6430   14.1400   52.2140 C.3   232  SER232      0.2020
     39  C          2.3110   14.8410   51.9260 C.2   232  SER232      0.2618
     40  O          2.1070   15.9740   52.4000 O.2   232  SER232     -0.2717
     41  CB         4.7000   14.5240   51.1650 C.3   232  SER232      0.2103
     42  OG         4.1560   14.4820   49.8500 O.3   232  SER232     -0.2182
     43  N          1.4220   14.2070   51.1460 N.am  233  VAL233     -0.1979
     44  CA         0.1470   14.8250   50.8170 C.3   233  VAL233      0.1595
     45  C         -0.8450   14.8300   51.9650 C.2   233  VAL233      0.2287
     46  O         -1.9600   15.3470   51.8050 O.2   233  VAL233     -0.2864
     47  CB        -0.5110   14.2320   49.5410 C.3   233  VAL233      0.0276
     48  CG1        0.4860   14.2500   48.3750 C.3   233  VAL233      0.0022
     49  CG2       -1.0900   12.8280   49.8270 C.3   233  VAL233      0.0022
     50  N          6.6910   19.2680   48.0240 N.3   244  ALA244     -0.1245
     51  CA         6.5060   19.3050   46.5830 C.3   244  ALA244      0.1562
     52  C          7.6690   20.0020   45.8630 C.2   244  ALA244      0.2260
     53  O          8.0520   19.5750   44.7740 O.2   244  ALA244     -0.2867
     54  CB         5.1310   19.9490   46.2080 C.3   244  ALA244      0.0290
     55  N         10.3650   17.2850   45.4850 N.3   247  ILE247     -0.1231
     56  CA         9.9560   16.3050   44.4730 C.3   247  ILE247      0.1692
     57  C         10.2700   16.8950   43.0980 C.2   247  ILE247      0.2592
     58  O         10.8720   16.2440   42.2460 O.2   247  ILE247     -0.2718
     59  CB         8.4060   16.0250   44.6300 C.3   247  ILE247      0.0266
     60  CG1        8.1250   15.2680   45.9460 C.3   247  ILE247      0.0019
     61  CG2        7.7930   15.3550   43.4320 C.3   247  ILE247      0.0020
     62  CD1        6.6450   15.3160   46.4190 C.3   247  ILE247      0.0001
     63  N          9.8590   18.1430   42.8880 N.am  248  TYR248     -0.1976
     64  CA        10.0450   18.7390   41.5700 C.3   248  TYR248      0.1639
     65  C         11.5020   19.0450   41.2620 C.2   248  TYR248      0.2290
     66  O         11.8850   18.9690   40.1060 O.2   248  TYR248     -0.2864
     67  CB         9.1300   19.9550   41.3500 C.3   248  TYR248      0.0560
     68  CG         7.7500   19.5680   40.8770 C.ar  248  TYR248     -0.0198
     69  CD1        6.7390   19.2930   41.7900 C.ar  248  TYR248     -0.0009
     70  CD2        7.4680   19.4380   39.5130 C.ar  248  TYR248     -0.0009
     71  CE1        5.4660   18.9290   41.3500 C.ar  248  TYR248      0.0417
     72  CE2        6.2150   19.0680   39.0710 C.ar  248  TYR248      0.0417
     73  CZ         5.2120   18.8220   39.9900 C.ar  248  TYR248      0.1957
     74  OH         3.9540   18.4650   39.5630 O.3   248  TYR248     -0.2866
     75  N         12.5180   15.9320   39.6420 N.3   251  PHE251     -0.1241
     76  CA        11.8800   15.7840   38.3560 C.3   251  PHE251      0.1605
     77  C         12.6040   16.6680   37.3220 C.2   251  PHE251      0.2264
     78  O         12.9190   16.2010   36.2290 O.2   251  PHE251     -0.2867
     79  CB        10.4150   16.2080   38.4310 C.3   251  PHE251      0.0534
     80  CG         9.5100   15.2440   39.1640 C.ar  251  PHE251     -0.0203
     81  CD1        9.8620   13.9240   39.3430 C.ar  251  PHE251     -0.0042
     82  CD2        8.2570   15.6770   39.6190 C.ar  251  PHE251     -0.0042
     83  CE1        9.0050   13.0430   40.0270 C.ar  251  PHE251     -0.0003
     84  CE2        7.3880   14.8080   40.2750 C.ar  251  PHE251     -0.0003
     85  CZ         7.7630   13.4790   40.4700 C.ar  251  PHE251     -0.0000
     86  N          5.7820   17.5670   33.4010 N.3   268  MET268     -0.1245
     87  CA         6.1190   17.4730   34.8090 C.3   268  MET268      0.1570
     88  C          7.6260   17.5410   35.1120 C.2   268  MET268      0.2261
     89  O          8.0200   18.0010   36.1840 O.2   268  MET268     -0.2867
     90  CB         5.5150   16.1890   35.3920 C.3   268  MET268      0.0387
     91  CG         5.4870   16.1420   36.9050 C.3   268  MET268      0.0595
     92  SD         5.0240   14.5030   37.5350 S.3   268  MET268     -0.1393
     93  CE         6.5820   13.6500   37.2990 C.3   268  MET268      0.0692
     94  N         -0.4650   18.6720   39.9080 N.3   281  GLN281     -0.1245
     95  CA        -0.7790   18.2130   41.2610 C.3   281  GLN281      0.1566
     96  C         -2.2330   17.8180   41.3980 C.2   281  GLN281      0.2260
     97  O         -2.5180   16.7630   41.9820 O.2   281  GLN281     -0.2867
     98  CB        -0.3900   19.2660   42.2880 C.3   281  GLN281      0.0367
     99  CG         1.1180   19.3690   42.5030 C.3   281  GLN281      0.0905
    100  CD         1.7090   18.0610   43.0010 C.2   281  GLN281      0.2608
    101  OE1        1.4350   17.6340   44.1180 O.2   281  GLN281     -0.2717
    102  NE2        2.4990   17.4050   42.1580 N.am  281  GLN281     -0.0878
    103  N         -2.5370   14.3960   39.9610 N.3   284  PHE284     -0.1241
    104  CA        -1.9780   13.3740   40.8410 C.3   284  PHE284      0.1605
    105  C         -2.9120   13.0610   42.0170 C.2   284  PHE284      0.2264
    106  O         -3.1290   11.8840   42.3470 O.2   284  PHE284     -0.2867
    107  CB        -0.6050   13.7960   41.3610 C.3   284  PHE284      0.0534
    108  CG         0.0700   12.7310   42.1620 C.ar  284  PHE284     -0.0203
    109  CD1        0.7040   11.6640   41.5210 C.ar  284  PHE284     -0.0042
    110  CD2        0.0310   12.7710   43.5570 C.ar  284  PHE284     -0.0042
    111  CE1        1.3220   10.6580   42.2560 C.ar  284  PHE284     -0.0003
    112  CE2        0.6470   11.7530   44.3110 C.ar  284  PHE284     -0.0003
    113  CZ         1.2890   10.7120   43.6600 C.ar  284  PHE284     -0.0000
@<TRIPOS>BOND
     1    86    87    1
     2    87    88    1
     3    87    90    1
     4    88    89    2
     5    90    91    1
     6    78    77    2
     7    91    92    1
     8    93    92    1
     9    77    76    1
    10    76    79    1
    11    76    75    1
    12    79    80    1
    13    72    70   ar
    14    72    73   ar
    15    80    81   ar
    16    80    82   ar
    17    81    83   ar
    18    70    68   ar
    19    74    73    1
    20    82    84   ar
    21    94    95    1
    22   103   104    1
    23    73    71   ar
    24    83    85   ar
    25    66    65    2
    26    84    85   ar
    27    16    15    2
    28    15    14    1
    29   104   107    1
    30   104   105    1
    31    68    67    1
    32    68    69   ar
    33    95    96    1
    34    95    98    1
    35    65    64    1
    36    67    64    1
    37    71    69   ar
    38   107   108    1
    39    96    97    2
    40    17    14    1
    41    17    18    1
    42   109   108   ar
    43   109   111   ar
    44    64    63    1
    45    14    13    1
    46   105   106    2
    47   102   100   am
    48   108   110   ar
    49    58    57    2
    50   111   113   ar
    51    98    99    1
    52    19    18    1
    53    99   100    1
    54    18    20    1
    55    63    57   am
    56   100   101    2
    57    57    56    1
    58    61    59    1
    59   110   112   ar
    60   113   112   ar
    61    56    59    1
    62    56    55    1
    63    59    60    1
    64    53    52    2
    65    52    51    1
    66    60    62    1
    67    54    51    1
    68    36    34    1
    69    35    34    1
    70    51    50    1
    71     5     6    1
    72     5     2    1
    73     8    10   ar
    74     8     6   ar
    75     1     2    1
    76    10    11   ar
    77     6     7   ar
    78    27    26   ar
    79    34    33    1
    80     2     3    1
    81     3     4    2
    82    11    12    1
    83    11     9   ar
    84     7     9   ar
    85    48    47    1
    86    26    28   ar
    87    26    25    1
    88    33    30    1
    89    25    22    1
    90    30    29    1
    91    30    31    1
    92    47    49    1
    93    47    44    1
    94    24    23    2
    95    42    41    1
    96    29    23   am
    97    23    22    1
    98    32    31    2
    99    22    21    1
   100    44    43    1
   101    44    45    1
   102    43    39   am
   103    41    38    1
   104    46    45    2
   105    39    38    1
   106    39    40    2
   107    38    37    1
