@<TRIPOS>MOLECULE
tmp/4lm6C01.pdb
 136 131 0 0 0
SMALL
GASTEIGER

@<TRIPOS>ATOM
      1  N        -42.2320   11.4280    9.8540 N.3    12  GLU12      -0.1245
      2  CA       -43.3160   10.9270    9.0150 C.3    12  GLU12       0.1567
      3  C        -44.2450   10.0750    9.8640 C.2    12  GLU12       0.2260
      4  O        -43.7950    9.2260   10.6340 O.2    12  GLU12      -0.2867
      5  CB       -42.7880   10.1360    7.8250 C.3    12  GLU12       0.0388
      6  CG       -41.7850   10.9320    6.9910 C.3    12  GLU12       0.1160
      7  CD       -41.0260   10.0470    6.0330 C.2    12  GLU12       0.3649
      8  OE1      -41.7130    9.4510    5.1590 O.co2  12  GLU12      -0.2457
      9  OE2      -39.7720    9.9130    6.1820 O.co2  12  GLU12      -0.2457
     10  N        -47.7170    7.5140    9.8940 N.3    14  PHE14      -0.1241
     11  CA       -48.5080    6.6170    9.0590 C.3    14  PHE14       0.1605
     12  C        -49.7110    6.0550    9.8090 C.2    14  PHE14       0.2264
     13  O        -49.5670    5.5560   10.9100 O.2    14  PHE14      -0.2867
     14  CB       -47.6170    5.4780    8.5750 C.3    14  PHE14       0.0534
     15  CG       -46.4000    5.9560    7.8970 C.ar   14  PHE14      -0.0203
     16  CD1      -45.2580    6.2590    8.6200 C.ar   14  PHE14      -0.0042
     17  CD2      -46.4080    6.1750    6.5440 C.ar   14  PHE14      -0.0042
     18  CE1      -44.1260    6.7370    7.9870 C.ar   14  PHE14      -0.0003
     19  CE2      -45.2740    6.6390    5.9100 C.ar   14  PHE14      -0.0003
     20  CZ       -44.1370    6.9210    6.6390 C.ar   14  PHE14      -0.0000
     21  N        -52.5030    3.5410    8.5490 N.3    16  GLU16      -0.1245
     22  CA       -52.9610    2.7130    7.4560 C.3    16  GLU16       0.1567
     23  C        -53.9780    1.7270    8.0050 C.2    16  GLU16       0.2260
     24  O        -54.0230    0.5750    7.5910 O.2    16  GLU16      -0.2867
     25  CB       -51.7520    1.9900    6.8150 C.3    16  GLU16       0.0388
     26  CG       -50.7570    2.9860    6.2320 C.3    16  GLU16       0.1160
     27  CD       -49.5150    2.3800    5.6230 C.2    16  GLU16       0.3649
     28  OE1      -49.2150    1.1910    5.8880 O.co2  16  GLU16      -0.2457
     29  OE2      -48.8450    3.1310    4.8720 O.co2  16  GLU16      -0.2457
     30  N        -57.0160    1.5870    7.4960 N.3    18  ASP18      -0.1239
     31  CA       -57.9560    1.1890    6.4560 C.3    18  ASP18       0.1674
     32  C        -57.4440   -0.0040    5.6350 C.2    18  ASP18       0.2266
     33  O        -58.1120   -0.4600    4.7070 O.2    18  ASP18      -0.2867
     34  CB       -58.3180    2.3700    5.5570 C.3    18  ASP18       0.1410
     35  CG       -57.1980    2.7790    4.6340 C.2    18  ASP18       0.3668
     36  OD1      -56.0860    2.2270    4.7550 O.co2  18  ASP18      -0.2456
     37  OD2      -57.4500    3.6660    3.7830 O.co2  18  ASP18      -0.2456
     38  N        -54.8600   -0.2830    3.5860 N.3    20  CYS20      -0.1221
     39  CA       -54.0740   -0.0050    2.3900 C.3    20  CYS20       0.1808
     40  C        -52.5990    0.1830    2.7600 C.2    20  CYS20       0.2601
     41  O        -52.2110    1.1740    3.3890 O.2    20  CYS20      -0.2717
     42  CB       -54.6120    1.2330    1.6530 C.3    20  CYS20       0.0970
     43  SG       -54.0330    1.4270   -0.0570 S.3    20  CYS20      -0.0800
     44  N        -51.7780   -0.7690    2.3480 N.am   21  LYS21      -0.1965
     45  CA       -50.3650   -0.7700    2.7150 C.3    21  LYS21       0.1728
     46  C        -49.4910   -0.2750    1.5660 C.2    21  LYS21       0.2617
     47  O        -49.8840   -0.3250    0.3900 O.2    21  LYS21      -0.2715
     48  CB       -49.9340   -2.1790    3.1590 C.3    21  LYS21       0.0311
     49  CG       -50.7030   -2.6840    4.3720 C.3    21  LYS21       0.0038
     50  CD       -50.0180   -3.8550    5.0640 C.3    21  LYS21       0.0206
     51  CE       -50.7110   -4.1870    6.3980 C.3    21  LYS21       0.1093
     52  NZ       -50.1400   -5.4030    7.0600 N.3    21  LYS21      -0.1314
     53  N        -48.3000    0.2000    1.9110 N.am   22  GLY22      -0.1941
     54  CA       -47.3630    0.6600    0.9090 C.3    22  GLY22       0.1998
     55  C        -46.5900   -0.5110    0.3130 C.2    22  GLY22       0.2481
     56  O        -46.7240   -1.6710    0.7610 O.2    22  GLY22      -0.2729
     57  N        -45.7710   -0.2220   -0.7070 N.am   23  PRO23      -0.2715
     58  CA       -44.9800   -1.2530   -1.3960 C.3    23  PRO23       0.1536
     59  C        -43.9580   -1.9440   -0.4960 C.2    23  PRO23       0.2598
     60  O        -43.6520   -3.1190   -0.7000 O.2    23  PRO23      -0.2715
     61  CB       -44.2480   -0.4640   -2.4860 C.3    23  PRO23       0.0310
     62  CG       -44.9730    0.7870   -2.6430 C.3    23  PRO23       0.0237
     63  CD       -45.6140    1.1050   -1.3270 C.3    23  PRO23       0.0939
     64  N        -43.4040   -1.2280    0.4740 N.am   24  ALA24      -0.1964
     65  CA       -42.3790   -1.8240    1.3310 C.3    24  ALA24       0.1728
     66  C        -42.9590   -2.5800    2.5210 C.2    24  ALA24       0.2616
     67  O        -43.9190   -2.1480    3.1590 O.2    24  ALA24      -0.2715
     68  CB       -41.3900   -0.7700    1.8190 C.3    24  ALA24       0.0334
     69  N        -42.3200   -3.6980    2.8310 N.am   25  ALA25      -0.1963
     70  CA       -42.6800   -4.4860    3.9970 C.3    25  ALA25       0.1728
     71  C        -42.5540   -3.6260    5.2480 C.2    25  ALA25       0.2616
     72  O        -41.8520   -2.6160    5.2450 O.2    25  ALA25      -0.2715
     73  CB       -41.7610   -5.6900    4.1040 C.3    25  ALA25       0.0334
     74  N        -43.2330   -4.0350    6.3160 N.am   26  ASN26      -0.1958
     75  CA       -43.1040   -3.3740    7.6090 C.3    26  ASN26       0.1819
     76  C        -41.6560   -3.3220    8.0930 C.2    26  ASN26       0.2621
     77  O        -40.8990   -4.3040    7.9710 O.2    26  ASN26      -0.2715
     78  CB       -43.9440   -4.1080    8.6540 C.3    26  ASN26       0.1195
     79  CG       -45.4190   -3.7770    8.5710 C.2    26  ASN26       0.2630
     80  OD1      -45.8690   -3.0550    7.6830 O.2    26  ASN26      -0.2716
     81  ND2      -46.1840   -4.3100    9.5100 N.am   26  ASN26      -0.0877
     82  N        -41.2830   -2.1870    8.6730 N.am   27  LYS27      -0.1963
     83  CA       -39.9530   -2.0040    9.2320 C.3    27  LYS27       0.1728
     84  C        -39.9740   -2.0800   10.7680 C.2    27  LYS27       0.2616
     85  O        -38.9320   -2.1950   11.4080 O.2    27  LYS27      -0.2715
     86  CB       -39.3690   -0.6950    8.6950 C.3    27  LYS27       0.0311
     87  CG       -39.2550   -0.7560    7.1680 C.3    27  LYS27       0.0038
     88  CD       -38.6390    0.4730    6.5500 C.3    27  LYS27       0.0206
     89  CE       -38.6340    0.3610    5.0340 C.3    27  LYS27       0.1093
     90  NZ       -37.9620   -0.8580    4.5610 N.3    27  LYS27      -0.1314
     91  N        -41.1750   -2.0470   11.3420 N.am   28  ALA28      -0.1963
     92  CA       -41.3830   -2.3680   12.7500 C.3    28  ALA28       0.1728
     93  C        -42.6390   -3.2270   12.8150 C.2    28  ALA28       0.2617
     94  O        -43.3620   -3.3280   11.8300 O.2    28  ALA28      -0.2715
     95  CB       -41.5660   -1.1080   13.5620 C.3    28  ALA28       0.0334
     96  N        -42.9170   -3.8570   13.9490 N.am   29  SER29      -0.1936
     97  CA       -44.1700   -4.6020   14.0410 C.3    29  SER29       0.2055
     98  C        -45.2650   -3.7460   14.6190 C.2    29  SER29       0.2643
     99  O        -45.0060   -2.9440   15.5140 O.2    29  SER29      -0.2714
    100  CB       -44.0410   -5.8410   14.9010 C.3    29  SER29       0.2130
    101  OG       -45.2940   -6.4980   14.9020 O.3    29  SER29      -0.2179
    102  N        -46.4840   -3.9110   14.1000 N.am   30  ASP30      -0.1971
    103  CA       -47.6420   -3.1760   14.6210 C.3    30  ASP30       0.1709
    104  C        -48.5510   -4.0760   15.4500 C.2    30  ASP30       0.2293
    105  O        -49.7360   -3.7910   15.6310 O.2    30  ASP30      -0.2864
    106  CB       -48.4400   -2.4750   13.5070 C.3    30  ASP30       0.1436
    107  CG       -48.9090   -3.4220   12.4090 C.2    30  ASP30       0.3671
    108  OD1      -48.5210   -4.6200   12.4080 O.co2  30  ASP30      -0.2456
    109  OD2      -49.6490   -2.9410   11.5190 O.co2  30  ASP30      -0.2456
    110  N        -51.5070   -0.8550   11.9700 N.3    35  GLY35      -0.1210
    111  CA       -51.6480    0.2360   11.0260 C.3    35  GLY35       0.1956
    112  C        -50.9500    1.5330   11.3930 C.2    35  GLY35       0.2612
    113  O        -50.8860    2.4330   10.5510 O.2    35  GLY35      -0.2717
    114  N        -50.4410    1.6520   12.6180 N.am   36  LEU36      -0.1965
    115  CA       -49.8670    2.9280   13.0730 C.3    36  LEU36       0.1728
    116  C        -48.3430    2.8640   13.1290 C.2    36  LEU36       0.2616
    117  O        -47.7760    1.8730   13.5840 O.2    36  LEU36      -0.2715
    118  CB       -50.4330    3.3240   14.4470 C.3    36  LEU36       0.0311
    119  CG       -51.9480    3.4880   14.5470 C.3    36  LEU36       0.0022
    120  CD1      -52.3570    3.8310   15.9660 C.3    36  LEU36       0.0001
    121  CD2      -52.4590    4.5700   13.5790 C.3    36  LEU36       0.0001
    122  N        -47.6800    3.9130   12.6500 N.am   37  CYS37      -0.1968
    123  CA       -46.2270    3.9800   12.7020 C.3    37  CYS37       0.1712
    124  C        -45.7130    5.4090   12.7430 C.2    37  CYS37       0.2296
    125  O        -46.2210    6.2710   12.0300 O.2    37  CYS37      -0.2864
    126  CB       -45.6050    3.2650   11.4960 C.3    37  CYS37       0.0983
    127  SG       -43.7800    3.0960   11.6100 S.3    37  CYS37      -0.0798
    128  N        -42.1770    7.4960   12.1670 N.3    39  LYS39      -0.1245
    129  CA       -40.8410    7.3970   11.6070 C.3    39  LYS39       0.1561
    130  C        -40.0910    8.7110   11.8200 C.2    39  LYS39       0.2260
    131  O        -40.6460    9.7840   11.5800 O.2    39  LYS39      -0.2867
    132  CB       -40.9310    7.0990   10.1120 C.3    39  LYS39       0.0271
    133  CG       -39.5840    7.0250    9.4060 C.3    39  LYS39       0.0035
    134  CD       -39.7550    6.9670    7.9050 C.3    39  LYS39       0.0206
    135  CE       -38.4230    7.0110    7.1730 C.3    39  LYS39       0.1093
    136  NZ       -38.6680    7.1410    5.7230 N.3    39  LYS39      -0.1314
@<TRIPOS>BOND
     1    62    61    1
     2    62    63    1
     3    61    58    1
     4    58    57    1
     5    58    59    1
     6    63    57    1
     7    57    55   am
     8    60    59    2
     9    59    64   am
    10    43    42    1
    11    55    56    2
    12    55    54    1
    13    47    46    2
    14    64    65    1
    15    54    53    1
    16    65    68    1
    17    65    66    1
    18    46    53   am
    19    46    45    1
    20    42    39    1
    21    44    45    1
    22    44    40   am
    23    39    40    1
    24    39    38    1
    25    66    69   am
    26    66    67    2
    27    45    48    1
    28    40    41    2
    29    69    70    1
    30    48    49    1
    31    37    35   ar
    32    70    73    1
    33    70    71    1
    34    49    50    1
    35    90    89    1
    36    35    36   ar
    37    35    34    1
    38    33    32    2
    39    29    27   ar
    40    89    88    1
    41    50    51    1
    42     8     7   ar
    43    72    71    2
    44    71    74   am
    45    34    31    1
    46    27    28   ar
    47    27    26    1
    48    32    31    1
    49   136   135    1
    50    19    17   ar
    51    19    20   ar
    52     7     9   ar
    53     7     6    1
    54    26    25    1
    55    74    75    1
    56    51    52    1
    57    31    30    1
    58    17    15   ar
    59    88    87    1
    60    20    18   ar
    61    25    22    1
    62     6     5    1
    63    87    86    1
    64   135   134    1
    65    22    23    1
    66    22    21    1
    67    24    23    2
    68    75    76    1
    69    75    78    1
    70    80    79    2
    71     5     2    1
    72    15    14    1
    73    15    16   ar
    74   134   133    1
    75    77    76    2
    76    18    16   ar
    77    76    82   am
    78    79    78    1
    79    79    81   am
    80    14    11    1
    81    82    83    1
    82    86    83    1
    83     2     1    1
    84     2     3    1
    85    11    12    1
    86    11    10    1
    87    83    84    1
    88   133   132    1
    89    12    13    2
    90     3     4    2
    91   132   129    1
    92   113   112    2
    93    84    91   am
    94    84    85    2
    95   111   112    1
    96   111   110    1
    97    91    92    1
    98   112   114   am
    99   126   127    1
   100   126   123    1
   101   109   107   ar
   102   131   130    2
   103   129   130    1
   104   129   128    1
   105    94    93    2
   106   125   124    2
   107   108   107   ar
   108   107   106    1
   109   114   115    1
   110   122   123    1
   111   122   116   am
   112   123   124    1
   113    92    93    1
   114    92    95    1
   115    93    96   am
   116   115   116    1
   117   115   118    1
   118   116   117    2
   119   106   103    1
   120   121   119    1
   121    96    97    1
   122    97    98    1
   123    97   100    1
   124   102    98   am
   125   102   103    1
   126   118   119    1
   127   119   120    1
   128    98    99    2
   129   103   104    1
   130   100   101    1
   131   104   105    2
