@<TRIPOS>MOLECULE
tmp/4lm6B01.pdb
 145 137 0 0 0
SMALL
GASTEIGER

@<TRIPOS>ATOM
      1  N        -29.6520   22.5740  -26.0570 N.3    24  LEU24      -0.1245
      2  CA       -30.8220   23.3550  -25.6750 C.3    24  LEU24       0.1561
      3  C        -31.0960   24.4130  -26.7440 C.2    24  LEU24       0.2260
      4  O        -32.2520   24.6740  -27.0730 O.2    24  LEU24      -0.2867
      5  CB       -30.6220   23.9840  -24.3000 C.3    24  LEU24       0.0270
      6  CG       -31.7420   24.8630  -23.7750 C.3    24  LEU24       0.0019
      7  CD1      -33.0590   24.0800  -23.6960 C.3    24  LEU24       0.0001
      8  CD2      -31.3450   25.4210  -22.4150 C.3    24  LEU24       0.0001
      9  N        -34.6810   24.6920  -28.7080 N.3    28  LYS28      -0.1245
     10  CA       -35.4930   25.9070  -28.6690 C.3    28  LYS28       0.1561
     11  C        -35.7040   26.5580  -30.0330 C.2    28  LYS28       0.2260
     12  O        -36.5740   27.4260  -30.1840 O.2    28  LYS28      -0.2867
     13  CB       -34.8990   26.9170  -27.6810 C.3    28  LYS28       0.0271
     14  CG       -34.9690   26.4340  -26.2510 C.3    28  LYS28       0.0035
     15  CD       -34.8130   27.5510  -25.2530 C.3    28  LYS28       0.0206
     16  CE       -33.4210   28.1020  -25.2590 C.3    28  LYS28       0.1093
     17  NZ       -33.2020   28.9610  -24.0700 N.3    28  LYS28      -0.1314
     18  N        -41.8380   28.9850  -30.6230 N.3    33  ASP33      -0.1239
     19  CA       -41.8190   29.8530  -29.4400 C.3    33  ASP33       0.1674
     20  C        -40.9480   29.2530  -28.3310 C.2    33  ASP33       0.2266
     21  O        -41.4020   29.0770  -27.2090 O.2    33  ASP33      -0.2867
     22  CB       -43.2340   30.0850  -28.9040 C.3    33  ASP33       0.1410
     23  CG       -44.0970   30.9180  -29.8360 C.2    33  ASP33       0.3668
     24  OD1      -43.5290   31.6220  -30.6910 O.co2  33  ASP33      -0.2456
     25  OD2      -45.3460   30.8710  -29.7000 O.co2  33  ASP33      -0.2456
     26  N        -38.3500   29.7960  -26.0610 N.3    35  ASN35      -0.1225
     27  CA       -38.2230   30.2760  -24.6890 C.3    35  ASN35       0.1785
     28  C        -39.5750   30.4440  -23.9980 C.2    35  ASN35       0.2597
     29  O        -39.7170   30.1100  -22.8350 O.2    35  ASN35      -0.2718
     30  CB       -37.4570   31.5950  -24.6370 C.3    35  ASN35       0.1169
     31  CG       -35.9680   31.4090  -24.7470 C.2    35  ASN35       0.2627
     32  OD1      -35.3720   30.5590  -24.0700 O.2    35  ASN35      -0.2716
     33  ND2      -35.3480   32.2020  -25.6190 N.am   35  ASN35      -0.0877
     34  N        -40.5720   30.9580  -24.7120 N.am   36  LYS36      -0.1980
     35  CA       -41.9070   31.0710  -24.1320 C.3    36  LYS36       0.1596
     36  C        -42.4410   29.6880  -23.7770 C.2    36  LYS36       0.2287
     37  O        -43.1060   29.5130  -22.7440 O.2    36  LYS36      -0.2864
     38  CB       -42.8580   31.8030  -25.0890 C.3    36  LYS36       0.0298
     39  CG       -42.4630   33.2600  -25.2800 C.3    36  LYS36       0.0038
     40  CD       -43.5200   34.0820  -25.9790 C.3    36  LYS36       0.0206
     41  CE       -43.8660   33.5140  -27.3270 C.3    36  LYS36       0.1093
     42  NZ       -44.8280   34.4100  -28.0200 N.3    36  LYS36      -0.1314
     43  N        -40.7550   27.0320  -22.8290 N.3    38  MET38      -0.1230
     44  CA       -40.1510   26.5960  -21.5710 C.3    38  MET38       0.1702
     45  C        -40.8810   27.2210  -20.3820 C.2    38  MET38       0.2592
     46  O        -41.1070   26.5530  -19.3660 O.2    38  MET38      -0.2718
     47  CB       -38.6690   26.9700  -21.5100 C.3    38  MET38       0.0401
     48  CG       -37.7860   26.3250  -22.5860 C.3    38  MET38       0.0596
     49  SD       -37.9630   24.5420  -22.7310 S.3    38  MET38      -0.1393
     50  CE       -39.0760   24.4210  -24.1310 C.3    38  MET38       0.0692
     51  N        -41.2540   28.4930  -20.5040 N.am   39  ASP39      -0.1960
     52  CA       -41.9820   29.1530  -19.4210 C.3    39  ASP39       0.1840
     53  C        -43.3770   28.5600  -19.2830 C.2    39  ASP39       0.2621
     54  O        -43.8930   28.3960  -18.1730 O.2    39  ASP39      -0.2715
     55  CB       -42.0510   30.6610  -19.6580 C.3    39  ASP39       0.1450
     56  CG       -40.7520   31.3620  -19.3150 C.2    39  ASP39       0.3671
     57  OD1      -40.0720   30.9500  -18.3220 O.co2  39  ASP39      -0.2456
     58  OD2      -40.4000   32.3410  -20.0140 O.co2  39  ASP39      -0.2456
     59  N        -43.9960   28.2360  -20.4120 N.am   40  ALA40      -0.1977
     60  CA       -45.3450   27.6740  -20.3740 C.3    40  ALA40       0.1597
     61  C        -45.3080   26.3130  -19.6950 C.2    40  ALA40       0.2287
     62  O        -46.1780   25.9720  -18.8790 O.2    40  ALA40      -0.2864
     63  CB       -45.9120   27.5760  -21.7800 C.3    40  ALA40       0.0319
     64  N        -43.0660   25.4950  -17.4440 N.3    42  ASN42      -0.1225
     65  CA       -42.8410   25.7850  -16.0270 C.3    42  ASN42       0.1785
     66  C        -44.1200   26.2060  -15.3100 C.2    42  ASN42       0.2597
     67  O        -44.3150   25.9300  -14.1360 O.2    42  ASN42      -0.2718
     68  CB       -41.7830   26.8570  -15.8500 C.3    42  ASN42       0.1169
     69  CG       -41.2230   26.8760  -14.4390 C.2    42  ASN42       0.2627
     70  OD1      -41.0890   25.8240  -13.7760 O.2    42  ASN42      -0.2716
     71  ND2      -40.9320   28.0770  -13.9500 N.am   42  ASN42      -0.0877
     72  N        -45.0220   26.8410  -16.0440 N.am   43  ALA43      -0.1979
     73  CA       -46.2840   27.2650  -15.4640 C.3    43  ALA43       0.1597
     74  C        -47.0880   26.0480  -15.0080 C.2    43  ALA43       0.2287
     75  O        -47.9020   26.1470  -14.0840 O.2    43  ALA43      -0.2864
     76  CB       -47.0750   28.0800  -16.4560 C.3    43  ALA43       0.0319
     77  N        -50.5650   29.4130  -17.4500 N.3   142  ILE142     -0.1231
     78  CA       -49.7760   29.7800  -18.6270 C.3   142  ILE142      0.1692
     79  C        -49.8950   31.2770  -18.9270 C.2   142  ILE142      0.2592
     80  O        -48.8950   31.9270  -19.1970 O.2   142  ILE142     -0.2718
     81  CB       -50.1420   28.9390  -19.8490 C.3   142  ILE142      0.0266
     82  CG1      -49.6350   27.5100  -19.6440 C.3   142  ILE142      0.0019
     83  CG2      -49.5950   29.5700  -21.1590 C.3   142  ILE142      0.0020
     84  CD1      -50.0520   26.5200  -20.7170 C.3   142  ILE142      0.0001
     85  N        -51.1110   31.8040  -18.8480 N.am  143  ASN143     -0.1960
     86  CA       -51.3770   33.2060  -19.1290 C.3   143  ASN143      0.1819
     87  C        -51.0630   34.1200  -17.9660 C.2   143  ASN143      0.2621
     88  O        -51.1480   35.3580  -18.1040 O.2   143  ASN143     -0.2715
     89  CB       -52.8270   33.3670  -19.5520 C.3   143  ASN143      0.1195
     90  CG       -53.0740   32.8210  -20.9020 C.2   143  ASN143      0.2630
     91  OD1      -52.2560   32.9820  -21.8080 O.2   143  ASN143     -0.2716
     92  ND2      -54.1940   32.1580  -21.0600 N.am  143  ASN143     -0.0877
     93  N        -50.6800   33.5020  -16.8460 N.am  144  ASN144     -0.1972
     94  CA       -50.3190   34.1770  -15.6030 C.3   144  ASN144      0.1688
     95  C        -51.4600   35.0380  -15.0330 C.2   144  ASN144      0.2292
     96  O        -51.2170   36.0620  -14.3860 O.2   144  ASN144     -0.2864
     97  CB       -49.0570   35.0370  -15.8020 C.3   144  ASN144      0.1181
     98  CG       -48.3090   35.2790  -14.5020 C.2   144  ASN144      0.2629
     99  OD1      -48.1290   34.3610  -13.6950 O.2   144  ASN144     -0.2716
    100  ND2      -47.8400   36.5230  -14.3100 N.am  144  ASN144     -0.0877
    101  N        -46.0370   33.5650  -11.8120 N.3   151  LEU151     -0.1245
    102  CA       -44.7010   33.2530  -12.2810 C.3   151  LEU151      0.1561
    103  C        -44.1340   34.4950  -12.9830 C.2   151  LEU151      0.2260
    104  O        -44.8110   35.1050  -13.8170 O.2   151  LEU151     -0.2867
    105  CB       -44.7960   32.0990  -13.2850 C.3   151  LEU151      0.0270
    106  CG       -43.4940   31.4870  -13.7770 C.3   151  LEU151      0.0019
    107  CD1      -42.8500   30.6770  -12.6490 C.3   151  LEU151      0.0001
    108  CD2      -43.7500   30.6080  -15.0050 C.3   151  LEU151      0.0001
    109  N        -42.1480   36.3760  -15.6080 N.3   153  THR153     -0.1204
    110  CA       -41.6230   36.1990  -16.9570 C.3   153  THR153      0.1979
    111  C        -41.5750   37.5640  -17.6300 C.2   153  THR153      0.2460
    112  O        -42.2430   38.4920  -17.1830 O.2   153  THR153     -0.2732
    113  CB       -42.5010   35.2600  -17.8390 C.3   153  THR153      0.1783
    114  OG1      -43.8630   35.7190  -17.8190 O.3   153  THR153     -0.2211
    115  CG2      -42.4380   33.7920  -17.3590 C.3   153  THR153      0.0376
    116  N        -40.7830   37.6820  -18.7010 N.am  154  PRO154     -0.2717
    117  CA       -40.7690   38.9400  -19.4580 C.3   154  PRO154      0.1535
    118  C        -42.1420   39.1690  -20.0720 C.2   154  PRO154      0.2598
    119  O        -42.7540   38.2130  -20.5260 O.2   154  PRO154     -0.2715
    120  CB       -39.7240   38.6890  -20.5450 C.3   154  PRO154      0.0310
    121  CG       -38.8950   37.5680  -20.0310 C.3   154  PRO154      0.0237
    122  CD       -39.8390   36.7000  -19.2520 C.3   154  PRO154      0.0939
    123  N        -42.6170   40.4080  -20.0740 N.am  155  ALA155     -0.1964
    124  CA       -43.9060   40.7500  -20.6720 C.3   155  ALA155      0.1728
    125  C        -44.0680   40.2490  -22.1100 C.2   155  ALA155      0.2617
    126  O        -43.2180   40.4760  -22.9670 O.2   155  ALA155     -0.2715
    127  CB       -44.0880   42.2510  -20.6480 C.3   155  ALA155      0.0334
    128  N        -45.1820   39.5820  -22.3810 N.am  156  GLY156     -0.1940
    129  CA       -45.5120   39.2350  -23.7490 C.3   156  GLY156      0.2014
    130  C        -46.7360   38.3540  -23.8560 C.2   156  GLY156      0.2639
    131  O        -47.5470   38.2760  -22.9240 O.2   156  GLY156     -0.2714
    132  N        -46.8560   37.6740  -24.9890 N.am  157  ASP157     -0.1957
    133  CA       -48.0490   36.9000  -25.2900 C.3   157  ASP157      0.1840
    134  C        -47.7660   35.4300  -25.5020 C.2   157  ASP157      0.2622
    135  O        -46.9560   35.0610  -26.3470 O.2   157  ASP157     -0.2715
    136  CB       -48.7450   37.4310  -26.5340 C.3   157  ASP157      0.1450
    137  CG       -49.9980   36.6560  -26.8390 C.2   157  ASP157      0.3671
    138  OD1      -50.0060   35.8780  -27.8110 O.co2 157  ASP157     -0.2456
    139  OD2      -50.9550   36.7800  -26.0510 O.co2 157  ASP157     -0.2456
    140  N        -48.4620   34.5880  -24.7350 N.am  158  CYS158     -0.1968
    141  CA       -48.3320   33.1460  -24.8870 C.3   158  CYS158      0.1712
    142  C        -49.6510   32.4960  -25.3200 C.2   158  CYS158      0.2296
    143  O        -49.8960   31.3390  -25.0210 O.2   158  CYS158     -0.2864
    144  CB       -47.8220   32.5350  -23.5740 C.3   158  CYS158      0.0983
    145  SG       -46.2690   33.3170  -22.9830 S.3   158  CYS158     -0.0798
@<TRIPOS>BOND
     1    24    23   ar
     2    18    19    1
     3    12    11    2
     4    11    10    1
     5    23    25   ar
     6    23    22    1
     7    19    22    1
     8    19    20    1
     9     9    10    1
    10    10    13    1
    11    20    21    2
    12    42    41    1
    13   138   137   ar
    14    13    14    1
    15    41    40    1
    16     4     3    2
    17   137   136    1
    18   137   139   ar
    19     3     2    1
    20   136   133    1
    21   135   134    2
    22    14    15    1
    23    26    27    1
    24     1     2    1
    25    40    39    1
    26     2     5    1
    27    33    31   am
    28   134   133    1
    29   134   140   am
    30   142   143    2
    31   142   141    1
    32   133   132    1
    33    39    38    1
    34    16    15    1
    35    16    17    1
    36    38    35    1
    37   132   130   am
    38   141   140    1
    39   141   144    1
    40    31    30    1
    41    31    32    2
    42    34    35    1
    43    34    28   am
    44    27    30    1
    45    27    28    1
    46     5     6    1
    47    35    36    1
    48    50    49    1
    49    28    29    2
    50   130   129    1
    51   130   131    2
    52    36    37    2
    53     6     7    1
    54     6     8    1
    55   129   128    1
    56   144   145    1
    57   126   125    2
    58    43    44    1
    59    49    48    1
    60    48    47    1
    61   128   125   am
    62   125   124    1
    63    91    90    2
    64    63    60    1
    65    44    47    1
    66    44    45    1
    67    83    81    1
    68    92    90   am
    69    90    89    1
    70    84    82    1
    71   124   127    1
    72   124   123    1
    73   120   121    1
    74   120   117    1
    75   119   118    2
    76    51    45   am
    77    51    52    1
    78    59    60    1
    79    59    53   am
    80    45    46    2
    81    60    61    1
    82   123   118   am
    83   118   117    1
    84   121   122    1
    85    58    56   ar
    86    81    82    1
    87    81    78    1
    88    61    62    2
    89    55    52    1
    90    55    56    1
    91    89    86    1
    92   117   116    1
    93    52    53    1
    94    56    57   ar
    95    53    54    2
    96   122   116    1
    97    80    79    2
    98    86    85    1
    99    86    87    1
   100    79    85   am
   101    79    78    1
   102   116   111   am
   103    78    77    1
   104    88    87    2
   105    87    93   am
   106   113   114    1
   107   113   115    1
   108   113   110    1
   109   111   112    2
   110   111   110    1
   111    64    65    1
   112   110   109    1
   113    93    94    1
   114    76    73    1
   115    72    73    1
   116    72    66   am
   117    65    68    1
   118    65    66    1
   119    68    69    1
   120    97    94    1
   121    97    98    1
   122    94    95    1
   123    73    74    1
   124    66    67    2
   125    95    96    2
   126    74    75    2
   127   108   106    1
   128    98   100   am
   129    98    99    2
   130    69    71   am
   131    69    70    2
   132   104   103    2
   133   106   105    1
   134   106   107    1
   135   105   102    1
   136   103   102    1
   137   102   101    1
