@<TRIPOS>MOLECULE
tmp/4lm6B02.pdb
 200 187 0 0 0
SMALL
GASTEIGER

@<TRIPOS>ATOM
      1  N        -59.1510   17.5920   -8.6260 N.3    56  VAL56      -0.1245
      2  CA       -59.8380   16.4620   -8.0110 C.3    56  VAL56       0.1561
      3  C        -60.7760   16.9970   -6.9230 C.2    56  VAL56       0.2260
      4  O        -61.9170   16.5310   -6.7920 O.2    56  VAL56      -0.2867
      5  CB       -58.8280   15.4460   -7.4870 C.3    56  VAL56       0.0252
      6  CG1      -59.5180   14.3440   -6.7060 C.3    56  VAL56       0.0019
      7  CG2      -58.0590   14.8290   -8.6690 C.3    56  VAL56       0.0019
      8  N        -63.8530   18.3380   -8.6550 N.3    59  MET59      -0.1245
      9  CA       -64.6570   17.2190   -9.1010 C.3    59  MET59       0.1570
     10  C        -65.5570   16.7480   -7.9500 C.2    59  MET59       0.2261
     11  O        -66.7780   16.5590   -8.1220 O.2    59  MET59      -0.2867
     12  CB       -63.7430   16.0940   -9.5710 C.3    59  MET59       0.0387
     13  CG       -64.4910   14.8350   -9.9510 C.3    59  MET59       0.0595
     14  SD       -63.3570   13.4530  -10.1880 S.3    59  MET59      -0.1393
     15  CE       -63.0140   13.1080   -8.4890 C.3    59  MET59       0.0692
     16  N        -69.2890   11.3760   -4.9110 N.3    66  LEU66      -0.1245
     17  CA       -68.0590   10.6960   -5.3600 C.3    66  LEU66       0.1561
     18  C        -67.2230   10.1510   -4.1920 C.2    66  LEU66       0.2260
     19  O        -66.4400    9.2000   -4.3950 O.2    66  LEU66      -0.2867
     20  CB       -67.2100   11.6370   -6.2250 C.3    66  LEU66       0.0270
     21  CG       -67.6820   11.8060   -7.6730 C.3    66  LEU66       0.0019
     22  CD1      -67.1000   13.0230   -8.3200 C.3    66  LEU66       0.0001
     23  CD2      -67.3530   10.5580   -8.4900 C.3    66  LEU66       0.0001
     24  N        -66.7380    7.0050   -6.9270 N.3    72  GLY72      -0.1210
     25  CA       -65.4870    6.7520   -7.6160 C.3    72  GLY72       0.1956
     26  C        -64.2430    6.9370   -6.7800 C.2    72  GLY72       0.2611
     27  O        -63.2300    6.3360   -7.1140 O.2    72  GLY72      -0.2717
     28  N        -64.2910    7.7830   -5.7430 N.am   73  VAL73      -0.1979
     29  CA       -63.0980    8.0250   -4.9040 C.3    73  VAL73       0.1595
     30  C        -63.4300    7.8220   -3.4110 C.2    73  VAL73       0.2287
     31  O        -62.8700    8.4720   -2.5180 O.2    73  VAL73      -0.2864
     32  CB       -62.4580    9.4340   -5.1660 C.3    73  VAL73       0.0276
     33  CG1      -61.8040    9.4730   -6.5480 C.3    73  VAL73       0.0022
     34  CG2      -63.4920   10.5720   -5.0240 C.3    73  VAL73       0.0022
     35  N        -57.6040    4.7520   -0.7210 N.3    77  ARG77      -0.1231
     36  CA       -56.9470    4.0850   -1.8330 C.3    77  ARG77       0.1694
     37  C        -57.4550    4.6210   -3.1670 C.2    77  ARG77       0.2591
     38  O        -56.6460    4.9700   -4.0460 O.2    77  ARG77      -0.2718
     39  CB       -57.1020    2.5460   -1.7780 C.3    77  ARG77       0.0321
     40  CG       -56.3770    1.8250   -2.9420 C.3    77  ARG77       0.0489
     41  CD       -56.6810    0.3170   -3.0270 C.3    77  ARG77       0.2205
     42  NE       -58.0940    0.0470   -3.3160 N.pl3  77  ARG77      -0.0865
     43  CZ       -58.6790    0.1920   -4.5090 C.cat  77  ARG77       0.5346
     44  NH1      -57.9920    0.6130   -5.5710 N.pl3  77  ARG77       0.1354
     45  NH2      -59.9720   -0.0720   -4.6380 N.pl3  77  ARG77       0.1354
     46  N        -58.7780    4.6990   -3.3260 N.am   78  LYS78      -0.1980
     47  CA       -59.3330    5.1990   -4.5770 C.3    78  LYS78       0.1596
     48  C        -59.0130    6.6780   -4.7970 C.2    78  LYS78       0.2287
     49  O        -58.6260    7.0570   -5.8930 O.2    78  LYS78      -0.2864
     50  CB       -60.8290    4.8820   -4.6850 C.3    78  LYS78       0.0298
     51  CG       -61.0810    3.3800   -4.8530 C.3    78  LYS78       0.0038
     52  CD       -62.5710    3.0510   -4.8420 C.3    78  LYS78       0.0206
     53  CE       -63.1640    3.0790   -6.2270 C.3    78  LYS78       0.1093
     54  NZ       -64.5610    2.4930   -6.2680 N.3    78  LYS78      -0.1314
     55  N        -55.4910    6.8720   -5.9280 N.3    81  ALA81      -0.1231
     56  CA       -55.3260    6.3970   -7.3050 C.3    81  ALA81       0.1694
     57  C        -55.7990    7.4930   -8.2740 C.2    81  ALA81       0.2592
     58  O        -55.2030    7.7130   -9.3300 O.2    81  ALA81      -0.2718
     59  CB       -56.0740    5.0910   -7.5390 C.3    81  ALA81       0.0304
     60  N        -56.8630    8.2010   -7.8930 N.am   82  CYS82      -0.1970
     61  CA       -57.3920    9.2530   -8.7520 C.3    82  CYS82       0.1712
     62  C        -56.4090   10.4460   -8.8370 C.2    82  CYS82       0.2296
     63  O        -56.1160   10.9310   -9.9120 O.2    82  CYS82      -0.2864
     64  CB       -58.7830    9.6610   -8.2690 C.3    82  CYS82       0.0983
     65  SG       -59.4730   11.0730   -9.1340 S.3    82  CYS82      -0.0798
     66  N        -53.2340   10.3000   -8.3380 N.3    84  ARG84      -0.1231
     67  CA       -52.1170    9.7730   -9.1040 C.3    84  ARG84       0.1694
     68  C        -52.4310    9.9040  -10.5940 C.2    84  ARG84       0.2592
     69  O        -51.6040   10.3880  -11.3430 O.2    84  ARG84      -0.2718
     70  CB       -51.8460    8.2990   -8.7280 C.3    84  ARG84       0.0321
     71  CG       -50.7620    7.6180   -9.5540 C.3    84  ARG84       0.0489
     72  CD       -50.9610    6.0950   -9.6340 C.3    84  ARG84       0.2205
     73  NE       -52.2090    5.7220  -10.2950 N.pl3  84  ARG84      -0.0865
     74  CZ       -52.7630    4.5120  -10.2260 C.cat  84  ARG84       0.5346
     75  NH1      -52.1680    3.5290   -9.5560 N.pl3  84  ARG84       0.1354
     76  NH2      -53.8850    4.2700  -10.8720 N.pl3  84  ARG84       0.1354
     77  N        -53.6160    9.4640  -11.0360 N.am   85  ASP85      -0.1960
     78  CA       -53.9280    9.5040  -12.4640 C.3    85  ASP85       0.1840
     79  C        -53.9530   10.9370  -12.9700 C.2    85  ASP85       0.2621
     80  O        -53.4900   11.2250  -14.0610 O.2    85  ASP85      -0.2715
     81  CB       -55.2830    8.8620  -12.7760 C.3    85  ASP85       0.1450
     82  CG       -55.2500    7.3570  -12.7320 C.2    85  ASP85       0.3671
     83  OD1      -54.2710    6.7710  -12.1980 O.co2  85  ASP85      -0.2456
     84  OD2      -56.2200    6.7430  -13.2450 O.co2  85  ASP85      -0.2456
     85  N        -54.5330   11.8330  -12.1850 N.am   86  ALA86      -0.1977
     86  CA       -54.6180   13.2200  -12.5790 C.3    86  ALA86       0.1597
     87  C        -53.2050   13.7620  -12.8080 C.2    86  ALA86       0.2287
     88  O        -52.9410   14.4240  -13.8100 O.2    86  ALA86      -0.2864
     89  CB       -55.3730   14.0430  -11.5030 C.3    86  ALA86       0.0319
     90  N        -50.4800   11.8720  -13.4430 N.3    88  ILE88      -0.1231
     91  CA       -49.9350   11.1870  -14.6100 C.3    88  ILE88       0.1692
     92  C        -50.3700   11.9160  -15.8940 C.2    88  ILE88       0.2591
     93  O        -49.5420   12.2500  -16.7650 O.2    88  ILE88      -0.2718
     94  CB       -50.3780    9.6850  -14.6630 C.3    88  ILE88       0.0266
     95  CG1      -49.6380    8.8710  -13.5890 C.3    88  ILE88       0.0019
     96  CG2      -50.1090    9.1030  -16.0160 C.3    88  ILE88       0.0020
     97  CD1      -50.3120    7.4880  -13.3140 C.3    88  ILE88       0.0001
     98  N        -51.6640   12.1660  -16.0080 N.am   89  ILE89      -0.1980
     99  CA       -52.1950   12.8200  -17.1950 C.3    89  ILE89       0.1595
    100  C        -51.5790   14.2130  -17.3700 C.2    89  ILE89       0.2287
    101  O        -51.1020   14.5600  -18.4710 O.2    89  ILE89      -0.2864
    102  CB       -53.7490   12.8660  -17.1500 C.3    89  ILE89       0.0276
    103  CG1      -54.3250   11.4520  -17.2980 C.3    89  ILE89       0.0022
    104  CG2      -54.3020   13.7950  -18.2240 C.3    89  ILE89       0.0022
    105  CD1      -55.8010   11.3340  -17.0350 C.3    89  ILE89       0.0001
    106  N        -48.0430   14.0080  -18.7290 N.3    92  TYR92      -0.1241
    107  CA       -47.9800   13.6750  -20.1580 C.3    92  TYR92       0.1605
    108  C        -48.3850   14.8830  -20.9870 C.2    92  TYR92       0.2264
    109  O        -47.8530   15.0950  -22.0790 O.2    92  TYR92      -0.2867
    110  CB       -48.8010   12.4110  -20.5330 C.3    92  TYR92       0.0534
    111  CG       -48.0660   11.1330  -20.2000 C.ar   92  TYR92      -0.0201
    112  CD1      -47.0930   10.6300  -21.0480 C.ar   92  TYR92      -0.0009
    113  CD2      -48.2920   10.4680  -19.0020 C.ar   92  TYR92      -0.0009
    114  CE1      -46.3790    9.4750  -20.7300 C.ar   92  TYR92       0.0417
    115  CE2      -47.5800    9.3100  -18.6700 C.ar   92  TYR92       0.0417
    116  CZ       -46.6210    8.8270  -19.5430 C.ar   92  TYR92       0.1957
    117  OH       -45.9230    7.6930  -19.2160 O.3    92  TYR92      -0.2866
    118  N        -48.5090    6.1480  -24.9170 N.3   108  ARG108     -0.1231
    119  CA       -48.1040    5.5540  -23.6500 C.3   108  ARG108      0.1694
    120  C        -49.1470    5.7760  -22.5630 C.2   108  ARG108      0.2592
    121  O        -49.2150    5.0080  -21.6100 O.2   108  ARG108     -0.2718
    122  CB       -46.7450    6.1100  -23.1960 C.3   108  ARG108      0.0321
    123  CG       -45.9960    5.2080  -22.2030 C.3   108  ARG108      0.0489
    124  CD       -44.6410    5.7920  -21.7780 C.3   108  ARG108      0.2205
    125  NE       -43.8060    4.7600  -21.1640 N.pl3 108  ARG108     -0.0865
    126  CZ       -43.9410    4.3160  -19.9150 C.cat 108  ARG108      0.5346
    127  NH1      -44.8800    4.8080  -19.1100 N.pl3 108  ARG108      0.1354
    128  NH2      -43.1480    3.3520  -19.4780 N.pl3 108  ARG108      0.1354
    129  N        -49.9490    6.8250  -22.7000 N.am  109  CYS109     -0.1970
    130  CA       -50.8800    7.1870  -21.6290 C.3   109  CYS109      0.1712
    131  C        -52.3410    6.9380  -21.9800 C.2   109  CYS109      0.2296
    132  O        -53.0670    6.4100  -21.1530 O.2   109  CYS109     -0.2864
    133  CB       -50.6650    8.6590  -21.2240 C.3   109  CYS109      0.0983
    134  SG       -51.6830    9.2770  -19.8390 S.3   109  CYS109     -0.0798
    135  N        -56.9700    3.5610  -22.3490 N.3   113  LEU113     -0.1245
    136  CA       -57.3420    4.1000  -21.0430 C.3   113  LEU113      0.1561
    137  C        -58.8510    4.1000  -20.7940 C.2   113  LEU113      0.2260
    138  O        -59.2930    3.7860  -19.6870 O.2   113  LEU113     -0.2867
    139  CB       -56.7580    5.5030  -20.8390 C.3   113  LEU113      0.0270
    140  CG       -56.9590    6.0740  -19.4370 C.3   113  LEU113      0.0019
    141  CD1      -56.4280    5.1750  -18.3240 C.3   113  LEU113      0.0001
    142  CD2      -56.2790    7.4490  -19.3180 C.3   113  LEU113      0.0001
    143  N        -59.8450    0.6720  -19.8580 N.3   116  THR116     -0.1203
    144  CA       -59.3970    0.3890  -18.5080 C.3   116  THR116      0.1994
    145  C        -60.3390    1.0110  -17.4630 C.2   116  THR116      0.2617
    146  O        -60.7570    0.3650  -16.4910 O.2   116  THR116     -0.2717
    147  CB       -57.9560    0.9440  -18.3210 C.3   116  THR116      0.1784
    148  OG1      -57.0580    0.2100  -19.1680 O.3   116  THR116     -0.2211
    149  CG2      -57.4980    0.8400  -16.8670 C.3   116  THR116      0.0376
    150  N        -60.6920    2.2690  -17.6630 N.am  117  TYR117     -0.1975
    151  CA       -61.6060    2.9200  -16.7290 C.3   117  TYR117      0.1639
    152  C        -62.9880    2.2310  -16.7310 C.2   117  TYR117      0.2290
    153  O        -63.6090    2.1000  -15.6800 O.2   117  TYR117     -0.2864
    154  CB       -61.7350    4.3950  -17.0700 C.3   117  TYR117      0.0560
    155  CG       -60.5330    5.2430  -16.6510 C.ar  117  TYR117     -0.0198
    156  CD1      -59.6350    4.8070  -15.6780 C.ar  117  TYR117     -0.0009
    157  CD2      -60.3280    6.5020  -17.2020 C.ar  117  TYR117     -0.0009
    158  CE1      -58.5530    5.5960  -15.2890 C.ar  117  TYR117      0.0417
    159  CE2      -59.2500    7.2920  -16.8130 C.ar  117  TYR117      0.0417
    160  CZ       -58.3850    6.8370  -15.8490 C.ar  117  TYR117      0.1957
    161  OH       -57.3150    7.6320  -15.4630 O.3   117  TYR117     -0.2866
    162  N        -63.1670   -0.8450  -14.6470 N.3   120  LEU120     -0.1245
    163  CA       -63.0420   -0.5830  -13.2290 C.3   120  LEU120      0.1561
    164  C        -64.2340    0.2220  -12.7130 C.2   120  LEU120      0.2260
    165  O        -64.3800    0.4110  -11.5100 O.2   120  LEU120     -0.2867
    166  CB       -61.7380    0.1860  -12.9500 C.3   120  LEU120      0.0270
    167  CG       -60.4750   -0.6800  -13.1160 C.3   120  LEU120      0.0019
    168  CD1      -59.2700    0.1940  -13.1630 C.3   120  LEU120      0.0001
    169  CD2      -60.3180   -1.6810  -11.9810 C.3   120  LEU120      0.0001
    170  N        -64.6890    3.4370  -13.3350 N.3   122  VAL122     -0.1231
    171  CA       -64.2830    4.8240  -13.0820 C.3   122  VAL122      0.1678
    172  C        -65.2560    5.7870  -13.7680 C.2   122  VAL122      0.2434
    173  O        -65.4230    5.7600  -14.9900 O.2   122  VAL122     -0.2733
    174  CB       -62.8660    5.0890  -13.5630 C.3   122  VAL122      0.0265
    175  CG1      -62.5480    6.6010  -13.4690 C.3   122  VAL122      0.0020
    176  CG2      -61.8970    4.2850  -12.7270 C.3   122  VAL122      0.0020
    177  N        -65.8800    6.6640  -12.9840 N.am  123  PRO123     -0.2729
    178  CA       -67.0050    7.4130  -13.5570 C.3   123  PRO123      0.1401
    179  C        -66.5510    8.4410  -14.5870 C.2   123  PRO123      0.2269
    180  O        -65.6780    9.2670  -14.2910 O.2   123  PRO123     -0.2865
    181  CB       -67.6580    8.0630  -12.3390 C.3   123  PRO123      0.0296
    182  CG       -66.6360    8.0820  -11.2850 C.3   123  PRO123      0.0237
    183  CD       -65.7200    6.9020  -11.5430 C.3   123  PRO123      0.0939
    184  N        -67.1870   12.3600  -13.7740 N.3   126  GLY126     -0.1210
    185  CA       -66.1960   12.8790  -12.8300 C.3   126  GLY126      0.1956
    186  C        -64.8470   13.0800  -13.5000 C.2   126  GLY126      0.2611
    187  O        -64.1830   14.1060  -13.2970 O.2   126  GLY126     -0.2717
    188  N        -64.4320   12.0950  -14.3040 N.am  127  ASN127     -0.1974
    189  CA       -63.1630   12.1940  -15.0020 C.3   127  ASN127      0.1688
    190  C        -63.1510   13.3790  -15.9530 C.2   127  ASN127      0.2292
    191  O        -62.1710   14.1050  -16.0400 O.2   127  ASN127     -0.2864
    192  CB       -62.8800   10.9200  -15.7920 C.3   127  ASN127      0.1181
    193  CG       -61.6430   10.1700  -15.2980 C.2   127  ASN127      0.2629
    194  OD1      -60.7610   10.7230  -14.6720 O.2   127  ASN127     -0.2716
    195  ND2      -61.5960    8.8750  -15.6040 N.am  127  ASN127     -0.0877
    196  N        -62.6570   16.5490  -13.9580 N.3   130  ALA130     -0.1245
    197  CA       -61.3120   16.7130  -13.4100 C.3   130  ALA130      0.1562
    198  C        -60.4110   17.2440  -14.5230 C.2   130  ALA130      0.2260
    199  O        -59.6080   18.1600  -14.2910 O.2   130  ALA130     -0.2867
    200  CB       -60.7810   15.4060  -12.8440 C.3   130  ALA130      0.0290
@<TRIPOS>BOND
     1   118   119    1
     2   119   122    1
     3   119   120    1
     4   122   123    1
     5   129   120   am
     6   129   130    1
     7   120   121    2
     8   135   136    1
     9   123   124    1
    10   109   108    2
    11   131   130    1
    12   131   132    2
    13   124   125    1
    14   130   133    1
    15   133   134    1
    16   125   126    2
    17   112   114   ar
    18   112   111   ar
    19   136   139    1
    20   136   137    1
    21   108   107    1
    22   139   140    1
    23   137   138    2
    24   114   116   ar
    25   110   111    1
    26   110   107    1
    27   111   113   ar
    28   107   106    1
    29   126   128    1
    30   126   127    1
    31   143   144    1
    32   116   117    1
    33   116   115   ar
    34   140   142    1
    35   140   141    1
    36   148   147    1
    37   113   115   ar
    38   144   147    1
    39   144   145    1
    40   101   100    2
    41   147   149    1
    42   104   102    1
    43   150   145   am
    44   150   151    1
    45   145   146    2
    46   100    99    1
    47   103   102    1
    48   103   105    1
    49   157   159   ar
    50   157   155   ar
    51    99   102    1
    52    99    98    1
    53   154   151    1
    54   154   155    1
    55   159   160   ar
    56    93    92    2
    57   152   151    1
    58   152   153    2
    59   155   156   ar
    60   191   190    2
    61    96    94    1
    62    98    92   am
    63   190   189    1
    64    92    91    1
    65   160   161    1
    66   160   158   ar
    67   192   193    1
    68   192   189    1
    69   156   158   ar
    70   195   193   am
    71   193   194    2
    72   189   188    1
    73   173   172    2
    74    94    91    1
    75    94    95    1
    76   162   163    1
    77    91    90    1
    78   179   180    2
    79   179   178    1
    80   198   199    2
    81   198   197    1
    82   188   186   am
    83    80    79    2
    84   196   197    1
    85    88    87    2
    86   184   185    1
    87   172   171    1
    88   172   177   am
    89    95    97    1
    90   174   175    1
    91   174   171    1
    92   174   176    1
    93   178   177    1
    94   178   181    1
    95   186   187    2
    96   186   185    1
    97   197   200    1
    98   170   171    1
    99    84    82   ar
   100   163   166    1
   101   163   164    1
   102   168   167    1
   103   167   166    1
   104   167   169    1
   105   177   183    1
   106    79    78    1
   107    79    85   am
   108    87    86    1
   109    81    82    1
   110    81    78    1
   111    82    83   ar
   112   164   165    2
   113    86    85    1
   114    86    89    1
   115    78    77    1
   116   181   182    1
   117   183   182    1
   118    69    68    2
   119    77    68   am
   120    76    74    1
   121    68    67    1
   122    73    74    2
   123    73    72    1
   124    74    75    1
   125    14    13    1
   126    14    15    1
   127    13    12    1
   128    63    62    2
   129    72    71    1
   130    12     9    1
   131    71    70    1
   132    58    57    2
   133    65    64    1
   134    67    70    1
   135    67    66    1
   136     9     8    1
   137     9    10    1
   138    62    61    1
   139    61    64    1
   140    61    60    1
   141     7     5    1
   142     1     2    1
   143    23    21    1
   144    22    21    1
   145    57    60   am
   146    57    56    1
   147    11    10    2
   148     2     5    1
   149     2     3    1
   150    21    20    1
   151    25    24    1
   152    25    26    1
   153    59    56    1
   154     5     6    1
   155    56    55    1
   156    27    26    2
   157     3     4    2
   158    26    28   am
   159    33    32    1
   160    54    53    1
   161    53    52    1
   162    20    17    1
   163    49    48    2
   164    28    29    1
   165    44    43    1
   166    17    16    1
   167    17    18    1
   168    32    34    1
   169    32    29    1
   170    29    30    1
   171    51    52    1
   172    51    50    1
   173    48    47    1
   174    50    47    1
   175    45    43    1
   176    47    46    1
   177    43    42    2
   178    19    18    2
   179    38    37    2
   180    30    31    2
   181    46    37   am
   182    42    41    1
   183    37    36    1
   184    41    40    1
   185    40    39    1
   186    36    39    1
   187    36    35    1
