@<TRIPOS>MOLECULE
tmp/4lm6B00.pdb
 135 127 0 0 0
SMALL
GASTEIGER

@<TRIPOS>ATOM
      1  N        -50.7440   21.5840   -7.0170 N.3    50  CYS50      -0.1235
      2  CA       -51.9150   22.4410   -6.8580 C.3    50  CYS50       0.1677
      3  C        -52.9330   22.1620   -7.9620 C.2    50  CYS50       0.2270
      4  O        -54.1420   22.0310   -7.7100 O.2    50  CYS50      -0.2867
      5  CB       -51.4590   23.9100   -6.8290 C.3    50  CYS50       0.0956
      6  SG       -52.3490   25.1060   -7.7910 S.3    50  CYS50      -0.0801
      7  N        -54.6050   18.7040   -7.1400 N.3    53  SER53      -0.1202
      8  CA       -55.4670   18.6900   -5.9720 C.3    53  SER53       0.2020
      9  C        -56.7080   19.5750   -6.1920 C.2    53  SER53       0.2618
     10  O        -57.8090   19.2140   -5.7500 O.2    53  SER53      -0.2717
     11  CB       -54.6990   19.0400   -4.6850 C.3    53  SER53       0.2103
     12  OG       -54.2580   20.3860   -4.6440 O.3    53  SER53      -0.2182
     13  N        -56.5390   20.7050   -6.8790 N.am   54  ASP54      -0.1973
     14  CA       -57.6560   21.6120   -7.1440 C.3    54  ASP54       0.1709
     15  C        -58.6780   20.9670   -8.0640 C.2    54  ASP54       0.2293
     16  O        -59.9050   21.1240   -7.8690 O.2    54  ASP54      -0.2864
     17  CB       -57.1350   22.9170   -7.7310 C.3    54  ASP54       0.1436
     18  CG       -58.2020   23.9960   -7.8440 C.2    54  ASP54       0.3671
     19  OD1      -58.7610   24.4120   -6.8070 O.co2  54  ASP54      -0.2456
     20  OD2      -58.4560   24.4390   -8.9790 O.co2  54  ASP54      -0.2456
     21  N        -60.3390   18.0130   -6.1760 N.3    57  SER57      -0.1202
     22  CA       -61.1950   18.6010   -5.1420 C.3    57  SER57       0.2020
     23  C        -62.4460   19.2590   -5.7530 C.2    57  SER57       0.2619
     24  O        -63.5210   19.1970   -5.1630 O.2    57  SER57      -0.2717
     25  CB       -60.4310   19.6330   -4.2870 C.3    57  SER57       0.2103
     26  OG       -59.3610   19.0020   -3.5790 O.3    57  SER57      -0.2182
     27  N        -62.3040   19.8930   -6.9120 N.am   58  GLY58      -0.1956
     28  CA       -63.4510   20.4790   -7.6000 C.3    58  GLY58       0.1869
     29  C        -64.4140   19.4250   -8.1170 C.2    58  GLY58       0.2309
     30  O        -65.6410   19.5950   -8.0520 O.2    58  GLY58      -0.2863
     31  N        -66.1850   18.4700   -4.9530 N.3    61  CYS61      -0.1221
     32  CA       -67.0170   19.4920   -4.3360 C.3    61  CYS61       0.1808
     33  C        -68.2910   19.7320   -5.1540 C.2    61  CYS61       0.2601
     34  O        -69.3410   20.0710   -4.5840 O.2    61  CYS61      -0.2717
     35  CB       -66.2360   20.7750   -4.0530 C.3    61  CYS61       0.0970
     36  SG       -66.0560   21.9140   -5.4050 S.3    61  CYS61      -0.0800
     37  N        -68.2090   19.5330   -6.4700 N.am   62  GLU62      -0.1979
     38  CA       -69.3810   19.6730   -7.3390 C.3    62  GLU62       0.1602
     39  C        -70.2790   18.4290   -7.2900 C.2    62  GLU62       0.2287
     40  O        -71.4660   18.4970   -7.6230 O.2    62  GLU62      -0.2864
     41  CB       -68.9650   19.9530   -8.7890 C.3    62  GLU62       0.0415
     42  CG       -68.3360   21.3320   -8.9650 C.3    62  GLU62       0.1163
     43  CD       -67.9300   21.6610  -10.4050 C.2    62  GLU62       0.3649
     44  OE1      -68.1360   20.8210  -11.3240 O.co2  62  GLU62      -0.2457
     45  OE2      -67.4050   22.7960  -10.6070 O.co2  62  GLU62      -0.2457
     46  N        -64.8240   16.1020  -15.7340 N.3   129  ARG129     -0.1245
     47  CA       -64.7240   17.3510  -15.0000 C.3   129  ARG129      0.1563
     48  C        -63.3140   17.5920  -14.4560 C.2   129  ARG129      0.2260
     49  O        -62.8440   18.7230  -14.4590 O.2   129  ARG129     -0.2867
     50  CB       -65.7210   17.3940  -13.8550 C.3   129  ARG129      0.0307
     51  CG       -65.8050   18.7640  -13.1840 C.3   129  ARG129      0.0489
     52  CD       -66.1770   19.8770  -14.1770 C.3   129  ARG129      0.2205
     53  NE       -66.4480   21.1250  -13.4730 N.pl3 129  ARG129     -0.0865
     54  CZ       -66.1250   22.3320  -13.9370 C.cat 129  ARG129      0.5346
     55  NH1      -65.5900   22.4710  -15.1470 N.pl3 129  ARG129      0.1354
     56  NH2      -66.3850   23.4090  -13.2090 N.pl3 129  ARG129      0.1354
     57  N        -61.3500   18.8790  -17.2120 N.3   132  ALA132     -0.1231
     58  CA       -61.7950   20.2380  -17.5360 C.3   132  ALA132      0.1694
     59  C        -61.2150   21.2600  -16.5660 C.2   132  ALA132      0.2591
     60  O        -60.8120   22.3580  -16.9710 O.2   132  ALA132     -0.2718
     61  CB       -63.3120   20.3240  -17.5110 C.3   132  ALA132      0.0304
     62  N        -61.1860   20.9160  -15.2790 N.am  133  ILE133     -0.1980
     63  CA       -60.6620   21.8690  -14.2880 C.3   133  ILE133      0.1595
     64  C        -59.1550   21.9900  -14.5040 C.2   133  ILE133      0.2287
     65  O        -58.6190   23.1120  -14.4890 O.2   133  ILE133     -0.2864
     66  CB       -61.0190   21.4810  -12.8400 C.3   133  ILE133      0.0276
     67  CG1      -62.5400   21.4790  -12.6800 C.3   133  ILE133      0.0022
     68  CG2      -60.3770   22.4670  -11.8430 C.3   133  ILE133      0.0022
     69  CD1      -63.0540   20.9370  -11.3560 C.3   133  ILE133      0.0001
     70  N        -58.5370   24.3450  -17.4580 N.3   136  ALA136     -0.1231
     71  CA       -58.7740   25.7540  -17.1660 C.3   136  ALA136      0.1694
     72  C        -57.6740   26.3080  -16.2660 C.2   136  ALA136      0.2592
     73  O        -57.2190   27.4350  -16.4490 O.2   136  ALA136     -0.2718
     74  CB       -60.1560   25.9290  -16.5220 C.3   136  ALA136      0.0304
     75  N        -57.2200   25.5020  -15.3160 N.am  137  THR137     -0.1953
     76  CA       -56.2120   25.9290  -14.3660 C.3   137  THR137      0.1897
     77  C        -54.8800   26.1410  -15.0940 C.2   137  THR137      0.2313
     78  O        -54.2270   27.1750  -14.9220 O.2   137  THR137     -0.2863
     79  CB       -56.1080   24.9130  -13.2190 C.3   137  THR137      0.1794
     80  OG1      -57.3810   24.8340  -12.5590 O.3   137  THR137     -0.2208
     81  CG2      -55.0750   25.3170  -12.2200 C.3   137  THR137      0.0378
     82  N        -54.9070   29.3520  -16.9860 N.3   140  GLY140     -0.1210
     83  CA       -54.6520   30.4800  -16.0970 C.3   140  GLY140      0.1956
     84  C        -53.1970   30.6100  -15.6980 C.2   140  GLY140      0.2611
     85  O        -52.6450   31.7160  -15.6230 O.2   140  GLY140     -0.2717
     86  N        -52.5460   29.4850  -15.4370 N.am  141  PHE141     -0.1976
     87  CA       -51.1380   29.5470  -15.0570 C.3   141  PHE141      0.1639
     88  C        -50.2610   29.9380  -16.2610 C.2   141  PHE141      0.2290
     89  O        -49.3240   30.7200  -16.1210 O.2   141  PHE141     -0.2864
     90  CB       -50.6760   28.2470  -14.4280 C.3   141  PHE141      0.0560
     91  CG       -51.1060   28.0750  -13.0040 C.ar  141  PHE141     -0.0200
     92  CD1      -50.9220   29.1050  -12.0780 C.ar  141  PHE141     -0.0042
     93  CD2      -51.7030   26.9020  -12.5930 C.ar  141  PHE141     -0.0042
     94  CE1      -51.2980   28.9530  -10.7620 C.ar  141  PHE141     -0.0003
     95  CE2      -52.0870   26.7340  -11.2710 C.ar  141  PHE141     -0.0003
     96  CZ       -51.8980   27.7810  -10.3580 C.ar  141  PHE141     -0.0000
     97  N        -52.6910   34.5850  -15.2370 N.3   145  THR145     -0.1203
     98  CA       -53.8730   35.2380  -14.7040 C.3   145  THR145      0.1994
     99  C        -54.3410   34.5970  -13.3810 C.2   145  THR145      0.2618
    100  O        -55.3190   35.0480  -12.7900 O.2   145  THR145     -0.2717
    101  CB       -55.0180   35.2170  -15.7530 C.3   145  THR145      0.1784
    102  OG1      -55.2160   33.8830  -16.2600 O.3   145  THR145     -0.2211
    103  CG2      -54.6750   36.1310  -16.9320 C.3   145  THR145      0.0376
    104  N        -53.6300   33.5680  -12.9090 N.am  146  ALA146     -0.1965
    105  CA       -53.9520   32.9200  -11.6320 C.3   146  ALA146      0.1728
    106  C        -53.9230   33.9840  -10.5670 C.2   146  ALA146      0.2616
    107  O        -53.0850   34.9010  -10.6240 O.2   146  ALA146     -0.2715
    108  CB       -52.9720   31.8320  -11.3110 C.3   146  ALA146      0.0334
    109  N        -54.8000   33.8740   -9.5830 N.am  147  GLN147     -0.1963
    110  CA       -55.0060   34.9450   -8.6270 C.3   147  GLN147      0.1733
    111  C        -54.0380   34.8730   -7.4390 C.2   147  GLN147      0.2616
    112  O        -53.7390   35.8830   -6.8270 O.2   147  GLN147     -0.2715
    113  CB       -56.4650   34.9260   -8.1610 C.3   147  GLN147      0.0408
    114  CG       -57.4530   35.1970   -9.3070 C.3   147  GLN147      0.0908
    115  CD       -58.9040   34.8530   -8.9680 C.2   147  GLN147      0.2608
    116  OE1      -59.4700   33.8880   -9.4960 O.2   147  GLN147     -0.2717
    117  NE2      -59.5170   35.6560   -8.1050 N.am  147  GLN147     -0.0878
    118  N        -53.5480   33.6860   -7.1180 N.am  148  GLN148     -0.1963
    119  CA       -52.6950   33.5710   -5.9330 C.3   148  GLN148      0.1733
    120  C        -51.2240   33.3770   -6.2520 C.2   148  GLN148      0.2616
    121  O        -50.3770   34.1200   -5.7530 O.2   148  GLN148     -0.2715
    122  CB       -53.1630   32.4780   -4.9800 C.3   148  GLN148      0.0408
    123  CG       -52.5930   32.6700   -3.5740 C.3   148  GLN148      0.0908
    124  CD       -52.8110   31.4710   -2.6610 C.2   148  GLN148      0.2608
    125  OE1      -52.9420   30.3300   -3.1210 O.2   148  GLN148     -0.2717
    126  NE2      -52.8390   31.7270   -1.3520 N.am  148  GLN148     -0.0878
    127  N        -50.8990   32.4220   -7.1050 N.am  149  LYS149     -0.1977
    128  CA       -49.5020   32.0860   -7.3540 C.3   149  LYS149      0.1596
    129  C        -49.1400   32.3490   -8.7990 C.2   149  LYS149      0.2287
    130  O        -49.5730   31.6330   -9.6900 O.2   149  LYS149     -0.2864
    131  CB       -49.2210   30.6240   -6.9610 C.3   149  LYS149      0.0298
    132  CG       -47.7730   30.2100   -7.1130 C.3   149  LYS149      0.0038
    133  CD       -47.4290   28.9970   -6.2670 C.3   149  LYS149      0.0206
    134  CE       -45.9880   28.5520   -6.5200 C.3   149  LYS149      0.1093
    135  NZ       -45.8600   27.6830   -7.7400 N.3   149  LYS149     -0.1314
@<TRIPOS>BOND
     1    58    61    1
     2    58    57    1
     3    58    59    1
     4    70    71    1
     5    71    74    1
     6    71    72    1
     7    82    83    1
     8    60    59    2
     9   103   101    1
    10    59    62   am
    11    73    72    2
    12    72    75   am
    13    88    89    2
    14    88    87    1
    15   102   101    1
    16    83    84    1
    17   101    98    1
    18    46    47    1
    19    84    85    2
    20    84    86   am
    21    86    87    1
    22    75    76    1
    23    62    63    1
    24    97    98    1
    25    55    54    1
    26    77    78    2
    27    77    76    1
    28    87    90    1
    29    47    48    1
    30    47    50    1
    31    98    99    1
    32    64    65    2
    33    64    63    1
    34    49    48    2
    35    90    91    1
    36    76    79    1
    37    63    66    1
    38    52    53    1
    39    52    51    1
    40    54    53    2
    41    54    56    1
    42    50    51    1
    43    99   104   am
    44    99   100    2
    45    79    80    1
    46    79    81    1
    47    91    93   ar
    48    91    92   ar
    49   104   105    1
    50    66    67    1
    51    66    68    1
    52    67    69    1
    53    93    95   ar
    54    92    94   ar
    55   105   108    1
    56   105   106    1
    57    44    43   ar
    58    95    96   ar
    59    94    96   ar
    60   107   106    2
    61    45    43   ar
    62   106   109   am
    63    43    42    1
    64   130   129    2
    65   109   110    1
    66   116   115    2
    67   114   115    1
    68   114   113    1
    69    20    18   ar
    70   115   117   am
    71    42    41    1
    72   129   128    1
    73    41    38    1
    74   110   113    1
    75   110   111    1
    76    29    30    2
    77    29    28    1
    78    15    16    2
    79    15    14    1
    80     3     4    2
    81     3     2    1
    82    18    17    1
    83    18    19   ar
    84     6     5    1
    85   135   134    1
    86    17    14    1
    87    40    39    2
    88    28    27    1
    89   111   118   am
    90   111   112    2
    91   128   127    1
    92   128   131    1
    93    38    39    1
    94    38    37    1
    95    14    13    1
    96     7     8    1
    97   118   119    1
    98   132   131    1
    99   132   133    1
   100   127   120   am
   101     1     2    1
   102    27    23   am
   103    13     9   am
   104     2     5    1
   105   134   133    1
   106    37    33   am
   107   120   119    1
   108   120   121    2
   109     9     8    1
   110     9    10    2
   111    21    22    1
   112     8    11    1
   113   119   122    1
   114    23    24    2
   115    23    22    1
   116    36    35    1
   117    33    34    2
   118    33    32    1
   119    22    25    1
   120   122   123    1
   121    31    32    1
   122    11    12    1
   123    32    35    1
   124    25    26    1
   125   123   124    1
   126   125   124    2
   127   124   126   am
