@<TRIPOS>MOLECULE
tmp/4lm8A08.pdb
 176 168 0 0 0
SMALL
GASTEIGER

@<TRIPOS>ATOM
      1  N         -5.9650   18.7430  -14.1870 N.3   517  HIS517     -0.1241
      2  CA        -6.6720   18.8960  -12.9170 C.3   517  HIS517      0.1621
      3  C         -8.0430   19.5390  -13.1190 C.2   517  HIS517      0.2264
      4  O         -9.0330   19.1270  -12.5110 O.2   517  HIS517     -0.2867
      5  CB        -5.8770   19.7790  -11.9580 C.3   517  HIS517      0.0745
      6  CG        -4.5460   19.2240  -11.5700 C.ar  517  HIS517      0.0817
      7  ND1       -3.4990   20.0260  -11.1500 N.ar  517  HIS517     -0.2268
      8  CD2       -4.0810   17.9490  -11.5110 C.ar  517  HIS517      0.1154
      9  CE1       -2.4530   19.2710  -10.8660 C.ar  517  HIS517      0.1986
     10  NE2       -2.7840   18.0050  -11.0860 N.ar  517  HIS517     -0.2212
     11  N        -11.2450   17.3280  -12.1450 N.3   521  VAL521     -0.1245
     12  CA       -11.9810   17.7640  -10.9590 C.3   521  VAL521      0.1561
     13  C        -13.4180   18.1510  -11.3360 C.2   521  VAL521      0.2260
     14  O        -14.3470   17.9240  -10.5560 O.2   521  VAL521     -0.2867
     15  CB       -11.2480   18.8860  -10.1660 C.3   521  VAL521      0.0252
     16  CG1      -11.5870   20.2780  -10.7260 C.3   521  VAL521      0.0019
     17  CG2      -11.5900   18.7920   -8.6810 C.3   521  VAL521      0.0019
     18  N        -14.8620   13.7750  -10.9950 N.3   525  TYR525     -0.1241
     19  CA       -14.8620   13.7480   -9.5290 C.3   525  TYR525      0.1605
     20  C        -15.6790   12.5820   -8.9910 C.2   525  TYR525      0.2264
     21  O        -15.3660   12.0290   -7.9360 O.2   525  TYR525     -0.2867
     22  CB       -15.4070   15.0590   -8.9560 C.3   525  TYR525      0.0534
     23  CG       -15.1220   15.2230   -7.4810 C.ar  525  TYR525     -0.0201
     24  CD1      -13.9160   15.7640   -7.0480 C.ar  525  TYR525     -0.0009
     25  CD2      -16.0540   14.8410   -6.5230 C.ar  525  TYR525     -0.0009
     26  CE1      -13.6450   15.9220   -5.6990 C.ar  525  TYR525      0.0417
     27  CE2      -15.7910   14.9940   -5.1690 C.ar  525  TYR525      0.0417
     28  CZ       -14.5860   15.5300   -4.7660 C.ar  525  TYR525      0.1957
     29  OH       -14.3320   15.6810   -3.4230 O.3   525  TYR525     -0.2866
     30  N        -12.5810   11.6360   -7.0000 N.3   529  GLY529     -0.1210
     31  CA       -12.5930   12.4270   -5.7800 C.3   529  GLY529      0.1956
     32  C        -11.2520   13.1390   -5.6520 C.2   529  GLY529      0.2612
     33  O        -10.7560   13.7070   -6.6230 O.2   529  GLY529     -0.2717
     34  N        -10.6500   13.0880   -4.4700 N.am  530  GLY530     -0.1956
     35  CA        -9.3480   13.7030   -4.2690 C.3   530  GLY530      0.1869
     36  C         -8.1840   12.7380   -4.4350 C.2   530  GLY530      0.2309
     37  O         -7.0780   13.0050   -3.9590 O.2   530  GLY530     -0.2863
     38  N         -5.2680   11.6630   -5.8310 N.3   532  CYS532     -0.1235
     39  CA        -4.1750   12.0770   -6.7030 C.3   532  CYS532      0.1677
     40  C         -3.4610   10.8680   -7.2980 C.2   532  CYS532      0.2270
     41  O         -2.8960   10.9500   -8.3860 O.2   532  CYS532     -0.2867
     42  CB        -3.1580   12.9160   -5.9190 C.3   532  CYS532      0.0956
     43  SG        -3.8960   14.1860   -4.8800 S.3   532  CYS532     -0.0801
     44  N          8.1960   18.0390   -7.0150 N.3   541  LEU541     -0.1245
     45  CA         8.1330   19.3890   -6.4830 C.3   541  LEU541      0.1561
     46  C          9.3680   20.1830   -6.8990 C.2   541  LEU541      0.2260
     47  O          9.3450   21.4070   -6.9010 O.2   541  LEU541     -0.2867
     48  CB         8.0010   19.3710   -4.9530 C.3   541  LEU541      0.0270
     49  CG         6.8120   18.6040   -4.3630 C.3   541  LEU541      0.0019
     50  CD1        6.8100   18.7150   -2.8410 C.3   541  LEU541      0.0001
     51  CD2        5.4920   19.1200   -4.9310 C.3   541  LEU541      0.0001
     52  N          9.1740   22.8140   -9.9350 N.3   544  PHE544     -0.1241
     53  CA         8.7210   24.1950   -9.7920 C.3   544  PHE544      0.1605
     54  C          9.8750   25.1730   -9.9320 C.2   544  PHE544      0.2264
     55  O          9.6780   26.3070  -10.3580 O.2   544  PHE544     -0.2867
     56  CB         7.9950   24.4210   -8.4580 C.3   544  PHE544      0.0534
     57  CG         6.5900   23.8840   -8.4430 C.ar  544  PHE544     -0.0203
     58  CD1        5.5580   24.5830   -9.0670 C.ar  544  PHE544     -0.0042
     59  CD2        6.3060   22.6740   -7.8180 C.ar  544  PHE544     -0.0042
     60  CE1        4.2550   24.0760   -9.0600 C.ar  544  PHE544     -0.0003
     61  CE2        5.0100   22.1590   -7.8080 C.ar  544  PHE544     -0.0003
     62  CZ         3.9850   22.8630   -8.4300 C.ar  544  PHE544     -0.0000
     63  N          3.4000   27.7470   -7.9600 N.3   566  ILE566     -0.1245
     64  CA         2.8190   26.8140   -6.9910 C.3   566  ILE566      0.1561
     65  C          1.3720   27.2240   -6.7240 C.2   566  ILE566      0.2260
     66  O          0.4530   26.3900   -6.7630 O.2   566  ILE566     -0.2867
     67  CB         3.5990   26.7880   -5.6680 C.3   566  ILE566      0.0252
     68  CG1        5.0360   26.3130   -5.8780 C.3   566  ILE566      0.0019
     69  CG2        2.9150   25.8660   -4.6650 C.3   566  ILE566      0.0019
     70  CD1        5.9490   26.6580   -4.6990 C.3   566  ILE566      0.0001
     71  N         -0.8550   26.2680   -9.5430 N.3   569  THR569     -0.1203
     72  CA        -1.1400   24.8310   -9.5790 C.3   569  THR569      0.1994
     73  C         -2.1760   24.4230   -8.5390 C.2   569  THR569      0.2618
     74  O         -3.1250   23.6910   -8.8440 O.2   569  THR569     -0.2717
     75  CB         0.1530   24.0090   -9.4030 C.3   569  THR569      0.1784
     76  OG1        1.0710   24.3560  -10.4470 O.3   569  THR569     -0.2211
     77  CG2       -0.1400   22.5150   -9.5100 C.3   569  THR569      0.0376
     78  N         -2.0180   24.9040   -7.3090 N.am  570  CYS570     -0.1969
     79  CA        -2.9610   24.5470   -6.2510 C.3   570  CYS570      0.1712
     80  C         -4.3470   25.1650   -6.4600 C.2   570  CYS570      0.2296
     81  O         -5.3610   24.5430   -6.1260 O.2   570  CYS570     -0.2864
     82  CB        -2.4180   24.9800   -4.8830 C.3   570  CYS570      0.0983
     83  SG        -0.7710   24.3220   -4.4550 S.3   570  CYS570     -0.0798
     84  N         -7.9980   23.7720   -8.2520 N.3   573  CYS573     -0.1221
     85  CA        -9.0470   23.1540   -7.4430 C.3   573  CYS573      0.1808
     86  C         -9.4260   23.9620   -6.2090 C.2   573  CYS573      0.2601
     87  O        -10.4920   23.7650   -5.6230 O.2   573  CYS573     -0.2717
     88  CB        -8.6020   21.7660   -7.0040 C.3   573  CYS573      0.0970
     89  SG        -8.1570   20.7430   -8.4260 S.3   573  CYS573     -0.0800
     90  N         -8.5330   24.8440   -5.7890 N.am  574  HIS574     -0.1975
     91  CA        -8.7540   25.6240   -4.5860 C.3   574  HIS574      0.1656
     92  C         -8.8720   27.0930   -4.9760 C.2   574  HIS574      0.2291
     93  O         -7.9790   27.8980   -4.6730 O.2   574  HIS574     -0.2864
     94  CB        -7.5680   25.4420   -3.6270 C.3   574  HIS574      0.0771
     95  CG        -7.4190   24.0520   -3.0700 C.ar  574  HIS574      0.0820
     96  ND1       -8.1590   23.5980   -2.0030 N.ar  574  HIS574     -0.2267
     97  CD2       -6.5710   23.0430   -3.4010 C.ar  574  HIS574      0.1154
     98  CE1       -7.7910   22.3570   -1.7070 C.ar  574  HIS574      0.1986
     99  NE2       -6.8270   22.0030   -2.5320 N.ar  574  HIS574     -0.2212
    100  N        -13.3890   26.8350   -1.2160 N.3   580  TYR580     -0.1241
    101  CA       -12.3440   25.8110   -1.2910 C.3   580  TYR580      0.1605
    102  C        -10.9400   26.3320   -0.9940 C.2   580  TYR580      0.2264
    103  O         -9.9660   25.5930   -1.1360 O.2   580  TYR580     -0.2867
    104  CB       -12.3490   25.1760   -2.6820 C.3   580  TYR580      0.0534
    105  CG       -13.7050   24.6890   -3.1110 C.ar  580  TYR580     -0.0201
    106  CD1      -14.2600   23.5410   -2.5550 C.ar  580  TYR580     -0.0009
    107  CD2      -14.4270   25.3690   -4.0820 C.ar  580  TYR580     -0.0009
    108  CE1      -15.5010   23.0870   -2.9560 C.ar  580  TYR580      0.0417
    109  CE2      -15.6780   24.9230   -4.4840 C.ar  580  TYR580      0.0417
    110  CZ       -16.2020   23.7810   -3.9200 C.ar  580  TYR580      0.1957
    111  OH       -17.4460   23.3260   -4.3160 O.3   580  TYR580     -0.2866
    112  N         -8.9840   28.6380    2.0920 N.3   582  VAL582     -0.1245
    113  CA        -8.9890   29.4360    3.3130 C.3   582  VAL582      0.1561
    114  C         -8.0750   30.6700    3.2210 C.2   582  VAL582      0.2260
    115  O         -8.4710   31.7610    3.6420 O.2   582  VAL582     -0.2867
    116  CB        -8.6570   28.5880    4.5590 C.3   582  VAL582      0.0252
    117  CG1       -9.8280   27.6690    4.8930 C.3   582  VAL582      0.0019
    118  CG2       -7.3730   27.7920    4.3490 C.3   582  VAL582      0.0019
    119  N          5.4260   28.5680    0.0070 N.3   611  CYS611     -0.1221
    120  CA         4.4120   27.5340    0.2900 C.3   611  CYS611      0.1808
    121  C          4.9560   26.2480    0.9060 C.2   611  CYS611      0.2601
    122  O          4.3590   25.6940    1.8380 O.2   611  CYS611     -0.2717
    123  CB         3.6640   27.1640   -0.9970 C.3   611  CYS611      0.0970
    124  SG         3.1520   28.5900   -1.9920 S.3   611  CYS611     -0.0800
    125  N          6.0780   25.7720    0.3690 N.am  612  PHE612     -0.1976
    126  CA         6.6330   24.4800    0.7590 C.3   612  PHE612      0.1639
    127  C          7.4280   24.5360    2.0560 C.2   612  PHE612      0.2290
    128  O          7.9670   23.5200    2.4950 O.2   612  PHE612     -0.2864
    129  CB         7.4910   23.8980   -0.3710 C.3   612  PHE612      0.0560
    130  CG         6.6990   23.5150   -1.5900 C.ar  612  PHE612     -0.0200
    131  CD1        5.4110   23.0130   -1.4620 C.ar  612  PHE612     -0.0042
    132  CD2        7.2310   23.6750   -2.8610 C.ar  612  PHE612     -0.0042
    133  CE1        4.6690   22.6590   -2.5820 C.ar  612  PHE612     -0.0003
    134  CE2        6.4970   23.3170   -3.9910 C.ar  612  PHE612     -0.0003
    135  CZ         5.2170   22.8140   -3.8500 C.ar  612  PHE612     -0.0000
    136  N          3.8450   23.4420    3.6060 N.3   615  HIS615     -0.1241
    137  CA         3.1890   22.3220    2.9290 C.3   615  HIS615      0.1621
    138  C          4.1950   21.2640    2.5190 C.2   615  HIS615      0.2264
    139  O          5.2120   21.5740    1.9040 O.2   615  HIS615     -0.2867
    140  CB         2.3950   22.7960    1.7040 C.3   615  HIS615      0.0745
    141  CG         1.1830   23.6020    2.0560 C.ar  615  HIS615      0.0817
    142  ND1       -0.0440   23.0280    2.3010 N.ar  615  HIS615     -0.2268
    143  CD2        1.0180   24.9380    2.2210 C.ar  615  HIS615      0.1154
    144  CE1       -0.9200   23.9770    2.5980 C.ar  615  HIS615      0.1986
    145  NE2       -0.3000   25.1400    2.5540 N.ar  615  HIS615     -0.2212
    146  N          3.3810   18.0720    0.6900 N.3   617  PRO617     -0.2116
    147  CA         2.4690   17.1260    0.0340 C.3   617  PRO617      0.1372
    148  C          3.1420   15.8370   -0.4340 C.2   617  PRO617      0.2244
    149  O          4.2560   15.8660   -0.9690 O.2   617  PRO617     -0.2868
    150  CB         1.9800   17.9120   -1.1860 C.3   617  PRO617      0.0268
    151  CG         3.1070   18.8470   -1.4940 C.3   617  PRO617      0.0207
    152  CD         3.6760   19.2380   -0.1680 C.3   617  PRO617      0.0892
    153  N         -1.8080   14.6790    0.1080 N.3   622  HIS622     -0.1226
    154  CA        -1.3300   15.9410   -0.4570 C.3   622  HIS622      0.1752
    155  C         -1.6200   17.1160    0.4730 C.2   622  HIS622      0.2596
    156  O         -1.1030   18.2150    0.2730 O.2   622  HIS622     -0.2718
    157  CB        -1.9060   16.1770   -1.8740 C.3   622  HIS622      0.0759
    158  CG        -3.2060   16.9280   -1.9050 C.ar  622  HIS622      0.0818
    159  ND1       -4.4380   16.2960   -1.9010 N.ar  622  HIS622     -0.2268
    160  CD2       -3.4750   18.2570   -1.9860 C.ar  622  HIS622      0.1154
    161  CE1       -5.3980   17.2020   -1.9510 C.ar  622  HIS622      0.1986
    162  NE2       -4.8430   18.3980   -2.0190 N.ar  622  HIS622     -0.2212
    163  N         -2.4120   16.8660    1.5150 N.am  623  THR623     -0.1953
    164  CA        -2.8590   17.9230    2.4280 C.3   623  THR623      0.1897
    165  C         -1.9110   18.1280    3.6170 C.2   623  THR623      0.2313
    166  O         -2.1380   18.9950    4.4790 O.2   623  THR623     -0.2863
    167  CB        -4.2890   17.6290    2.9380 C.3   623  THR623      0.1794
    168  OG1       -4.2390   16.6430    3.9740 O.3   623  THR623     -0.2208
    169  CG2       -5.1620   17.0980    1.7950 C.3   623  THR623      0.0378
    170  N          0.7100   19.2270    6.2150 N.3   625  VAL625     -0.1245
    171  CA         1.5480   20.3620    6.5920 C.3   625  VAL625      0.1561
    172  C          2.3710   19.9780    7.8340 C.2   625  VAL625      0.2260
    173  O          2.0310   19.0220    8.5360 O.2   625  VAL625     -0.2867
    174  CB         0.7080   21.6170    6.8960 C.3   625  VAL625      0.0252
    175  CG1       -0.0680   22.0620    5.6660 C.3   625  VAL625      0.0019
    176  CG2       -0.2430   21.3440    8.0410 C.3   625  VAL625      0.0019
@<TRIPOS>BOND
     1     1     2    1
     2     3     2    1
     3     3     4    2
     4     2     5    1
     5    11    12    1
     6     5     6    1
     7     6     8   ar
     8     6     7   ar
     9     8    10   ar
    10    13    12    1
    11    13    14    2
    12     7     9   ar
    13    10     9   ar
    14    18    19    1
    15    12    15    1
    16    16    15    1
    17    76    75    1
    18    55    54    2
    19    15    17    1
    20    52    53    1
    21    54    53    1
    22    53    56    1
    23    72    71    1
    24    72    75    1
    25    72    73    1
    26    19    20    1
    27    19    22    1
    28    77    75    1
    29    58    60   ar
    30    58    57   ar
    31    60    62   ar
    32    20    21    2
    33    22    23    1
    34    74    73    2
    35    73    78   am
    36    56    57    1
    37    57    59   ar
    38    62    61   ar
    39    89    88    1
    40    41    40    2
    41    84    85    1
    42    63    64    1
    43    59    61   ar
    44    23    24   ar
    45    23    25   ar
    46    85    88    1
    47    85    86    1
    48    78    79    1
    49    40    39    1
    50    24    26   ar
    51    44    45    1
    52    30    31    1
    53    64    65    1
    54    64    67    1
    55    47    46    2
    56    46    45    1
    57    66    65    2
    58    39    42    1
    59    39    38    1
    60    33    32    2
    61    25    27   ar
    62    45    48    1
    63    80    79    1
    64    80    81    2
    65    79    82    1
    66    86    90   am
    67    86    87    2
    68    42    43    1
    69    68    67    1
    70    68    70    1
    71    90    91    1
    72    31    32    1
    73    26    28   ar
    74    67    69    1
    75    32    34   am
    76    27    28   ar
    77    92    93    2
    78    92    91    1
    79    48    49    1
    80    51    49    1
    81    82    83    1
    82    28    29    1
    83    91    94    1
    84   109   107   ar
    85   109   110   ar
    86    34    35    1
    87    36    35    1
    88    36    37    2
    89    49    50    1
    90   111   110    1
    91   107   105   ar
    92   134   135   ar
    93   134   132   ar
    94   110   108   ar
    95   135   133   ar
    96    94    95    1
    97    97    95   ar
    98    97    99   ar
    99   105   104    1
   100   105   106   ar
   101    95    96   ar
   102   108   106   ar
   103   132   130   ar
   104   104   101    1
   105   133   131   ar
   106    99    98   ar
   107   162   160   ar
   108   162   161   ar
   109    96    98   ar
   110   124   123    1
   111   160   158   ar
   112   161   159   ar
   113   158   159   ar
   114   158   157    1
   115   157   154    1
   116   130   131   ar
   117   130   129    1
   118   151   150    1
   119   151   152    1
   120   101   100    1
   121   101   102    1
   122   150   147    1
   123   103   102    2
   124   123   120    1
   125   149   148    2
   126   154   153    1
   127   154   155    1
   128   148   147    1
   129   129   126    1
   130   152   146    1
   131   119   120    1
   132   147   146    1
   133   156   155    2
   134   120   121    1
   135   125   126    1
   136   125   121   am
   137   155   163   am
   138   126   127    1
   139   121   122    2
   140   163   164    1
   141   140   141    1
   142   140   137    1
   143   169   167    1
   144   139   138    2
   145   141   143   ar
   146   141   142   ar
   147   127   128    2
   148   112   113    1
   149   143   145   ar
   150   142   144   ar
   151   164   167    1
   152   164   165    1
   153   138   137    1
   154   145   144   ar
   155   137   136    1
   156   167   168    1
   157   114   113    1
   158   114   115    2
   159   113   116    1
   160   165   166    2
   161   118   116    1
   162   116   117    1
   163   175   174    1
   164   170   171    1
   165   171   174    1
   166   171   172    1
   167   174   176    1
   168   172   173    2
