@<TRIPOS>MOLECULE
tmp/4lm8A06.pdb
 225 214 0 0 0
SMALL
GASTEIGER

@<TRIPOS>ATOM
      1  N          0.0950   16.4110  -38.5230 N.3   331  GLU331     -0.1245
      2  CA         0.2640   17.7490  -37.9730 C.3   331  GLU331      0.1567
      3  C          1.5310   17.8360  -37.1320 C.2   331  GLU331      0.2260
      4  O          1.8810   16.8900  -36.4320 O.2   331  GLU331     -0.2867
      5  CB        -0.9830   18.1930  -37.1870 C.3   331  GLU331      0.0388
      6  CG        -1.3900   17.2920  -36.0240 C.3   331  GLU331      0.1160
      7  CD        -2.7090   17.7240  -35.3760 C.2   331  GLU331      0.3649
      8  OE1       -3.6460   16.9020  -35.3550 O.co2 331  GLU331     -0.2457
      9  OE2       -2.8070   18.8760  -34.8860 O.co2 331  GLU331     -0.2457
     10  N          3.5780   20.3410  -34.3800 N.3   333  ILE333     -0.1245
     11  CA         3.5180   21.5000  -33.4930 C.3   333  ILE333      0.1561
     12  C          4.8510   21.6430  -32.7600 C.2   333  ILE333      0.2260
     13  O          5.3120   20.7000  -32.1050 O.2   333  ILE333     -0.2867
     14  CB         2.3800   21.3870  -32.4340 C.3   333  ILE333      0.0252
     15  CG1        1.0580   20.9370  -33.0600 C.3   333  ILE333      0.0019
     16  CG2        2.1830   22.7210  -31.7260 C.3   333  ILE333      0.0019
     17  CD1        0.7590   19.4370  -32.9010 C.3   333  ILE333      0.0001
     18  N          0.6290   29.8020  -26.9130 N.3   345  TYR345     -0.1241
     19  CA        -0.2270   29.0990  -27.8540 C.3   345  TYR345      0.1605
     20  C         -0.2350   29.8190  -29.1960 C.2   345  TYR345      0.2264
     21  O         -0.1430   29.1880  -30.2390 O.2   345  TYR345     -0.2867
     22  CB        -1.6510   28.9960  -27.3050 C.3   345  TYR345      0.0534
     23  CG        -2.6070   28.1970  -28.1660 C.ar  345  TYR345     -0.0201
     24  CD1       -2.6700   26.8060  -28.0730 C.ar  345  TYR345     -0.0009
     25  CD2       -3.4650   28.8370  -29.0530 C.ar  345  TYR345     -0.0009
     26  CE1       -3.5530   26.0850  -28.8510 C.ar  345  TYR345      0.0417
     27  CE2       -4.3490   28.1270  -29.8330 C.ar  345  TYR345      0.0417
     28  CZ        -4.3920   26.7560  -29.7290 C.ar  345  TYR345      0.1957
     29  OH        -5.2830   26.0610  -30.5120 O.3   345  TYR345     -0.2866
     30  N          3.3570   29.4310  -31.0340 N.3   348  LYS348     -0.1245
     31  CA         3.8670   28.1160  -31.4080 C.3   348  LYS348      0.1561
     32  C          3.8520   27.9910  -32.9320 C.2   348  LYS348      0.2260
     33  O          3.0420   28.6330  -33.6030 O.2   348  LYS348     -0.2867
     34  CB         2.9960   27.0140  -30.7980 C.3   348  LYS348      0.0271
     35  CG         1.6160   26.8850  -31.4680 C.3   348  LYS348      0.0035
     36  CD         0.6700   25.9720  -30.6870 C.3   348  LYS348      0.0206
     37  CE        -0.6520   25.7670  -31.4320 C.3   348  LYS348      0.1093
     38  NZ        -1.3280   27.0630  -31.7350 N.3   348  LYS348     -0.1314
     39  N          5.9470   18.0640  -31.6350 N.3   394  PHE394     -0.1241
     40  CA         4.9620   16.9990  -31.4490 C.3   394  PHE394      0.1605
     41  C          4.3360   16.7240  -32.8200 C.2   394  PHE394      0.2264
     42  O          3.8240   17.6530  -33.4790 O.2   394  PHE394     -0.2867
     43  CB         3.8960   17.5070  -30.4720 C.3   394  PHE394      0.0534
     44  CG         2.9580   16.4350  -29.9190 C.ar  394  PHE394     -0.0203
     45  CD1        3.2970   15.0880  -29.9190 C.ar  394  PHE394     -0.0042
     46  CD2        1.7340   16.8110  -29.3910 C.ar  394  PHE394     -0.0042
     47  CE1        2.4180   14.1280  -29.3910 C.ar  394  PHE394     -0.0003
     48  CE2        0.8470   15.8700  -28.8640 C.ar  394  PHE394     -0.0003
     49  CZ         1.1910   14.5240  -28.8720 C.ar  394  PHE394     -0.0000
     50  N          1.4360    8.0040  -19.1500 N.3   449  MET449     -0.1245
     51  CA         0.3140    7.5280  -19.9390 C.3   449  MET449      0.1570
     52  C         -0.2720    6.2070  -19.4430 C.2   449  MET449      0.2261
     53  O         -1.4300    5.8920  -19.7380 O.2   449  MET449     -0.2867
     54  CB         0.7400    7.3880  -21.4010 C.3   449  MET449      0.0387
     55  CG        -0.3820    7.0470  -22.3640 C.3   449  MET449      0.0595
     56  SD        -1.6720    8.3080  -22.4450 S.3   449  MET449     -0.1393
     57  CE        -0.7090    9.7450  -22.7280 C.3   449  MET449      0.0692
     58  N         -6.3340   10.7930  -28.4370 N.3   462  ILE462     -0.1231
     59  CA        -6.5810   12.0720  -27.7690 C.3   462  ILE462      0.1692
     60  C         -6.8320   13.2300  -28.7400 C.2   462  ILE462      0.2592
     61  O         -6.0500   13.4500  -29.6650 O.2   462  ILE462     -0.2718
     62  CB        -5.4160   12.4090  -26.8110 C.3   462  ILE462      0.0266
     63  CG1       -5.2540   11.2800  -25.8000 C.3   462  ILE462      0.0019
     64  CG2       -5.6620   13.7470  -26.0950 C.3   462  ILE462      0.0020
     65  CD1       -4.0520   11.4370  -24.8780 C.3   462  ILE462      0.0001
     66  N         -7.9370   13.9490  -28.5220 N.am  463  HIS463     -0.1976
     67  CA        -8.3280   15.1060  -29.3430 C.3   463  HIS463      0.1656
     68  C         -8.8000   14.7640  -30.7660 C.2   463  HIS463      0.2291
     69  O         -8.9630   15.6670  -31.5810 O.2   463  HIS463     -0.2864
     70  CB        -7.2060   16.1610  -29.4130 C.3   463  HIS463      0.0771
     71  CG        -7.0100   16.9370  -28.1460 C.ar  463  HIS463      0.0820
     72  ND1       -7.9560   16.9780  -27.1440 N.ar  463  HIS463     -0.2267
     73  CD2       -5.9750   17.7010  -27.7160 C.ar  463  HIS463      0.1154
     74  CE1       -7.5120   17.7360  -26.1530 C.ar  463  HIS463      0.1986
     75  NE2       -6.3160   18.1860  -26.4770 N.ar  463  HIS463     -0.2212
     76  N        -10.7690   19.0740  -35.0140 N.3   467  GLN467     -0.1231
     77  CA        -9.6070   19.9110  -34.7530 C.3   467  GLN467      0.1698
     78  C         -8.2650   19.1970  -34.9100 C.2   467  GLN467      0.2592
     79  O         -7.2670   19.8360  -35.2440 O.2   467  GLN467     -0.2718
     80  CB        -9.7170   20.5280  -33.3600 C.3   467  GLN467      0.0381
     81  CG        -9.6540   22.0360  -33.3600 C.3   467  GLN467      0.0905
     82  CD       -10.6180   22.6570  -34.3490 C.2   467  GLN467      0.2608
     83  OE1      -11.7870   22.2690  -34.4290 O.2   467  GLN467     -0.2717
     84  NE2      -10.1300   23.6300  -35.1130 N.am  467  GLN467     -0.0878
     85  N         -8.2260   17.8890  -34.6630 N.am  468  HIS468     -0.1976
     86  CA        -6.9520   17.1610  -34.6740 C.3   468  HIS468      0.1656
     87  C         -7.0450   15.7090  -35.1320 C.2   468  HIS468      0.2291
     88  O         -8.1010   15.0780  -35.0350 O.2   468  HIS468     -0.2864
     89  CB        -6.3030   17.2210  -33.2880 C.3   468  HIS468      0.0771
     90  CG        -6.1010   18.6100  -32.7900 C.ar  468  HIS468      0.0820
     91  ND1       -5.1160   19.4480  -33.2920 N.ar  468  HIS468     -0.2267
     92  CD2       -6.7770   19.3460  -31.8770 C.ar  468  HIS468      0.1154
     93  CE1       -5.1920   20.6170  -32.6990 C.ar  468  HIS468      0.1986
     94  NE2       -6.1940   20.5850  -31.8300 N.ar  468  HIS468     -0.2212
     95  N         -4.1270   11.8930  -31.1510 N.3   471  PHE471     -0.1241
     96  CA        -2.7910   11.5390  -30.6890 C.3   471  PHE471      0.1605
     97  C         -2.8030   10.2320  -29.8980 C.2   471  PHE471      0.2264
     98  O         -3.3270   10.1870  -28.7820 O.2   471  PHE471     -0.2867
     99  CB        -2.2020   12.6330  -29.7830 C.3   471  PHE471      0.0534
    100  CG        -2.1270   14.0070  -30.4100 C.ar  471  PHE471     -0.0203
    101  CD1       -1.1110   14.3270  -31.3070 C.ar  471  PHE471     -0.0042
    102  CD2       -3.0290   14.9960  -30.0500 C.ar  471  PHE471     -0.0042
    103  CE1       -1.0220   15.6030  -31.8650 C.ar  471  PHE471     -0.0003
    104  CE2       -2.9550   16.2730  -30.6050 C.ar  471  PHE471     -0.0003
    105  CZ        -1.9460   16.5750  -31.5150 C.ar  471  PHE471     -0.0000
    106  N         -0.5930    7.7730  -27.7420 N.3   473  MET473     -0.1245
    107  CA         0.6610    7.9700  -27.0100 C.3   473  MET473      0.1570
    108  C          1.3470    6.6710  -26.6110 C.2   473  MET473      0.2261
    109  O          0.8000    5.8790  -25.8350 O.2   473  MET473     -0.2867
    110  CB         0.3960    8.8200  -25.7760 C.3   473  MET473      0.0387
    111  CG        -0.3130   10.1330  -26.1100 C.3   473  MET473      0.0595
    112  SD         0.7990   11.3060  -26.9130 S.3   473  MET473     -0.1393
    113  CE         1.7840   11.8810  -25.5320 C.3   473  MET473      0.0692
    114  N          3.7200   12.7980  -20.8410 N.3   491  LEU491     -0.1245
    115  CA         2.7650   13.7080  -21.4620 C.3   491  LEU491      0.1561
    116  C          3.4490   15.0370  -21.7720 C.2   491  LEU491      0.2260
    117  O          2.7870   16.0450  -22.0150 O.2   491  LEU491     -0.2867
    118  CB         1.5520   13.9390  -20.5570 C.3   491  LEU491      0.0270
    119  CG         0.5230   12.8240  -20.3490 C.3   491  LEU491      0.0019
    120  CD1        1.0830   11.6900  -19.5210 C.3   491  LEU491      0.0001
    121  CD2       -0.7030   13.4010  -19.6740 C.3   491  LEU491      0.0001
    122  N          2.5690   17.2940  -24.8260 N.3   494  CYS494     -0.1235
    123  CA         1.3240   18.0620  -24.8020 C.3   494  CYS494      0.1677
    124  C          1.5590   19.5320  -24.4740 C.2   494  CYS494      0.2270
    125  O          0.7050   20.3770  -24.7500 O.2   494  CYS494     -0.2867
    126  CB         0.3290   17.4680  -23.7990 C.3   494  CYS494      0.0956
    127  SG         0.1950   15.6580  -23.8420 S.3   494  CYS494     -0.0801
    128  N          3.4770   21.4740  -25.9130 N.3   496  THR496     -0.1203
    129  CA         3.5370   22.2750  -27.1560 C.3   496  THR496      0.1994
    130  C          2.3610   23.2550  -27.2800 C.2   496  THR496      0.2618
    131  O          2.5410   24.4220  -27.6730 O.2   496  THR496     -0.2717
    132  CB         3.5910   21.4070  -28.4240 C.3   496  THR496      0.1784
    133  OG1        2.5450   20.4270  -28.3780 O.3   496  THR496     -0.2211
    134  CG2        4.9410   20.7110  -28.5570 C.3   496  THR496      0.0376
    135  N          1.1580   22.7840  -26.9460 N.am  497  CYS497     -0.1955
    136  CA        -0.0300   23.6410  -26.9280 C.3   497  CYS497      0.1843
    137  C         -0.4610   24.0510  -25.5310 C.2   497  CYS497      0.2625
    138  O         -1.0180   25.1420  -25.3430 O.2   497  CYS497     -0.2714
    139  CB        -1.2180   22.9430  -27.5780 C.3   497  CYS497      0.0997
    140  SG        -1.0900   22.7730  -29.3210 S.3   497  CYS497     -0.0797
    141  N         -0.2500   23.1590  -24.5620 N.am  498  HIS498     -0.1973
    142  CA        -0.6410   23.4340  -23.1790 C.3   498  HIS498      0.1656
    143  C          0.4510   24.1780  -22.4190 C.2   498  HIS498      0.2291
    144  O          1.0940   23.6440  -21.5000 O.2   498  HIS498     -0.2864
    145  CB        -1.1230   22.1550  -22.4780 C.3   498  HIS498      0.0771
    146  CG        -2.4190   21.6490  -23.0430 C.ar  498  HIS498      0.0820
    147  ND1       -3.6300   22.2090  -22.7170 N.ar  498  HIS498     -0.2267
    148  CD2       -2.6740   20.6780  -23.9560 C.ar  498  HIS498      0.1154
    149  CE1       -4.5940   21.5910  -23.3940 C.ar  498  HIS498      0.1986
    150  NE2       -4.0400   20.6630  -24.1440 N.ar  498  HIS498     -0.2212
    151  N         -3.9590   28.1660  -23.5460 N.3   503  THR503     -0.1203
    152  CA        -4.2950   27.7100  -24.8960 C.3   503  THR503      0.1994
    153  C         -4.8790   28.8840  -25.7050 C.2   503  THR503      0.2617
    154  O         -4.3420   29.9840  -25.6360 O.2   503  THR503     -0.2717
    155  CB        -5.2270   26.4890  -24.8690 C.3   503  THR503      0.1784
    156  OG1       -6.3030   26.7340  -23.9620 O.3   503  THR503     -0.2211
    157  CG2       -4.4660   25.2500  -24.3970 C.3   503  THR503      0.0376
    158  N         -5.9610   28.6800  -26.4570 N.am  504  TYR504     -0.1975
    159  CA        -6.4690   29.7530  -27.3340 C.3   504  TYR504      0.1639
    160  C         -7.0710   30.9590  -26.6050 C.2   504  TYR504      0.2290
    161  O         -7.1680   32.0530  -27.1650 O.2   504  TYR504     -0.2864
    162  CB        -7.4530   29.2200  -28.3940 C.3   504  TYR504      0.0560
    163  CG        -8.7270   28.6130  -27.8510 C.ar  504  TYR504     -0.0198
    164  CD1       -9.7440   29.4100  -27.3220 C.ar  504  TYR504     -0.0009
    165  CD2       -8.9330   27.2470  -27.9070 C.ar  504  TYR504     -0.0009
    166  CE1      -10.9070   28.8500  -26.8410 C.ar  504  TYR504      0.0417
    167  CE2      -10.0870   26.6840  -27.4320 C.ar  504  TYR504      0.0417
    168  CZ       -11.0670   27.4830  -26.8970 C.ar  504  TYR504      0.1957
    169  OH       -12.2190   26.8990  -26.4290 O.3   504  TYR504     -0.2866
    170  N         -8.8780   29.7280  -20.0050 N.3   508  ASN508     -0.1240
    171  CA        -9.0330   28.2720  -20.0410 C.3   508  ASN508      0.1653
    172  C         -8.2360   27.4820  -19.0010 C.2   508  ASN508      0.2266
    173  O         -8.4310   26.2630  -18.8880 O.2   508  ASN508     -0.2867
    174  CB        -8.6210   27.7270  -21.4190 C.3   508  ASN508      0.1155
    175  CG        -9.5530   28.1490  -22.5380 C.2   508  ASN508      0.2627
    176  OD1      -10.6760   28.5840  -22.3030 O.2   508  ASN508     -0.2716
    177  ND2       -9.0870   27.9940  -23.7770 N.am  508  ASN508     -0.0877
    178  N         -5.2570   26.7020  -19.5460 N.3   510  GLY510     -0.1225
    179  CA        -4.7050   25.7680  -20.5150 C.3   510  GLY510      0.1811
    180  C         -3.3370   25.1720  -20.2420 C.2   510  GLY510      0.2280
    181  O         -2.9950   24.1570  -20.8420 O.2   510  GLY510     -0.2866
    182  N         -0.4660   22.8820  -18.9400 N.3   512  LEU512     -0.1245
    183  CA        -0.6160   21.4580  -18.6280 C.3   512  LEU512      0.1561
    184  C         -0.6990   21.1770  -17.1190 C.2   512  LEU512      0.2260
    185  O         -1.4320   20.2740  -16.6930 O.2   512  LEU512     -0.2867
    186  CB         0.5020   20.6250  -19.2640 C.3   512  LEU512      0.0270
    187  CG         0.1650   19.1260  -19.2680 C.3   512  LEU512      0.0019
    188  CD1       -0.8540   18.7870  -20.3450 C.3   512  LEU512      0.0001
    189  CD2        1.4350   18.2670  -19.4280 C.3   512  LEU512      0.0001
    190  N         -4.4640   22.0370  -16.5720 N.3   515  LYS515     -0.1231
    191  CA        -5.5690   21.5840  -17.4240 C.3   515  LYS515      0.1693
    192  C         -6.0970   20.2000  -17.0620 C.2   515  LYS515      0.2591
    193  O         -7.3090   19.9860  -17.0230 O.2   515  LYS515     -0.2718
    194  CB        -5.1960   21.6690  -18.9140 C.3   515  LYS515      0.0285
    195  CG        -6.2160   21.0510  -19.9030 C.3   515  LYS515      0.0035
    196  CD        -7.6190   21.6630  -19.8050 C.3   515  LYS515      0.0206
    197  CE        -7.6160   23.1720  -19.8870 C.3   515  LYS515      0.1093
    198  NZ        -9.0150   23.7070  -19.9480 N.3   515  LYS515     -0.1314
    199  N         -5.2100   19.2550  -16.8050 N.am  516  LEU516     -0.1980
    200  CA        -5.6790   17.9150  -16.4530 C.3   516  LEU516      0.1596
    201  C         -6.4520   17.9560  -15.1400 C.2   516  LEU516      0.2287
    202  O         -7.4930   17.3010  -14.9980 O.2   516  LEU516     -0.2864
    203  CB        -4.5220   16.9100  -16.3930 C.3   516  LEU516      0.0297
    204  CG        -4.2450   16.2140  -17.7280 C.3   516  LEU516      0.0022
    205  CD1       -5.4270   15.3620  -18.1870 C.3   516  LEU516      0.0001
    206  CD2       -3.8300   17.2100  -18.8240 C.3   516  LEU516      0.0001
    207  N        -10.0310   19.6580  -15.8720 N.3   519  LYS519     -0.1231
    208  CA       -10.9670   18.7750  -16.5630 C.3   519  LYS519      0.1693
    209  C        -11.4670   17.6650  -15.6460 C.2   519  LYS519      0.2592
    210  O        -12.6660   17.3710  -15.5980 O.2   519  LYS519     -0.2718
    211  CB       -10.3140   18.1630  -17.8030 C.3   519  LYS519      0.0285
    212  CG       -11.1510   17.0510  -18.4590 C.3   519  LYS519      0.0035
    213  CD       -12.5040   17.5770  -18.9590 C.3   519  LYS519      0.0206
    214  CE       -13.2780   16.4760  -19.6740 C.3   519  LYS519      0.1093
    215  NZ       -14.5820   16.9860  -20.1980 N.3   519  LYS519     -0.1314
    216  N        -10.5540   17.0490  -14.9120 N.am  520  HIS520     -0.1976
    217  CA       -10.9280   15.8880  -14.1070 C.3   520  HIS520      0.1656
    218  C        -11.6250   16.2230  -12.7810 C.2   520  HIS520      0.2291
    219  O        -12.5400   15.5030  -12.3600 O.2   520  HIS520     -0.2864
    220  CB        -9.7380   14.9270  -13.9720 C.3   520  HIS520      0.0771
    221  CG        -9.3840   14.2610  -15.2670 C.ar  520  HIS520      0.0820
    222  ND1       -8.6450   14.8840  -16.2460 N.ar  520  HIS520     -0.2267
    223  CD2       -9.7300   13.0470  -15.7630 C.ar  520  HIS520      0.1154
    224  CE1       -8.5170   14.0660  -17.2830 C.ar  520  HIS520      0.1986
    225  NE2       -9.1650   12.9500  -17.0140 N.ar  520  HIS520     -0.2212
@<TRIPOS>BOND
     1     1     2    1
     2     2     5    1
     3     2     3    1
     4     5     6    1
     5     3     4    2
     6     6     7    1
     7     7     8   ar
     8     7     9   ar
     9    79    78    2
    10    87    88    2
    11    87    86    1
    12    84    82   am
    13    76    77    1
    14    78    77    1
    15    78    85   am
    16    77    80    1
    17    86    85    1
    18    86    89    1
    19    83    82    2
    20    10    11    1
    21    82    81    1
    22    33    32    2
    23    11    12    1
    24    11    14    1
    25    42    41    2
    26    80    81    1
    27    91    90   ar
    28    91    93   ar
    29    89    90    1
    30    15    17    1
    31    15    14    1
    32    32    31    1
    33    41    40    1
    34    90    92   ar
    35    12    13    2
    36    93    94   ar
    37    14    16    1
    38    92    94   ar
    39   103   105   ar
    40   103   101   ar
    41    38    37    1
    42    39    40    1
    43    69    68    2
    44   105   104   ar
    45    35    34    1
    46    35    36    1
    47    40    43    1
    48    37    36    1
    49    31    30    1
    50    31    34    1
    51   101   100   ar
    52    95    96    1
    53    68    67    1
    54    96    97    1
    55    96    99    1
    56   104   102   ar
    57    29    28    1
    58    43    44    1
    59   100   102   ar
    60   100    99    1
    61    21    20    2
    62    44    45   ar
    63    44    46   ar
    64    45    47   ar
    65    97    98    2
    66    27    28   ar
    67    27    25   ar
    68    28    26   ar
    69    61    60    2
    70    70    67    1
    71    70    71    1
    72    46    48   ar
    73    47    49   ar
    74    67    66    1
    75   140   139    1
    76    20    19    1
    77    25    23   ar
    78    49    48   ar
    79    26    24   ar
    80    60    66   am
    81    60    59    1
    82   134   132    1
    83    58    59    1
    84   132   133    1
    85   132   129    1
    86   162   163    1
    87   162   159    1
    88    23    24   ar
    89    23    22    1
    90    71    73   ar
    91    71    72   ar
    92   165   163   ar
    93   165   167   ar
    94    19    22    1
    95    19    18    1
    96   163   164   ar
    97    59    62    1
    98   106   107    1
    99    73    75   ar
   100   131   130    2
   101   139   136    1
   102   167   168   ar
   103   159   160    1
   104   159   158    1
   105   164   166   ar
   106   130   129    1
   107   130   135   am
   108   161   160    2
   109   129   128    1
   110    72    74   ar
   111   107   108    1
   112   107   110    1
   113   135   136    1
   114   136   137    1
   115   112   111    1
   116   112   113    1
   117   168   166   ar
   118   168   169    1
   119    62    64    1
   120    62    63    1
   121   108   109    2
   122    75    74   ar
   123   158   153   am
   124   111   110    1
   125    63    65    1
   126   153   154    2
   127   153   152    1
   128   137   138    2
   129   137   141   am
   130   152   155    1
   131   152   151    1
   132   155   157    1
   133   155   156    1
   134   122   123    1
   135   123   124    1
   136   123   126    1
   137   125   124    2
   138   141   142    1
   139   150   148   ar
   140   150   149   ar
   141   148   146   ar
   142   127   126    1
   143   177   175   am
   144   149   147   ar
   145   142   145    1
   146   142   143    1
   147   146   147   ar
   148   146   145    1
   149    57    56    1
   150   175   176    2
   151   175   174    1
   152    56    55    1
   153   143   144    2
   154    55    54    1
   155   117   116    2
   156   116   115    1
   157   115   114    1
   158   115   118    1
   159   174   171    1
   160    54    51    1
   161   181   180    2
   162   118   119    1
   163   179   180    1
   164   179   178    1
   165   119   121    1
   166   119   120    1
   167   188   187    1
   168   215   214    1
   169   171   170    1
   170   171   172    1
   171   198   197    1
   172    51    52    1
   173    51    50    1
   174   195   196    1
   175   195   194    1
   176   197   196    1
   177    53    52    2
   178   214   213    1
   179   189   187    1
   180   187   186    1
   181   186   183    1
   182   172   173    2
   183   213   212    1
   184   182   183    1
   185   194   191    1
   186   206   204    1
   187   183   184    1
   188   212   211    1
   189   205   204    1
   190   211   208    1
   191   204   203    1
   192   191   192    1
   193   191   190    1
   194   224   225   ar
   195   224   222   ar
   196   184   185    2
   197   192   193    2
   198   192   199   am
   199   225   223   ar
   200   199   200    1
   201   208   207    1
   202   208   209    1
   203   200   203    1
   204   200   201    1
   205   222   221   ar
   206   223   221   ar
   207   209   210    2
   208   209   216   am
   209   221   220    1
   210   201   202    2
   211   216   217    1
   212   217   220    1
   213   217   218    1
   214   218   219    2
