@<TRIPOS>MOLECULE
tmp/4lm8A04.pdb
 146 142 0 0 0
SMALL
GASTEIGER

@<TRIPOS>ATOM
      1  N        -25.9860  -16.3940  -22.4860 N.3   233  PRO233     -0.2102
      2  CA       -26.9430  -15.3240  -22.8110 C.3   233  PRO233      0.1504
      3  C        -28.2870  -15.5520  -22.1180 C.2   233  PRO233      0.2576
      4  O        -28.7870  -16.6870  -22.1170 O.2   233  PRO233     -0.2718
      5  CB       -27.1000  -15.4390  -24.3330 C.3   233  PRO233      0.0282
      6  CG       -26.8280  -16.9190  -24.6250 C.3   233  PRO233      0.0208
      7  CD       -25.7510  -17.3140  -23.6170 C.3   233  PRO233      0.0893
      8  N        -28.8450  -14.5090  -21.5000 N.am  234  THR234     -0.1939
      9  CA       -30.1850  -14.5850  -20.9040 C.3   234  THR234      0.2028
     10  C        -30.9300  -13.2790  -21.1440 C.2   234  THR234      0.2642
     11  O        -30.3070  -12.2250  -21.2870 O.2   234  THR234     -0.2714
     12  CB       -30.1660  -14.8850  -19.3840 C.3   234  THR234      0.1808
     13  OG1      -29.5040  -13.8220  -18.6760 O.3   234  THR234     -0.2208
     14  CG2      -29.4500  -16.2090  -19.0760 C.3   234  THR234      0.0379
     15  N        -32.2580  -13.3260  -21.1730 N.am  235  MET235     -0.1976
     16  CA       -33.0010  -12.0760  -21.3530 C.3   235  MET235      0.1605
     17  C        -32.7490  -11.0970  -20.2040 C.2   235  MET235      0.2287
     18  O        -32.7020   -9.8740  -20.4190 O.2   235  MET235     -0.2864
     19  CB       -34.5000  -12.3350  -21.5580 C.3   235  MET235      0.0413
     20  CG       -35.2060  -12.9810  -20.4010 C.3   235  MET235      0.0598
     21  SD       -36.9370  -13.2810  -20.8450 S.3   235  MET235     -0.1393
     22  CE       -36.7620  -14.5210  -22.1360 C.3   235  MET235      0.0692
     23  N        -28.9690   -9.6020  -20.9380 N.3   238  CYS238     -0.1235
     24  CA       -28.8000   -8.9500  -22.2410 C.3   238  CYS238      0.1677
     25  C        -29.7230   -7.7310  -22.4210 C.2   238  CYS238      0.2270
     26  O        -29.3890   -6.7730  -23.1310 O.2   238  CYS238     -0.2867
     27  CB       -28.9740   -9.9600  -23.3920 C.3   238  CYS238      0.0956
     28  SG       -27.8920  -11.4280  -23.2950 S.3   238  CYS238     -0.0801
     29  N        -29.7480   -3.7550  -24.0840 N.3   242  HIS242     -0.1241
     30  CA       -30.6760   -3.9050  -25.2030 C.3   242  HIS242      0.1621
     31  C        -32.1000   -3.6710  -24.6840 C.2   242  HIS242      0.2264
     32  O        -32.8700   -4.6130  -24.4620 O.2   242  HIS242     -0.2867
     33  CB       -30.5010   -5.2730  -25.9010 C.3   242  HIS242      0.0745
     34  CG       -29.1680   -5.4490  -26.5650 C.ar  242  HIS242      0.0817
     35  ND1      -28.9240   -5.0660  -27.8760 N.ar  242  HIS242     -0.2268
     36  CD2      -27.9910   -5.9450  -26.1060 C.ar  242  HIS242      0.1154
     37  CE1      -27.6730   -5.3280  -28.1880 C.ar  242  HIS242      0.1986
     38  NE2      -27.0790   -5.8700  -27.1330 N.ar  242  HIS242     -0.2212
     39  N        -36.1440   -4.2690  -26.7040 N.3   245  ILE245     -0.1245
     40  CA       -36.7340   -5.5680  -27.0170 C.3   245  ILE245      0.1561
     41  C        -37.7310   -5.9990  -25.9490 C.2   245  ILE245      0.2260
     42  O        -37.4840   -5.8190  -24.7530 O.2   245  ILE245     -0.2867
     43  CB       -35.6640   -6.6690  -27.1050 C.3   245  ILE245      0.0252
     44  CG1      -34.5450   -6.2630  -28.0540 C.3   245  ILE245      0.0019
     45  CG2      -36.2930   -7.9820  -27.5500 C.3   245  ILE245      0.0019
     46  CD1      -33.5260   -7.3610  -28.2520 C.3   245  ILE245      0.0001
     47  N        -39.0860   -9.5540  -25.2660 N.3   247  PHE247     -0.1241
     48  CA       -39.0500  -10.9720  -25.6270 C.3   247  PHE247      0.1605
     49  C        -40.4060  -11.6470  -25.4450 C.2   247  PHE247      0.2264
     50  O        -40.7620  -12.5490  -26.1970 O.2   247  PHE247     -0.2867
     51  CB       -38.0010  -11.7130  -24.7950 C.3   247  PHE247      0.0534
     52  CG       -36.5810  -11.3480  -25.1360 C.ar  247  PHE247     -0.0203
     53  CD1      -35.9330  -11.9600  -26.2000 C.ar  247  PHE247     -0.0042
     54  CD2      -35.8910  -10.4100  -24.3790 C.ar  247  PHE247     -0.0042
     55  CE1      -34.6210  -11.6380  -26.5190 C.ar  247  PHE247     -0.0003
     56  CE2      -34.5750  -10.0740  -24.6910 C.ar  247  PHE247     -0.0003
     57  CZ       -33.9400  -10.6870  -25.7600 C.ar  247  PHE247     -0.0000
     58  N        -39.4100   -6.4340  -31.6010 N.3   252  GLY252     -0.1210
     59  CA       -38.0020   -6.1560  -31.8350 C.3   252  GLY252      0.1956
     60  C        -37.1280   -7.4000  -31.8300 C.2   252  GLY252      0.2612
     61  O        -35.9010   -7.3190  -31.9670 O.2   252  GLY252     -0.2717
     62  N        -37.7680   -8.5570  -31.6820 N.am  253  HIS253     -0.1961
     63  CA       -37.0740   -9.8410  -31.6340 C.3   253  HIS253      0.1787
     64  C        -38.1590  -10.8960  -31.6630 C.2   253  HIS253      0.2620
     65  O        -39.3110  -10.6100  -31.3180 O.2   253  HIS253     -0.2715
     66  CB       -36.2930   -9.9690  -30.3200 C.3   253  HIS253      0.0785
     67  CG       -35.3250  -11.1120  -30.2770 C.ar  253  HIS253      0.0821
     68  ND1      -35.7110  -12.4160  -30.0200 N.ar  253  HIS253     -0.2267
     69  CD2      -33.9780  -11.1420  -30.4080 C.ar  253  HIS253      0.1154
     70  CE1      -34.6460  -13.1950  -30.0280 C.ar  253  HIS253      0.1986
     71  NE2      -33.5770  -12.4480  -30.2530 N.ar  253  HIS253     -0.2212
     72  N        -37.7980  -12.1120  -32.0620 N.am  254  SER254     -0.1950
     73  CA       -38.7270  -13.2330  -32.0120 C.3   254  SER254      0.1924
     74  C        -39.1660  -13.4430  -30.5700 C.2   254  SER254      0.2314
     75  O        -38.4430  -13.0920  -29.6350 O.2   254  SER254     -0.2863
     76  CB       -38.0740  -14.5010  -32.5740 C.3   254  SER254      0.2116
     77  OG       -36.9370  -14.8860  -31.8160 O.3   254  SER254     -0.2180
     78  N        -39.5270  -15.0120  -27.1480 N.3   256  GLN256     -0.1245
     79  CA       -38.8510  -16.0030  -26.3170 C.3   256  GLN256      0.1566
     80  C        -39.4670  -15.9400  -24.9220 C.2   256  GLN256      0.2260
     81  O        -39.4180  -14.8990  -24.2570 O.2   256  GLN256     -0.2867
     82  CB       -37.3330  -15.7370  -26.2510 C.3   256  GLN256      0.0367
     83  CG       -36.6380  -15.6450  -27.6150 C.3   256  GLN256      0.0905
     84  CD       -36.5960  -16.9700  -28.3490 C.2   256  GLN256      0.2608
     85  OE1      -36.4420  -18.0250  -27.7370 O.2   256  GLN256     -0.2717
     86  NE2      -36.7290  -16.9220  -29.6720 N.am  256  GLN256     -0.0878
     87  N        -38.6480  -17.9920  -22.3670 N.3   258  ASP258     -0.1225
     88  CA       -37.6470  -18.3520  -21.3670 C.3   258  ASP258      0.1805
     89  C        -36.2640  -18.2800  -22.0100 C.2   258  ASP258      0.2597
     90  O        -36.1380  -17.8430  -23.1550 O.2   258  ASP258     -0.2718
     91  CB       -37.9270  -19.7500  -20.7830 C.3   258  ASP258      0.1424
     92  CG       -37.9950  -20.8370  -21.8490 C.2   258  ASP258      0.3668
     93  OD1      -37.1860  -20.8210  -22.8000 O.co2 258  ASP258     -0.2456
     94  OD2      -38.8590  -21.7330  -21.7370 O.co2 258  ASP258     -0.2456
     95  N        -35.2360  -18.7260  -21.2960 N.am  259  ASN259     -0.1974
     96  CA       -33.8790  -18.6760  -21.8180 C.3   259  ASN259      0.1688
     97  C        -33.3960  -19.9770  -22.4390 C.2   259  ASN259      0.2292
     98  O        -32.1930  -20.1680  -22.5960 O.2   259  ASN259     -0.2864
     99  CB       -32.9090  -18.2630  -20.7050 C.3   259  ASN259      0.1181
    100  CG       -33.1770  -16.8680  -20.2050 C.2   259  ASN259      0.2629
    101  OD1      -33.3980  -15.9470  -20.9990 O.2   259  ASN259     -0.2716
    102  ND2      -33.1960  -16.7020  -18.8830 N.am  259  ASN259     -0.0877
    103  N        -33.4250  -21.2930  -25.4160 N.3   261  ASN261     -0.1225
    104  CA       -32.8300  -21.3410  -26.7480 C.3   261  ASN261      0.1785
    105  C        -31.8370  -20.2470  -27.1230 C.2   261  ASN261      0.2597
    106  O        -31.3380  -20.2510  -28.2520 O.2   261  ASN261     -0.2718
    107  CB       -33.9340  -21.3910  -27.8020 C.3   261  ASN261      0.1169
    108  CG       -34.7770  -22.6380  -27.6860 C.2   261  ASN261      0.2627
    109  OD1      -34.2710  -23.6950  -27.3180 O.2   261  ASN261     -0.2716
    110  ND2      -36.0620  -22.5240  -27.9890 N.am  261  ASN261     -0.0877
    111  N        -31.5610  -19.3100  -26.2180 N.am  262  CYS262     -0.1970
    112  CA       -30.6740  -18.1880  -26.5510 C.3   262  CYS262      0.1712
    113  C        -29.3260  -18.6580  -27.1120 C.2   262  CYS262      0.2296
    114  O        -28.8640  -18.1710  -28.1580 O.2   262  CYS262     -0.2864
    115  CB       -30.4180  -17.2950  -25.3230 C.3   262  CYS262      0.0983
    116  SG       -31.8690  -16.7980  -24.3380 S.3   262  CYS262     -0.0798
    117  N        -28.7870  -19.9380  -30.9190 N.3   265  CYS265     -0.1221
    118  CA       -28.5910  -18.9600  -31.9890 C.3   265  CYS265      0.1808
    119  C        -27.4350  -18.0230  -31.6740 C.2   265  CYS265      0.2601
    120  O        -26.6070  -17.7270  -32.5450 O.2   265  CYS265     -0.2717
    121  CB       -29.8560  -18.1360  -32.2130 C.3   265  CYS265      0.0970
    122  SG       -31.2530  -19.0970  -32.8600 S.3   265  CYS265     -0.0800
    123  N        -27.3960  -17.5410  -30.4350 N.am  266  HIS266     -0.1975
    124  CA       -26.3340  -16.6350  -30.0040 C.3   266  HIS266      0.1656
    125  C        -25.1670  -17.4440  -29.4520 C.2   266  HIS266      0.2291
    126  O        -24.9380  -17.4940  -28.2350 O.2   266  HIS266     -0.2864
    127  CB       -26.8700  -15.6180  -28.9810 C.3   266  HIS266      0.0771
    128  CG       -27.9250  -14.7150  -29.5370 C.ar  266  HIS266      0.0820
    129  ND1      -27.6280  -13.5910  -30.2960 N.ar  266  HIS266     -0.2267
    130  CD2      -29.2770  -14.7690  -29.4840 C.ar  266  HIS266      0.1154
    131  CE1      -28.7440  -13.0050  -30.6690 C.ar  266  HIS266      0.1986
    132  NE2      -29.7680  -13.7010  -30.1930 N.ar  266  HIS266     -0.2212
    133  N        -19.8160  -15.8290  -31.5630 N.3   270  TRP270     -0.1241
    134  CA       -20.4710  -14.6700  -32.1570 C.3   270  TRP270      0.1605
    135  C        -20.6560  -13.5380  -31.1530 C.2   270  TRP270      0.2264
    136  O        -20.3060  -12.3940  -31.4380 O.2   270  TRP270     -0.2867
    137  CB       -21.8140  -15.0740  -32.7830 C.3   270  TRP270      0.0550
    138  CG       -22.6010  -13.9390  -33.3860 C.ar  270  TRP270      0.0003
    139  CD1      -22.1050  -12.7720  -33.8920 C.ar  270  TRP270      0.0946
    140  CD2      -24.0190  -13.8720  -33.5410 C.ar  270  TRP270      0.0152
    141  NE1      -23.1280  -11.9900  -34.3610 N.ar  270  TRP270     -0.2442
    142  CE2      -24.3190  -12.6390  -34.1480 C.ar  270  TRP270      0.0810
    143  CE3      -25.0730  -14.7420  -33.2280 C.ar  270  TRP270      0.0012
    144  CZ2      -25.6260  -12.2420  -34.4440 C.ar  270  TRP270      0.0191
    145  CZ3      -26.3700  -14.3490  -33.5190 C.ar  270  TRP270      0.0001
    146  CH2      -26.6360  -13.1100  -34.1250 C.ar  270  TRP270      0.0015
@<TRIPOS>BOND
     1   144   142   ar
     2   144   146   ar
     3   141   142   ar
     4   141   139   ar
     5   142   140   ar
     6   146   145   ar
     7   139   138   ar
     8   140   138   ar
     9   140   143   ar
    10   145   143   ar
    11   138   137    1
    12   122   121    1
    13   137   134    1
    14    76    73    1
    15    76    77    1
    16   120   119    2
    17   121   118    1
    18   134   133    1
    19   134   135    1
    20    72    73    1
    21    72    64   am
    22    73    74    1
    23   118   119    1
    24   118   117    1
    25    61    60    2
    26    59    60    1
    27    59    58    1
    28    60    62   am
    29    62    63    1
    30   119   123   am
    31    64    63    1
    32    64    65    2
    33    63    66    1
    34   136   135    2
    35   131   129   ar
    36   131   132   ar
    37    74    75    2
    38   123   124    1
    39    69    67   ar
    40    69    71   ar
    41    66    67    1
    42   129   128   ar
    43    67    68   ar
    44    71    70   ar
    45   132   130   ar
    46    70    68   ar
    47   124   125    1
    48   124   127    1
    49    86    84   am
    50   128   130   ar
    51   128   127    1
    52   125   126    2
    53    84    85    2
    54    84    83    1
    55    46    44    1
    56   106   105    2
    57    37    35   ar
    58    37    38   ar
    59   114   113    2
    60    44    43    1
    61   110   108   am
    62    35    34   ar
    63   107   108    1
    64   107   104    1
    65   108   109    2
    66    83    82    1
    67    45    43    1
    68    78    79    1
    69    38    36   ar
    70   105   104    1
    71   105   111   am
    72   113   112    1
    73    43    40    1
    74    40    39    1
    75    40    41    1
    76   104   103    1
    77    34    36   ar
    78    34    33    1
    79   112   111    1
    80   112   115    1
    81    55    53   ar
    82    55    57   ar
    83    79    82    1
    84    79    80    1
    85    53    52   ar
    86    50    49    2
    87    41    42    2
    88    33    30    1
    89    57    56   ar
    90    48    49    1
    91    48    47    1
    92    48    51    1
    93   115   116    1
    94    30    31    1
    95    30    29    1
    96    52    51    1
    97    52    54   ar
    98    80    81    2
    99    56    54   ar
   100    31    32    2
   101     6     5    1
   102     6     7    1
   103     5     2    1
   104     7     1    1
   105    27    28    1
   106    27    24    1
   107    90    89    2
   108    26    25    2
   109     2     1    1
   110     2     3    1
   111    93    92   ar
   112    98    97    2
   113    97    96    1
   114    25    24    1
   115    87    88    1
   116    24    23    1
   117    22    21    1
   118     3     4    2
   119     3     8   am
   120    89    88    1
   121    89    95   am
   122    92    94   ar
   123    92    91    1
   124    96    95    1
   125    96    99    1
   126    19    16    1
   127    19    20    1
   128     8     9    1
   129    88    91    1
   130    16    15    1
   131    16    17    1
   132    11    10    2
   133    15    10   am
   134    10     9    1
   135   101   100    2
   136     9    12    1
   137    21    20    1
   138    99   100    1
   139    18    17    2
   140   100   102   am
   141    12    14    1
   142    12    13    1
