@<TRIPOS>MOLECULE
tmp/4lm8A05.pdb
 211 200 0 0 0
SMALL
GASTEIGER

@<TRIPOS>ATOM
      1  N         -9.4060   -0.4980  -11.7890 N.3   144  SER144     -0.1202
      2  CA        -8.7230    0.1490  -12.9100 C.3   144  SER144      0.2020
      3  C         -9.2720    1.5650  -13.0740 C.2   144  SER144      0.2619
      4  O         -8.5940    2.4580  -13.6030 O.2   144  SER144     -0.2717
      5  CB        -8.9240   -0.6610  -14.1850 C.3   144  SER144      0.2103
      6  OG        -8.1030   -0.1860  -15.2260 O.3   144  SER144     -0.2182
      7  N        -10.4940    1.7780  -12.5890 N.am  145  CYS145     -0.1969
      8  CA       -11.1650    3.0790  -12.7200 C.3   145  CYS145      0.1712
      9  C        -11.6380    3.6530  -11.3760 C.2   145  CYS145      0.2296
     10  O        -11.3510    4.8080  -11.0550 O.2   145  CYS145     -0.2864
     11  CB       -12.3320    2.9860  -13.7100 C.3   145  CYS145      0.0983
     12  SG       -11.8690    2.4330  -15.3970 S.3   145  CYS145     -0.0798
     13  N        -24.3440    9.1000  -18.8510 N.3   203  THR203     -0.1203
     14  CA       -23.5720    9.7150  -19.9380 C.3   203  THR203      0.1994
     15  C        -22.0570    9.6020  -19.7620 C.2   203  THR203      0.2617
     16  O        -21.3350    9.2660  -20.7100 O.2   203  THR203     -0.2717
     17  CB       -23.9520   11.1920  -20.1090 C.3   203  THR203      0.1784
     18  OG1      -25.3780   11.2880  -20.2140 O.3   203  THR203     -0.2211
     19  CG2      -23.3140   11.7630  -21.3660 C.3   203  THR203      0.0376
     20  N        -21.5740    9.8890  -18.5590 N.am  204  VAL204     -0.1979
     21  CA       -20.1410    9.8380  -18.2980 C.3   204  VAL204      0.1595
     22  C        -19.6190    8.4010  -18.3360 C.2   204  VAL204      0.2287
     23  O        -18.6050    8.1190  -18.9840 O.2   204  VAL204     -0.2864
     24  CB       -19.7880   10.5240  -16.9620 C.3   204  VAL204      0.0276
     25  CG1      -18.3150   10.3490  -16.6530 C.3   204  VAL204      0.0022
     26  CG2      -20.1580   12.0210  -17.0140 C.3   204  VAL204      0.0022
     27  N        -19.3400    7.1560  -21.8500 N.3   207  ASN207     -0.1225
     28  CA       -18.2420    7.7290  -22.6260 C.3   207  ASN207      0.1785
     29  C        -16.8800    7.1480  -22.2370 C.2   207  ASN207      0.2597
     30  O        -15.9120    7.2720  -22.9820 O.2   207  ASN207     -0.2718
     31  CB       -18.2270    9.2580  -22.5100 C.3   207  ASN207      0.1169
     32  CG       -17.4370    9.9220  -23.6310 C.2   207  ASN207      0.2627
     33  OD1      -17.5500    9.5360  -24.7940 O.2   207  ASN207     -0.2716
     34  ND2      -16.6290   10.9200  -23.2840 N.am  207  ASN207     -0.0877
     35  N        -16.8010    6.5210  -21.0660 N.am  208  ILE208     -0.1980
     36  CA       -15.5500    5.9020  -20.6180 C.3   208  ILE208      0.1595
     37  C        -15.5240    4.3960  -20.9290 C.2   208  ILE208      0.2287
     38  O        -14.5990    3.8920  -21.5840 O.2   208  ILE208     -0.2864
     39  CB       -15.2980    6.1650  -19.1060 C.3   208  ILE208      0.0276
     40  CG1      -15.0630    7.6640  -18.8600 C.3   208  ILE208      0.0022
     41  CG2      -14.1000    5.3580  -18.5990 C.3   208  ILE208      0.0022
     42  CD1      -13.8520    8.2230  -19.6220 C.3   208  ILE208      0.0001
     43  N          3.8040   11.6500  -13.5510 N.3   447  VAL447     -0.1231
     44  CA         2.5680   11.2100  -14.1930 C.3   447  VAL447      0.1692
     45  C          2.9070   10.6170  -15.5500 C.2   447  VAL447      0.2592
     46  O          3.7020   11.1890  -16.2890 O.2   447  VAL447     -0.2718
     47  CB         1.6190   12.3860  -14.4790 C.3   447  VAL447      0.0266
     48  CG1        0.3130   11.8750  -15.0930 C.3   447  VAL447      0.0020
     49  CG2        1.3230   13.1410  -13.2360 C.3   447  VAL447      0.0020
     50  N          2.3020    9.4900  -15.9040 N.am  448  ASN448     -0.1960
     51  CA         2.5460    8.9460  -17.2330 C.3   448  ASN448      0.1819
     52  C          1.3070    8.3380  -17.8780 C.2   448  ASN448      0.2621
     53  O          0.2610    8.1760  -17.2380 O.2   448  ASN448     -0.2715
     54  CB         3.7410    7.9680  -17.2320 C.3   448  ASN448      0.1195
     55  CG         3.4680    6.7040  -16.4340 C.2   448  ASN448      0.2630
     56  OD1        2.4210    6.0730  -16.5870 O.2   448  ASN448     -0.2716
     57  ND2        4.4040    6.3380  -15.5640 N.am  448  ASN448     -0.0877
     58  N          1.4360    8.0040  -19.1500 N.am  449  MET449     -0.1977
     59  CA         0.3140    7.5280  -19.9390 C.3   449  MET449      0.1605
     60  C         -0.2720    6.2070  -19.4430 C.2   449  MET449      0.2287
     61  O         -1.4300    5.8920  -19.7380 O.2   449  MET449     -0.2864
     62  CB         0.7400    7.3880  -21.4010 C.3   449  MET449      0.0413
     63  CG        -0.3820    7.0470  -22.3640 C.3   449  MET449      0.0598
     64  SD        -1.6720    8.3080  -22.4450 S.3   449  MET449     -0.1393
     65  CE        -0.7090    9.7450  -22.7280 C.3   449  MET449      0.0692
     66  N         -1.0260    5.5170  -16.4730 N.3   451  ALA451     -0.1231
     67  CA        -2.1030    5.9010  -15.5690 C.3   451  ALA451      0.1694
     68  C         -3.3420    6.3410  -16.3590 C.2   451  ALA451      0.2592
     69  O         -4.4650    5.9150  -16.0440 O.2   451  ALA451     -0.2718
     70  CB        -1.6390    6.9910  -14.5860 C.3   451  ALA451      0.0304
     71  N         -3.1570    7.1770  -17.3850 N.am  452  CYS452     -0.1970
     72  CA        -4.2860    7.6070  -18.2160 C.3   452  CYS452      0.1712
     73  C         -4.9820    6.4090  -18.8420 C.2   452  CYS452      0.2296
     74  O         -6.2140    6.3640  -18.9300 O.2   452  CYS452     -0.2864
     75  CB        -3.8510    8.5450  -19.3530 C.3   452  CYS452      0.0983
     76  SG        -2.6810    9.8280  -18.8690 S.3   452  CYS452     -0.0798
     77  N         -5.3220    3.4240  -17.7850 N.3   454  ASN454     -0.1225
     78  CA        -6.1390    2.6050  -16.8850 C.3   454  ASN454      0.1785
     79  C         -7.6240    2.8870  -17.0920 C.2   454  ASN454      0.2597
     80  O         -8.4520    1.9890  -16.9840 O.2   454  ASN454     -0.2718
     81  CB        -5.7510    2.8240  -15.4180 C.3   454  ASN454      0.1169
     82  CG        -4.4650    2.1310  -15.0470 C.2   454  ASN454      0.2627
     83  OD1       -4.1650    1.0460  -15.5500 O.2   454  ASN454     -0.2716
     84  ND2       -3.6830    2.7570  -14.1710 N.am  454  ASN454     -0.0877
     85  N         -7.9540    4.1330  -17.4210 N.am  455  CYS455     -0.1956
     86  CA        -9.3510    4.5200  -17.6400 C.3   455  CYS455      0.1843
     87  C         -9.7250    4.6740  -19.1130 C.2   455  CYS455      0.2625
     88  O        -10.8500    4.3650  -19.5160 O.2   455  CYS455     -0.2714
     89  CB        -9.6640    5.8180  -16.8930 C.3   455  CYS455      0.0997
     90  SG        -9.5110    5.6770  -15.0980 S.3   455  CYS455     -0.0797
     91  N         -8.7810    5.1520  -19.9160 N.am  456  HIS456     -0.1973
     92  CA        -9.0580    5.5300  -21.2970 C.3   456  HIS456      0.1656
     93  C         -8.5600    4.4970  -22.3290 C.2   456  HIS456      0.2291
     94  O         -8.7800    4.6750  -23.5280 O.2   456  HIS456     -0.2864
     95  CB        -8.3990    6.8810  -21.5930 C.3   456  HIS456      0.0771
     96  CG        -9.0020    8.0440  -20.8650 C.ar  456  HIS456      0.0820
     97  ND1      -10.1740    8.6500  -21.2650 N.ar  456  HIS456     -0.2267
     98  CD2       -8.5650    8.7440  -19.7850 C.ar  456  HIS456      0.1154
     99  CE1      -10.4420    9.6650  -20.4560 C.ar  456  HIS456      0.1986
    100  NE2       -9.4860    9.7390  -19.5510 N.ar  456  HIS456     -0.2212
    101  N         -6.2610    5.1610  -26.5880 N.3   460  PHE460     -0.1241
    102  CA        -6.8800    6.4930  -26.5010 C.3   460  PHE460      0.1605
    103  C         -6.3790    7.3890  -27.6410 C.2   460  PHE460      0.2264
    104  O         -5.1730    7.6150  -27.7710 O.2   460  PHE460     -0.2867
    105  CB        -6.5260    7.1140  -25.1320 C.3   460  PHE460      0.0534
    106  CG        -7.3690    8.3100  -24.7290 C.ar  460  PHE460     -0.0203
    107  CD1       -8.5120    8.6650  -25.4260 C.ar  460  PHE460     -0.0042
    108  CD2       -7.0040    9.0670  -23.6220 C.ar  460  PHE460     -0.0042
    109  CE1       -9.2770    9.7720  -25.0330 C.ar  460  PHE460     -0.0003
    110  CE2       -7.7550   10.1640  -23.2150 C.ar  460  PHE460     -0.0003
    111  CZ        -8.8920   10.5230  -23.9290 C.ar  460  PHE460     -0.0000
    112  N         -6.3340   10.7930  -28.4370 N.3   462  ILE462     -0.1231
    113  CA        -6.5810   12.0720  -27.7690 C.3   462  ILE462      0.1692
    114  C         -6.8320   13.2300  -28.7400 C.2   462  ILE462      0.2592
    115  O         -6.0500   13.4500  -29.6650 O.2   462  ILE462     -0.2718
    116  CB        -5.4160   12.4090  -26.8110 C.3   462  ILE462      0.0266
    117  CG1       -5.2540   11.2800  -25.8000 C.3   462  ILE462      0.0019
    118  CG2       -5.6620   13.7470  -26.0950 C.3   462  ILE462      0.0020
    119  CD1       -4.0520   11.4370  -24.8780 C.3   462  ILE462      0.0001
    120  N         -7.9370   13.9490  -28.5220 N.am  463  HIS463     -0.1976
    121  CA        -8.3280   15.1060  -29.3430 C.3   463  HIS463      0.1656
    122  C         -8.8000   14.7640  -30.7660 C.2   463  HIS463      0.2291
    123  O         -8.9630   15.6670  -31.5810 O.2   463  HIS463     -0.2864
    124  CB        -7.2060   16.1610  -29.4130 C.3   463  HIS463      0.0771
    125  CG        -7.0100   16.9370  -28.1460 C.ar  463  HIS463      0.0820
    126  ND1       -7.9560   16.9780  -27.1440 N.ar  463  HIS463     -0.2267
    127  CD2       -5.9750   17.7010  -27.7160 C.ar  463  HIS463      0.1154
    128  CE1       -7.5120   17.7360  -26.1530 C.ar  463  HIS463      0.1986
    129  NE2       -6.3160   18.1860  -26.4770 N.ar  463  HIS463     -0.2212
    130  N          3.7200   12.7980  -20.8410 N.3   491  LEU491     -0.1245
    131  CA         2.7650   13.7080  -21.4620 C.3   491  LEU491      0.1561
    132  C          3.4490   15.0370  -21.7720 C.2   491  LEU491      0.2260
    133  O          2.7870   16.0450  -22.0150 O.2   491  LEU491     -0.2867
    134  CB         1.5520   13.9390  -20.5570 C.3   491  LEU491      0.0270
    135  CG         0.5230   12.8240  -20.3490 C.3   491  LEU491      0.0019
    136  CD1        1.0830   11.6900  -19.5210 C.3   491  LEU491      0.0001
    137  CD2       -0.7030   13.4010  -19.6740 C.3   491  LEU491      0.0001
    138  N          2.5690   17.2940  -24.8260 N.3   494  CYS494     -0.1235
    139  CA         1.3240   18.0620  -24.8020 C.3   494  CYS494      0.1677
    140  C          1.5590   19.5320  -24.4740 C.2   494  CYS494      0.2270
    141  O          0.7050   20.3770  -24.7500 O.2   494  CYS494     -0.2867
    142  CB         0.3290   17.4680  -23.7990 C.3   494  CYS494      0.0956
    143  SG         0.1950   15.6580  -23.8420 S.3   494  CYS494     -0.0801
    144  N         -5.2100   19.2550  -16.8050 N.3   516  LEU516     -0.1245
    145  CA        -5.6790   17.9150  -16.4530 C.3   516  LEU516      0.1561
    146  C         -6.4520   17.9560  -15.1400 C.2   516  LEU516      0.2260
    147  O         -7.4930   17.3010  -14.9980 O.2   516  LEU516     -0.2867
    148  CB        -4.5220   16.9100  -16.3930 C.3   516  LEU516      0.0270
    149  CG        -4.2450   16.2140  -17.7280 C.3   516  LEU516      0.0019
    150  CD1       -5.4270   15.3620  -18.1870 C.3   516  LEU516      0.0001
    151  CD2       -3.8300   17.2100  -18.8240 C.3   516  LEU516      0.0001
    152  N        -10.0310   19.6580  -15.8720 N.3   519  LYS519     -0.1231
    153  CA       -10.9670   18.7750  -16.5630 C.3   519  LYS519      0.1693
    154  C        -11.4670   17.6650  -15.6460 C.2   519  LYS519      0.2592
    155  O        -12.6660   17.3710  -15.5980 O.2   519  LYS519     -0.2718
    156  CB       -10.3140   18.1630  -17.8030 C.3   519  LYS519      0.0285
    157  CG       -11.1510   17.0510  -18.4590 C.3   519  LYS519      0.0035
    158  CD       -12.5040   17.5770  -18.9590 C.3   519  LYS519      0.0206
    159  CE       -13.2780   16.4760  -19.6740 C.3   519  LYS519      0.1093
    160  NZ       -14.5820   16.9860  -20.1980 N.3   519  LYS519     -0.1314
    161  N        -10.5540   17.0490  -14.9120 N.am  520  HIS520     -0.1976
    162  CA       -10.9280   15.8880  -14.1070 C.3   520  HIS520      0.1656
    163  C        -11.6250   16.2230  -12.7810 C.2   520  HIS520      0.2291
    164  O        -12.5400   15.5030  -12.3600 O.2   520  HIS520     -0.2864
    165  CB        -9.7380   14.9270  -13.9720 C.3   520  HIS520      0.0771
    166  CG        -9.3840   14.2610  -15.2670 C.ar  520  HIS520      0.0820
    167  ND1       -8.6450   14.8840  -16.2460 N.ar  520  HIS520     -0.2267
    168  CD2       -9.7300   13.0470  -15.7630 C.ar  520  HIS520      0.1154
    169  CE1       -8.5170   14.0660  -17.2830 C.ar  520  HIS520      0.1986
    170  NE2       -9.1650   12.9500  -17.0140 N.ar  520  HIS520     -0.2212
    171  N        -15.2200   16.9520  -14.1890 N.3   523  ASP523     -0.1225
    172  CA       -16.0170   15.9160  -14.8530 C.3   523  ASP523      0.1805
    173  C        -15.7420   14.4920  -14.3840 C.2   523  ASP523      0.2597
    174  O        -16.5260   13.5810  -14.6640 O.2   523  ASP523     -0.2718
    175  CB       -15.8620   16.0110  -16.3800 C.3   523  ASP523      0.1424
    176  CG       -16.4980   17.2620  -16.9500 C.2   523  ASP523      0.3668
    177  OD1      -17.4060   17.8070  -16.2870 O.co2 523  ASP523     -0.2456
    178  OD2      -16.0970   17.6980  -18.0550 O.co2 523  ASP523     -0.2456
    179  N        -14.6370   14.2910  -13.6740 N.am  524  ALA524     -0.1979
    180  CA       -14.2690   12.9470  -13.2150 C.3   524  ALA524      0.1597
    181  C        -14.3260   12.7790  -11.6970 C.2   524  ALA524      0.2287
    182  O        -13.8960   11.7570  -11.1630 O.2   524  ALA524     -0.2864
    183  CB       -12.8830   12.5570  -13.7510 C.3   524  ALA524      0.0319
    184  N        -15.6460    9.7070  -10.0010 N.3   527  LEU527     -0.1231
    185  CA       -14.7640    8.5370  -10.0090 C.3   527  LEU527      0.1693
    186  C        -13.5730    8.7150   -9.0740 C.2   527  LEU527      0.2591
    187  O        -13.2610    7.8320   -8.2670 O.2   527  LEU527     -0.2718
    188  CB       -14.1920    8.2950  -11.4170 C.3   527  LEU527      0.0284
    189  CG       -14.6750    7.2520  -12.4230 C.3   527  LEU527      0.0019
    190  CD1      -13.5870    7.0190  -13.4790 C.3   527  LEU527      0.0001
    191  CD2      -15.0800    5.9380  -11.7810 C.3   527  LEU527      0.0001
    192  N        -12.8950    9.8530   -9.2100 N.am  528  ILE528     -0.1980
    193  CA       -11.5810   10.0740   -8.5920 C.3   528  ILE528      0.1595
    194  C        -11.6370   10.7230   -7.2020 C.2   528  ILE528      0.2287
    195  O        -10.8350   10.3940   -6.3200 O.2   528  ILE528     -0.2864
    196  CB       -10.6700   10.9480   -9.5140 C.3   528  ILE528      0.0276
    197  CG1      -10.4540   10.2670  -10.8640 C.3   528  ILE528      0.0022
    198  CG2       -9.3100   11.1780   -8.8800 C.3   528  ILE528      0.0022
    199  CD1       -9.7260   11.1360  -11.9060 C.3   528  ILE528      0.0001
    200  N         -4.6190    8.4200   -8.6660 N.3   534  SER534     -0.1202
    201  CA        -5.2180    7.9810   -9.9230 C.3   534  SER534      0.2020
    202  C         -4.3230    8.3040  -11.1240 C.2   534  SER534      0.2619
    203  O         -4.3270    7.5760  -12.1200 O.2   534  SER534     -0.2717
    204  CB        -6.6100    8.5840  -10.0990 C.3   534  SER534      0.2103
    205  OG        -7.5310    7.9260   -9.2470 O.3   534  SER534     -0.2182
    206  N         -3.5480    9.3870  -11.0270 N.am  535  CYS535     -0.1969
    207  CA        -2.6260    9.7600  -12.1060 C.3   535  CYS535      0.1712
    208  C         -1.1710    9.7870  -11.6650 C.2   535  CYS535      0.2296
    209  O         -0.2900    9.4890  -12.4610 O.2   535  CYS535     -0.2864
    210  CB        -2.9780   11.1290  -12.6950 C.3   535  CYS535      0.0983
    211  SG        -4.5670   11.1920  -13.5080 S.3   535  CYS535     -0.0798
@<TRIPOS>BOND
     1   123   122    2
     2   122   121    1
     3   115   114    2
     4   124   121    1
     5   124   125    1
     6   121   120    1
     7   114   120   am
     8   114   113    1
     9   112   113    1
    10   125   127   ar
    11   125   126   ar
    12   104   103    2
    13   113   116    1
    14   127   129   ar
    15   103   102    1
    16   126   128   ar
    17   116   118    1
    18   116   117    1
    19   101   102    1
    20   102   105    1
    21   129   128   ar
    22   117   119    1
    23   107   109   ar
    24   107   106   ar
    25   105   106    1
    26   109   111   ar
    27   138   139    1
    28   139   140    1
    29   139   142    1
    30    33    32    2
    31   141   140    2
    32   106   108   ar
    33   111   110   ar
    34   143   142    1
    35    32    34   am
    36    32    31    1
    37   108   110   ar
    38    94    93    2
    39    30    29    2
    40    65    64    1
    41    28    31    1
    42    28    29    1
    43    28    27    1
    44    64    63    1
    45    63    62    1
    46    93    92    1
    47    29    35   am
    48   133   132    2
    49   132   131    1
    50    95    92    1
    51    95    96    1
    52    38    37    2
    53   131   130    1
    54   131   134    1
    55    62    59    1
    56    19    17    1
    57    92    91    1
    58    97    96   ar
    59    97    99   ar
    60    35    36    1
    61    37    36    1
    62    96    98   ar
    63    16    15    2
    64    36    39    1
    65   134   135    1
    66    99   100   ar
    67   135   137    1
    68   135   136    1
    69    18    17    1
    70   160   159    1
    71    17    14    1
    72    59    60    1
    73    59    58    1
    74    14    15    1
    75    14    13    1
    76    91    87   am
    77    98   100   ar
    78    15    20   am
    79    61    60    2
    80   159   158    1
    81    42    40    1
    82    88    87    2
    83    75    76    1
    84    75    72    1
    85    58    52   am
    86    87    86    1
    87    39    40    1
    88    39    41    1
    89    23    22    2
    90   158   157    1
    91    74    73    2
    92    73    72    1
    93   151   149    1
    94    20    21    1
    95   157   156    1
    96    22    21    1
    97    21    24    1
    98    72    71    1
    99   150   149    1
   100   178   176   ar
   101    52    53    2
   102    52    51    1
   103   156   153    1
   104    77    78    1
   105   149   148    1
   106    86    85    1
   107    86    89    1
   108    85    79   am
   109    71    68   am
   110   169   170   ar
   111   169   167   ar
   112    51    54    1
   113    51    50    1
   114    54    55    1
   115    79    80    2
   116    79    78    1
   117   170   168   ar
   118    26    24    1
   119    24    25    1
   120   176   175    1
   121   176   177   ar
   122    89    90    1
   123    78    81    1
   124   144   145    1
   125    56    55    2
   126   153   152    1
   127   153   154    1
   128    66    67    1
   129   145   148    1
   130   145   146    1
   131    55    57   am
   132   175   172    1
   133    68    69    2
   134    68    67    1
   135    46    45    2
   136   167   166   ar
   137    50    45   am
   138   168   166   ar
   139   154   155    2
   140   154   161   am
   141    67    70    1
   142    83    82    2
   143    45    44    1
   144    81    82    1
   145    12    11    1
   146   166   165    1
   147     6     5    1
   148   146   147    2
   149    48    47    1
   150    82    84   am
   151   161   162    1
   152   172   173    1
   153   172   171    1
   154   174   173    2
   155    47    44    1
   156    47    49    1
   157   173   179   am
   158    44    43    1
   159     5     2    1
   160   162   165    1
   161   162   163    1
   162   183   180    1
   163    11     8    1
   164   179   180    1
   165     4     3    2
   166   211   210    1
   167   190   189    1
   168   180   181    1
   169     3     2    1
   170     3     7   am
   171     2     1    1
   172   163   164    2
   173     8     7    1
   174     8     9    1
   175   210   207    1
   176   209   208    2
   177   189   191    1
   178   189   188    1
   179   203   202    2
   180   207   208    1
   181   207   206    1
   182   199   197    1
   183   181   182    2
   184   188   185    1
   185     9    10    2
   186   202   206   am
   187   202   201    1
   188   197   196    1
   189   204   201    1
   190   204   205    1
   191   185   184    1
   192   185   186    1
   193   201   200    1
   194   196   198    1
   195   196   193    1
   196   192   186   am
   197   192   193    1
   198   186   187    2
   199   193   194    1
   200   194   195    2
