@<TRIPOS>MOLECULE
tmp/4lm8A03.pdb
 186 184 0 0 0
SMALL
GASTEIGER

@<TRIPOS>ATOM
      1  N        -24.3480   -3.5500  -15.8650 N.3   186  HIS186     -0.1241
      2  CA       -24.2780   -3.0840  -17.2370 C.3   186  HIS186      0.1621
      3  C        -25.1490   -1.8360  -17.3780 C.2   186  HIS186      0.2264
      4  O        -24.7710   -0.8590  -18.0530 O.2   186  HIS186     -0.2867
      5  CB       -24.6940   -4.2170  -18.1870 C.3   186  HIS186      0.0745
      6  CG       -23.9360   -5.4900  -17.9640 C.ar  186  HIS186      0.0817
      7  ND1      -24.4940   -6.5980  -17.3470 N.ar  186  HIS186     -0.2268
      8  CD2      -22.6530   -5.8300  -18.2440 C.ar  186  HIS186      0.1154
      9  CE1      -23.5940   -7.5610  -17.2770 C.ar  186  HIS186      0.1986
     10  NE2      -22.4680   -7.1230  -17.8160 N.ar  186  HIS186     -0.2212
     11  N        -23.5660    1.5470  -16.4580 N.3   189  HIS189     -0.1226
     12  CA       -22.4800    2.0190  -17.3230 C.3   189  HIS189      0.1752
     13  C        -22.9440    2.2760  -18.7520 C.2   189  HIS189      0.2596
     14  O        -22.1550    2.6950  -19.5910 O.2   189  HIS189     -0.2718
     15  CB       -21.3070    1.0280  -17.3450 C.3   189  HIS189      0.0759
     16  CG       -20.5910    0.9010  -16.0390 C.ar  189  HIS189      0.0818
     17  ND1      -20.9020   -0.0760  -15.1080 N.ar  189  HIS189     -0.2268
     18  CD2      -19.5750    1.6200  -15.5000 C.ar  189  HIS189      0.1154
     19  CE1      -20.1070    0.0520  -14.0600 C.ar  189  HIS189      0.1986
     20  NE2      -19.2960    1.0720  -14.2690 N.ar  189  HIS189     -0.2212
     21  N        -24.2240    2.0350  -19.0320 N.am  190  ASN190     -0.1974
     22  CA       -24.7260    2.1760  -20.3940 C.3   190  ASN190      0.1688
     23  C        -25.9000    3.1670  -20.4620 C.2   190  ASN190      0.2292
     24  O        -26.8130    3.1030  -19.6480 O.2   190  ASN190     -0.2864
     25  CB       -25.1180    0.8000  -20.9470 C.3   190  ASN190      0.1181
     26  CG       -25.8870    0.8910  -22.2500 C.2   190  ASN190      0.2629
     27  OD1      -27.1060    1.0820  -22.2480 O.2   190  ASN190     -0.2716
     28  ND2      -25.1810    0.7480  -23.3740 N.am  190  ASN190     -0.0877
     29  N        -16.5520    3.6810  -20.4830 N.3   209  VAL209     -0.1231
     30  CA       -16.6280    2.2340  -20.7180 C.3   209  VAL209      0.1692
     31  C        -16.9090    1.8780  -22.1880 C.2   209  VAL209      0.2592
     32  O        -16.3150    0.9340  -22.7310 O.2   209  VAL209     -0.2718
     33  CB       -17.6690    1.5710  -19.7880 C.3   209  VAL209      0.0266
     34  CG1      -17.8580    0.1000  -20.1400 C.3   209  VAL209      0.0020
     35  CG2      -17.2370    1.7200  -18.3340 C.3   209  VAL209      0.0020
     36  N        -17.7990    2.6390  -22.8240 N.am  210  GLN210     -0.1966
     37  CA       -18.0960    2.4890  -24.2540 C.3   210  GLN210      0.1733
     38  C        -18.4980    1.0560  -24.6020 C.2   210  GLN210      0.2616
     39  O        -18.1450    0.5300  -25.6680 O.2   210  GLN210     -0.2715
     40  CB       -16.9230    2.9920  -25.1070 C.3   210  GLN210      0.0408
     41  CG       -16.6440    4.4770  -24.8560 C.3   210  GLN210      0.0908
     42  CD       -15.6610    5.1070  -25.8350 C.2   210  GLN210      0.2608
     43  OE1      -15.1460    4.4460  -26.7350 O.2   210  GLN210     -0.2717
     44  NE2      -15.3980    6.4030  -25.6570 N.am  210  GLN210     -0.0878
     45  N        -19.2300    0.4350  -23.6770 N.am  211  ASP211     -0.1971
     46  CA       -19.7350   -0.9320  -23.8340 C.3   211  ASP211      0.1709
     47  C        -18.6360   -1.9600  -24.0960 C.2   211  ASP211      0.2293
     48  O        -18.8980   -3.0380  -24.6300 O.2   211  ASP211     -0.2864
     49  CB       -20.7830   -0.9800  -24.9510 C.3   211  ASP211      0.1436
     50  CG       -21.9220   -0.0140  -24.7120 C.2   211  ASP211      0.3671
     51  OD1      -22.4820   -0.0630  -23.6010 O.co2 211  ASP211     -0.2456
     52  OD2      -22.2440    0.8040  -25.6090 O.co2 211  ASP211     -0.2456
     53  N        -16.6800   -4.8560  -23.3000 N.3   213  CYS213     -0.1235
     54  CA       -16.8320   -5.9400  -22.3260 C.3   213  CYS213      0.1677
     55  C        -15.5150   -6.2880  -21.6520 C.2   213  CYS213      0.2270
     56  O        -15.4880   -6.6590  -20.4810 O.2   213  CYS213     -0.2867
     57  CB       -17.4190   -7.2040  -22.9820 C.3   213  CYS213      0.0956
     58  SG       -18.7070   -6.8810  -24.1850 S.3   213  CYS213     -0.0801
     59  N        -19.6360  -14.4310  -19.9150 N.3   229  TRP229     -0.1227
     60  CA       -20.1910  -13.2240  -20.5210 C.3   229  TRP229      0.1737
     61  C        -20.6590  -13.4790  -21.9470 C.2   229  TRP229      0.2596
     62  O        -21.5310  -12.7730  -22.4660 O.2   229  TRP229     -0.2718
     63  CB       -19.1880  -12.0570  -20.4710 C.3   229  TRP229      0.0564
     64  CG       -17.9460  -12.2240  -21.3010 C.ar  229  TRP229      0.0003
     65  CD1      -16.8200  -12.9190  -20.9690 C.ar  229  TRP229      0.0946
     66  CD2      -17.6920  -11.6390  -22.5840 C.ar  229  TRP229      0.0152
     67  NE1      -15.8880  -12.8260  -21.9840 N.ar  229  TRP229     -0.2442
     68  CE2      -16.4040  -12.0420  -22.9870 C.ar  229  TRP229      0.0810
     69  CE3      -18.4430  -10.8250  -23.4420 C.ar  229  TRP229      0.0012
     70  CZ2      -15.8380  -11.6460  -24.2010 C.ar  229  TRP229      0.0191
     71  CZ3      -17.8860  -10.4340  -24.6510 C.ar  229  TRP229      0.0001
     72  CH2      -16.5980  -10.8500  -25.0220 C.ar  229  TRP229      0.0015
     73  N        -20.0810  -14.4960  -22.5780 N.am  230  SER230     -0.1952
     74  CA       -20.4890  -14.8650  -23.9210 C.3   230  SER230      0.1924
     75  C        -21.1600  -16.2350  -23.9690 C.2   230  SER230      0.2314
     76  O        -21.8910  -16.5310  -24.9160 O.2   230  SER230     -0.2863
     77  CB       -19.2990  -14.8060  -24.8850 C.3   230  SER230      0.2116
     78  OG       -18.3400  -15.8140  -24.6020 O.3   230  SER230     -0.2180
     79  N        -23.2760  -17.5810  -21.5700 N.3   232  ILE232     -0.1231
     80  CA       -24.5800  -17.6390  -20.8870 C.3   232  ILE232      0.1678
     81  C        -25.4730  -16.4450  -21.2410 C.2   232  ILE232      0.2434
     82  O        -25.6960  -15.5660  -20.4030 O.2   232  ILE232     -0.2733
     83  CB       -24.4310  -17.6680  -19.3460 C.3   232  ILE232      0.0265
     84  CG1      -23.3030  -18.6040  -18.9040 C.3   232  ILE232      0.0019
     85  CG2      -25.7520  -18.0710  -18.6740 C.3   232  ILE232      0.0020
     86  CD1      -23.6130  -20.0690  -19.0620 C.3   232  ILE232      0.0001
     87  N        -25.9860  -16.3940  -22.4860 N.am  233  PRO233     -0.2729
     88  CA       -26.9430  -15.3240  -22.8110 C.3   233  PRO233      0.1401
     89  C        -28.2870  -15.5520  -22.1180 C.2   233  PRO233      0.2269
     90  O        -28.7870  -16.6870  -22.1170 O.2   233  PRO233     -0.2865
     91  CB       -27.1000  -15.4390  -24.3330 C.3   233  PRO233      0.0296
     92  CG       -26.8280  -16.9190  -24.6250 C.3   233  PRO233      0.0237
     93  CD       -25.7510  -17.3140  -23.6170 C.3   233  PRO233      0.0939
     94  N        -30.0040  -10.4880  -18.3760 N.3   237  VAL237     -0.1231
     95  CA       -28.7600   -9.7230  -18.4980 C.3   237  VAL237      0.1692
     96  C        -28.6700   -8.9460  -19.8190 C.2   237  VAL237      0.2592
     97  O        -28.3570   -7.7480  -19.8270 O.2   237  VAL237     -0.2718
     98  CB       -27.5360  -10.6230  -18.3240 C.3   237  VAL237      0.0266
     99  CG1      -26.2220   -9.8040  -18.5200 C.3   237  VAL237      0.0020
    100  CG2      -27.5700  -11.2850  -16.9540 C.3   237  VAL237      0.0020
    101  N        -28.9690   -9.6020  -20.9380 N.am  238  CYS238     -0.1970
    102  CA       -28.8000   -8.9500  -22.2410 C.3   238  CYS238      0.1712
    103  C        -29.7230   -7.7310  -22.4210 C.2   238  CYS238      0.2296
    104  O        -29.3890   -6.7730  -23.1310 O.2   238  CYS238     -0.2864
    105  CB       -28.9740   -9.9600  -23.3920 C.3   238  CYS238      0.0983
    106  SG       -27.8920  -11.4280  -23.2950 S.3   238  CYS238     -0.0798
    107  N        -30.1820   -5.4290  -20.3230 N.3   240  SER240     -0.1202
    108  CA       -29.6940   -4.2670  -19.5510 C.3   240  SER240      0.2020
    109  C        -29.2560   -3.1090  -20.4560 C.2   240  SER240      0.2619
    110  O        -29.5190   -1.9280  -20.1620 O.2   240  SER240     -0.2717
    111  CB       -28.5740   -4.6680  -18.5800 C.3   240  SER240      0.2103
    112  OG       -27.4890   -5.2930  -19.2550 O.3   240  SER240     -0.2182
    113  N        -28.6120   -3.4590  -21.5670 N.am  241  CYS241     -0.1955
    114  CA       -28.2590   -2.4930  -22.6120 C.3   241  CYS241      0.1843
    115  C        -29.2130   -2.5660  -23.8050 C.2   241  CYS241      0.2625
    116  O        -29.4330   -1.5580  -24.4920 O.2   241  CYS241     -0.2714
    117  CB       -26.8480   -2.7540  -23.1340 C.3   241  CYS241      0.0997
    118  SG       -25.5510   -2.6370  -21.9080 S.3   241  CYS241     -0.0797
    119  N        -29.7480   -3.7550  -24.0840 N.am  242  HIS242     -0.1973
    120  CA       -30.6760   -3.9050  -25.2030 C.3   242  HIS242      0.1656
    121  C        -32.1000   -3.6710  -24.6840 C.2   242  HIS242      0.2291
    122  O        -32.8700   -4.6130  -24.4620 O.2   242  HIS242     -0.2864
    123  CB       -30.5010   -5.2730  -25.9010 C.3   242  HIS242      0.0771
    124  CG       -29.1680   -5.4490  -26.5650 C.ar  242  HIS242      0.0820
    125  ND1      -28.9240   -5.0660  -27.8760 N.ar  242  HIS242     -0.2267
    126  CD2      -27.9910   -5.9450  -26.1060 C.ar  242  HIS242      0.1154
    127  CE1      -27.6730   -5.3280  -28.1880 C.ar  242  HIS242      0.1986
    128  NE2      -27.0790   -5.8700  -27.1330 N.ar  242  HIS242     -0.2212
    129  N        -27.3960  -17.5410  -30.4350 N.3   266  HIS266     -0.1241
    130  CA       -26.3340  -16.6350  -30.0040 C.3   266  HIS266      0.1621
    131  C        -25.1670  -17.4440  -29.4520 C.2   266  HIS266      0.2264
    132  O        -24.9380  -17.4940  -28.2350 O.2   266  HIS266     -0.2867
    133  CB       -26.8700  -15.6180  -28.9810 C.3   266  HIS266      0.0745
    134  CG       -27.9250  -14.7150  -29.5370 C.ar  266  HIS266      0.0817
    135  ND1      -27.6280  -13.5910  -30.2960 N.ar  266  HIS266     -0.2268
    136  CD2      -29.2770  -14.7690  -29.4840 C.ar  266  HIS266      0.1154
    137  CE1      -28.7440  -13.0050  -30.6690 C.ar  266  HIS266      0.1986
    138  NE2      -29.7680  -13.7010  -30.1930 N.ar  266  HIS266     -0.2212
    139  N        -19.8160  -15.8290  -31.5630 N.3   270  TRP270     -0.1227
    140  CA       -20.4710  -14.6700  -32.1570 C.3   270  TRP270      0.1737
    141  C        -20.6560  -13.5380  -31.1530 C.2   270  TRP270      0.2596
    142  O        -20.3060  -12.3940  -31.4380 O.2   270  TRP270     -0.2718
    143  CB       -21.8140  -15.0740  -32.7830 C.3   270  TRP270      0.0564
    144  CG       -22.6010  -13.9390  -33.3860 C.ar  270  TRP270      0.0003
    145  CD1      -22.1050  -12.7720  -33.8920 C.ar  270  TRP270      0.0946
    146  CD2      -24.0190  -13.8720  -33.5410 C.ar  270  TRP270      0.0152
    147  NE1      -23.1280  -11.9900  -34.3610 N.ar  270  TRP270     -0.2442
    148  CE2      -24.3190  -12.6390  -34.1480 C.ar  270  TRP270      0.0810
    149  CE3      -25.0730  -14.7420  -33.2280 C.ar  270  TRP270      0.0012
    150  CZ2      -25.6260  -12.2420  -34.4440 C.ar  270  TRP270      0.0191
    151  CZ3      -26.3700  -14.3490  -33.5190 C.ar  270  TRP270      0.0001
    152  CH2      -26.6360  -13.1100  -34.1250 C.ar  270  TRP270      0.0015
    153  N        -21.1870  -13.8460  -29.9700 N.am  271  THR271     -0.1953
    154  CA       -21.4020  -12.8090  -28.9610 C.3   271  THR271      0.1897
    155  C        -20.0840  -12.1500  -28.5480 C.2   271  THR271      0.2313
    156  O        -20.0090  -10.9280  -28.4190 O.2   271  THR271     -0.2863
    157  CB       -22.1620  -13.3670  -27.7330 C.3   271  THR271      0.1794
    158  OG1      -23.4810  -13.7540  -28.1460 O.3   271  THR271     -0.2208
    159  CG2      -22.2920  -12.3190  -26.6260 C.3   271  THR271      0.0378
    160  N        -18.6890  -10.0390  -31.7700 N.3   274  LEU274     -0.1231
    161  CA       -19.4440   -8.8770  -32.2200 C.3   274  LEU274      0.1693
    162  C        -19.2570   -7.6710  -31.3040 C.2   274  LEU274      0.2592
    163  O        -19.1630   -6.5380  -31.7860 O.2   274  LEU274     -0.2718
    164  CB       -20.9360   -9.2070  -32.4250 C.3   274  LEU274      0.0284
    165  CG       -21.9170   -9.2210  -31.2430 C.3   274  LEU274      0.0019
    166  CD1      -22.3980   -7.8060  -30.8840 C.3   274  LEU274      0.0001
    167  CD2      -23.1020  -10.1310  -31.5600 C.3   274  LEU274      0.0001
    168  N        -19.2070   -7.9070  -29.9900 N.am  275  HIS275     -0.1976
    169  CA       -19.1090   -6.8080  -29.0220 C.3   275  HIS275      0.1656
    170  C        -17.6890   -6.2550  -28.9020 C.2   275  HIS275      0.2291
    171  O        -17.4920   -5.1630  -28.3610 O.2   275  HIS275     -0.2864
    172  CB       -19.6180   -7.2430  -27.6410 C.3   275  HIS275      0.0771
    173  CG       -21.1070   -7.4550  -27.5710 C.ar  275  HIS275      0.0820
    174  ND1      -21.6830   -8.6970  -27.6600 N.ar  275  HIS275     -0.2267
    175  CD2      -22.1220   -6.5700  -27.3960 C.ar  275  HIS275      0.1154
    176  CE1      -23.0050   -8.5760  -27.5580 C.ar  275  HIS275      0.1986
    177  NE2      -23.2920   -7.3040  -27.3960 N.ar  275  HIS275     -0.2212
    178  N        -15.0180   -3.9280  -33.1770 N.3   278  LYS278     -0.1245
    179  CA       -14.5650   -2.5790  -33.5340 C.3   278  LYS278      0.1561
    180  C        -13.2820   -2.1460  -32.8150 C.2   278  LYS278      0.2260
    181  O        -12.3770   -1.5880  -33.4430 O.2   278  LYS278     -0.2867
    182  CB       -15.6780   -1.5500  -33.3360 C.3   278  LYS278      0.0271
    183  CG       -16.7560   -1.6040  -34.4190 C.3   278  LYS278      0.0035
    184  CD       -17.8360   -0.5370  -34.2120 C.3   278  LYS278      0.0206
    185  CE       -18.8740   -0.5680  -35.3320 C.3   278  LYS278      0.1093
    186  NZ       -19.6020   -1.8620  -35.3760 N.3   278  LYS278     -0.1314
@<TRIPOS>BOND
     1   186   185    1
     2   185   184    1
     3   150   148   ar
     4   150   152   ar
     5   183   184    1
     6   183   182    1
     7   147   148   ar
     8   147   145   ar
     9   148   146   ar
    10   152   151   ar
    11   145   144   ar
    12   146   144   ar
    13   146   149   ar
    14   179   182    1
    15   179   178    1
    16   179   180    1
    17   151   149   ar
    18   181   180    2
    19   144   143    1
    20   143   140    1
    21   164   161    1
    22   164   165    1
    23   161   160    1
    24   161   162    1
    25   140   139    1
    26   140   141    1
    27   163   162    2
    28   167   165    1
    29   142   141    2
    30   162   168   am
    31   165   166    1
    32   141   153   am
    33   137   135   ar
    34   137   138   ar
    35   129   130    1
    36   135   134   ar
    37   138   136   ar
    38   130   131    1
    39   130   133    1
    40   168   169    1
    41   153   154    1
    42   134   136   ar
    43   134   133    1
    44   131   132    2
    45   169   170    1
    46   169   172    1
    47   154   155    1
    48   154   157    1
    49   170   171    2
    50   155   156    2
    51   127   125   ar
    52   127   128   ar
    53   158   157    1
    54   125   124   ar
    55   157   159    1
    56   174   173   ar
    57   174   176   ar
    58   172   173    1
    59   173   175   ar
    60   176   177   ar
    61   175   177   ar
    62   128   126   ar
    63    43    42    2
    64   124   126   ar
    65   124   123    1
    66   123   120    1
    67    42    44   am
    68    42    41    1
    69    39    38    2
    70    52    50   ar
    71   120   121    1
    72   120   119    1
    73    40    41    1
    74    40    37    1
    75    72    71   ar
    76    72    70   ar
    77    49    50    1
    78    49    46    1
    79    76    75    2
    80    77    78    1
    81    77    74    1
    82    50    51   ar
    83   121   122    2
    84    71    69   ar
    85    48    47    2
    86    92    91    1
    87    92    93    1
    88    38    37    1
    89    38    45   am
    90   116   115    2
    91    91    88    1
    92    37    36    1
    93    70    68   ar
    94    58    57    1
    95    47    46    1
    96   119   115   am
    97    75    74    1
    98    74    73    1
    99    46    45    1
   100   115   114    1
   101    93    87    1
   102    69    66   ar
   103   105   106    1
   104   105   102    1
   105    28    26   am
   106    53    54    1
   107   117   114    1
   108   117   118    1
   109   104   103    2
   110    68    66   ar
   111    68    67   ar
   112    57    54    1
   113    36    31   am
   114    88    87    1
   115    88    89    1
   116    32    31    2
   117   114   113    1
   118    66    64   ar
   119    73    61   am
   120    87    81   am
   121    62    61    2
   122   103   102    1
   123    54    55    1
   124    26    27    2
   125    26    25    1
   126   102   101    1
   127    31    30    1
   128    89    90    2
   129    67    65   ar
   130    61    60    1
   131    55    56    2
   132    79    80    1
   133   113   109   am
   134    64    65   ar
   135    64    63    1
   136    81    80    1
   137    81    82    2
   138    25    22    1
   139   101    96   am
   140    80    83    1
   141    30    29    1
   142    30    33    1
   143    60    63    1
   144    60    59    1
   145    23    22    1
   146    23    24    2
   147   109   110    2
   148   109   108    1
   149    22    21    1
   150   107   108    1
   151    34    33    1
   152    97    96    2
   153    96    95    1
   154    33    35    1
   155    14    13    2
   156   108   111    1
   157    83    84    1
   158    83    85    1
   159   112   111    1
   160    86    84    1
   161    21    13   am
   162    13    12    1
   163    99    98    1
   164    95    94    1
   165    95    98    1
   166    98   100    1
   167     8     6   ar
   168     8    10   ar
   169     5     6    1
   170     5     2    1
   171     4     3    2
   172     6     7   ar
   173    10     9   ar
   174     3     2    1
   175     7     9   ar
   176    15    12    1
   177    15    16    1
   178    12    11    1
   179     2     1    1
   180    16    18   ar
   181    16    17   ar
   182    18    20   ar
   183    17    19   ar
   184    20    19   ar
