@<TRIPOS>MOLECULE
tmp/4lm8A09.pdb
 157 152 0 0 0
SMALL
GASTEIGER

@<TRIPOS>ATOM
      1  N          1.1720   28.5110   -6.4480 N.3   567  THR567     -0.1218
      2  CA        -0.1760   29.0640   -6.2700 C.3   567  THR567      0.1862
      3  C         -1.0780   28.7470   -7.4610 C.2   567  THR567      0.2287
      4  O         -2.2240   28.3080   -7.2990 O.2   567  THR567     -0.2866
      5  CB        -0.1070   30.5960   -6.0470 C.3   567  THR567      0.1770
      6  OG1        0.7260   30.8550   -4.9120 O.3   567  THR567     -0.2211
      7  CG2       -1.4810   31.1720   -5.7730 C.3   567  THR567      0.0375
      8  N         -2.0180   24.9040   -7.3090 N.3   570  CYS570     -0.1235
      9  CA        -2.9610   24.5470   -6.2510 C.3   570  CYS570      0.1677
     10  C         -4.3470   25.1650   -6.4600 C.2   570  CYS570      0.2270
     11  O         -5.3610   24.5430   -6.1260 O.2   570  CYS570     -0.2867
     12  CB        -2.4180   24.9800   -4.8830 C.3   570  CYS570      0.0956
     13  SG        -0.7710   24.3220   -4.4550 S.3   570  CYS570     -0.0801
     14  N         -8.5330   24.8440   -5.7890 N.3   574  HIS574     -0.1241
     15  CA        -8.7540   25.6240   -4.5860 C.3   574  HIS574      0.1621
     16  C         -8.8720   27.0930   -4.9760 C.2   574  HIS574      0.2264
     17  O         -7.9790   27.8980   -4.6730 O.2   574  HIS574     -0.2867
     18  CB        -7.5680   25.4420   -3.6270 C.3   574  HIS574      0.0745
     19  CG        -7.4190   24.0520   -3.0700 C.ar  574  HIS574      0.0817
     20  ND1       -8.1590   23.5980   -2.0030 N.ar  574  HIS574     -0.2268
     21  CD2       -6.5710   23.0430   -3.4010 C.ar  574  HIS574      0.1154
     22  CE1       -7.7910   22.3570   -1.7070 C.ar  574  HIS574      0.1986
     23  NE2       -6.8270   22.0030   -2.5320 N.ar  574  HIS574     -0.2212
     24  N        -15.1370   28.8560   -1.3900 N.3   579  GLN579     -0.1231
     25  CA       -15.2150   28.0570   -0.1610 C.3   579  GLN579      0.1698
     26  C        -14.1260   26.9860   -0.1160 C.2   579  GLN579      0.2592
     27  O        -13.9440   26.3160    0.9050 O.2   579  GLN579     -0.2718
     28  CB       -16.6020   27.4140   -0.0020 C.3   579  GLN579      0.0381
     29  CG       -16.8750   26.2350   -0.9440 C.3   579  GLN579      0.0905
     30  CD       -18.3080   25.7660   -0.8730 C.2   579  GLN579      0.2608
     31  OE1      -19.1930   26.5080   -0.4300 O.2   579  GLN579     -0.2717
     32  NE2      -18.5560   24.5320   -1.3170 N.am  579  GLN579     -0.0878
     33  N        -13.3890   26.8350   -1.2160 N.am  580  TYR580     -0.1962
     34  CA       -12.3440   25.8110   -1.2910 C.3   580  TYR580      0.1771
     35  C        -10.9400   26.3320   -0.9940 C.2   580  TYR580      0.2619
     36  O         -9.9660   25.5930   -1.1360 O.2   580  TYR580     -0.2715
     37  CB       -12.3490   25.1760   -2.6820 C.3   580  TYR580      0.0574
     38  CG       -13.7050   24.6890   -3.1110 C.ar  580  TYR580     -0.0198
     39  CD1      -14.2600   23.5410   -2.5550 C.ar  580  TYR580     -0.0009
     40  CD2      -14.4270   25.3690   -4.0820 C.ar  580  TYR580     -0.0009
     41  CE1      -15.5010   23.0870   -2.9560 C.ar  580  TYR580      0.0417
     42  CE2      -15.6780   24.9230   -4.4840 C.ar  580  TYR580      0.0417
     43  CZ       -16.2020   23.7810   -3.9200 C.ar  580  TYR580      0.1957
     44  OH       -17.4460   23.3260   -4.3160 O.3   580  TYR580     -0.2866
     45  N        -10.8260   27.5930   -0.5800 N.am  581  MET581     -0.1963
     46  CA        -9.5150   28.1420   -0.2340 C.3   581  MET581      0.1736
     47  C         -9.6250   29.0460    0.9980 C.2   581  MET581      0.2616
     48  O        -10.2930   30.0830    0.9630 O.2   581  MET581     -0.2715
     49  CB        -8.9240   28.8820   -1.4390 C.3   581  MET581      0.0427
     50  CG        -7.6160   29.6200   -1.1770 C.3   581  MET581      0.0599
     51  SD        -6.2890   28.4930   -0.6940 S.3   581  MET581     -0.1393
     52  CE        -5.1890   28.6050   -2.1020 C.3   581  MET581      0.0692
     53  N         -8.9840   28.6380    2.0920 N.am  582  VAL582     -0.1963
     54  CA        -8.9890   29.4360    3.3130 C.3   582  VAL582      0.1727
     55  C         -8.0750   30.6700    3.2210 C.2   582  VAL582      0.2616
     56  O         -8.4710   31.7610    3.6420 O.2   582  VAL582     -0.2715
     57  CB        -8.6570   28.5880    4.5590 C.3   582  VAL582      0.0290
     58  CG1       -9.8280   27.6690    4.8930 C.3   582  VAL582      0.0023
     59  CG2       -7.3730   27.7920    4.3490 C.3   582  VAL582      0.0023
     60  N         -6.8780   30.5100    2.6570 N.am  583  HIS583     -0.1973
     61  CA        -5.9540   31.6420    2.4900 C.3   583  HIS583      0.1656
     62  C         -6.6000   32.7260    1.6260 C.2   583  HIS583      0.2291
     63  O         -7.0340   32.4510    0.5060 O.2   583  HIS583     -0.2864
     64  CB        -4.6620   31.2200    1.7640 C.3   583  HIS583      0.0771
     65  CG        -3.8070   30.2290    2.4940 C.ar  583  HIS583      0.0820
     66  ND1       -3.5980   30.2620    3.8580 N.ar  583  HIS583     -0.2267
     67  CD2       -3.0670   29.1920    2.0270 C.ar  583  HIS583      0.1154
     68  CE1       -2.7830   29.2770    4.2000 C.ar  583  HIS583      0.1986
     69  NE2       -2.4540   28.6090    3.1080 N.ar  583  HIS583     -0.2212
     70  N         -1.9070   35.0470    0.6420 N.3   588  LEU588     -0.1245
     71  CA        -1.0770   34.3690   -0.3620 C.3   588  LEU588      0.1561
     72  C          0.0400   35.2950   -0.8520 C.2   588  LEU588      0.2260
     73  O          1.1690   34.8500   -1.0860 O.2   588  LEU588     -0.2867
     74  CB        -1.9100   33.8690   -1.5480 C.3   588  LEU588      0.0270
     75  CG        -2.9440   32.7800   -1.2580 C.3   588  LEU588      0.0019
     76  CD1       -3.8680   32.5960   -2.4630 C.3   588  LEU588      0.0001
     77  CD2       -2.2500   31.4590   -0.9240 C.3   588  LEU588      0.0001
     78  N          2.9720   35.3970    1.3110 N.3   591  PHE591     -0.1241
     79  CA         3.8000   34.2030    1.1780 C.3   591  PHE591      0.1605
     80  C          4.5990   34.2670   -0.1240 C.2   591  PHE591      0.2264
     81  O          5.1160   33.2420   -0.5920 O.2   591  PHE591     -0.2867
     82  CB         2.9330   32.9300    1.1560 C.3   591  PHE591      0.0534
     83  CG         2.2190   32.6420    2.4560 C.ar  591  PHE591     -0.0203
     84  CD1        2.7580   33.0350    3.6730 C.ar  591  PHE591     -0.0042
     85  CD2        1.0020   31.9680    2.4480 C.ar  591  PHE591     -0.0042
     86  CE1        2.0930   32.7650    4.8650 C.ar  591  PHE591     -0.0003
     87  CE2        0.3350   31.6880    3.6300 C.ar  591  PHE591     -0.0003
     88  CZ         0.8810   32.0920    4.8420 C.ar  591  PHE591     -0.0000
     89  N          3.4530   35.0940   -3.2060 N.3   593  ALA593     -0.1245
     90  CA         2.7050   34.8030   -4.4250 C.3   593  ALA593      0.1562
     91  C          2.2570   36.0530   -5.1760 C.2   593  ALA593      0.2260
     92  O          2.0870   37.1280   -4.5870 O.2   593  ALA593     -0.2867
     93  CB         1.4980   33.9220   -4.1130 C.3   593  ALA593      0.0290
     94  N          7.8660   32.1120   -3.7330 N.3   609  GLU609     -0.1231
     95  CA         6.7790   31.5340   -2.9390 C.3   609  GLU609      0.1699
     96  C          7.3280   30.6960   -1.7900 C.2   609  GLU609      0.2593
     97  O          8.2320   29.8680   -1.9840 O.2   609  GLU609     -0.2718
     98  CB         5.8820   30.6560   -3.8190 C.3   609  GLU609      0.0402
     99  CG         5.2260   31.3940   -4.9770 C.3   609  GLU609      0.1161
    100  CD         4.5040   30.4450   -5.9120 C.2   609  GLU609      0.3649
    101  OE1        3.2770   30.6000   -6.0790 O.co2 609  GLU609     -0.2457
    102  OE2        5.1740   29.5590   -6.4810 O.co2 609  GLU609     -0.2457
    103  N          6.7730   30.8840   -0.5950 N.am  610  THR610     -0.1939
    104  CA         7.2250   30.1270    0.5700 C.3   610  THR610      0.2028
    105  C          6.3110   28.9540    0.9260 C.2   610  THR610      0.2642
    106  O          6.4280   28.3930    2.0070 O.2   610  THR610     -0.2714
    107  CB         7.3870   31.0490    1.8010 C.3   610  THR610      0.1808
    108  OG1        6.1250   31.6450    2.1300 O.3   610  THR610     -0.2208
    109  CG2        8.3760   32.1540    1.4870 C.3   610  THR610      0.0379
    110  N          5.4260   28.5680    0.0070 N.am  611  CYS611     -0.1967
    111  CA         4.4120   27.5340    0.2900 C.3   611  CYS611      0.1712
    112  C          4.9560   26.2480    0.9060 C.2   611  CYS611      0.2296
    113  O          4.3590   25.6940    1.8380 O.2   611  CYS611     -0.2864
    114  CB         3.6640   27.1640   -0.9970 C.3   611  CYS611      0.0983
    115  SG         3.1520   28.5900   -1.9920 S.3   611  CYS611     -0.0798
    116  N          7.4870   25.7050    2.6880 N.3   613  TYR613     -0.1227
    117  CA         8.0360   25.7660    4.0380 C.3   613  TYR613      0.1736
    118  C          7.0730   25.0610    4.9800 C.2   613  TYR613      0.2596
    119  O          7.4770   24.3840    5.9320 O.2   613  TYR613     -0.2718
    120  CB         8.2730   27.2140    4.5000 C.3   613  TYR613      0.0548
    121  CG         8.6240   27.2570    5.9710 C.ar  613  TYR613     -0.0200
    122  CD1        9.8940   26.9040    6.4120 C.ar  613  TYR613     -0.0009
    123  CD2        7.6740   27.6030    6.9200 C.ar  613  TYR613     -0.0009
    124  CE1       10.2070   26.9140    7.7630 C.ar  613  TYR613      0.0417
    125  CE2        7.9770   27.6190    8.2650 C.ar  613  TYR613      0.0417
    126  CZ         9.2370   27.2760    8.6810 C.ar  613  TYR613      0.1957
    127  OH         9.5150   27.2980   10.0260 O.3   613  TYR613     -0.2866
    128  N          5.7850   25.2070    4.6910 N.am  614  CYS614     -0.1956
    129  CA         4.7420   24.6360    5.5200 C.3   614  CYS614      0.1843
    130  C          4.1550   23.3730    4.9010 C.2   614  CYS614      0.2625
    131  O          3.9540   22.3610    5.5960 O.2   614  CYS614     -0.2714
    132  CB         3.6150   25.6460    5.6840 C.3   614  CYS614      0.0997
    133  SG         4.0050   27.0270    6.7940 S.3   614  CYS614     -0.0797
    134  N          3.8450   23.4420    3.6060 N.am  615  HIS615     -0.1973
    135  CA         3.1890   22.3220    2.9290 C.3   615  HIS615      0.1656
    136  C          4.1950   21.2640    2.5190 C.2   615  HIS615      0.2291
    137  O          5.2120   21.5740    1.9040 O.2   615  HIS615     -0.2864
    138  CB         2.3950   22.7960    1.7040 C.3   615  HIS615      0.0771
    139  CG         1.1830   23.6020    2.0560 C.ar  615  HIS615      0.0820
    140  ND1       -0.0440   23.0280    2.3010 N.ar  615  HIS615     -0.2267
    141  CD2        1.0180   24.9380    2.2210 C.ar  615  HIS615      0.1154
    142  CE1       -0.9200   23.9770    2.5980 C.ar  615  HIS615      0.1986
    143  NE2       -0.3000   25.1400    2.5540 N.ar  615  HIS615     -0.2212
    144  N         -2.4120   16.8660    1.5150 N.3   623  THR623     -0.1218
    145  CA        -2.8590   17.9230    2.4280 C.3   623  THR623      0.1862
    146  C         -1.9110   18.1280    3.6170 C.2   623  THR623      0.2287
    147  O         -2.1380   18.9950    4.4790 O.2   623  THR623     -0.2866
    148  CB        -4.2890   17.6290    2.9380 C.3   623  THR623      0.1770
    149  OG1       -4.2390   16.6430    3.9740 O.3   623  THR623     -0.2211
    150  CG2       -5.1620   17.0980    1.7950 C.3   623  THR623      0.0375
    151  N          0.7100   19.2270    6.2150 N.3   625  VAL625     -0.1245
    152  CA         1.5480   20.3620    6.5920 C.3   625  VAL625      0.1561
    153  C          2.3710   19.9780    7.8340 C.2   625  VAL625      0.2260
    154  O          2.0310   19.0220    8.5360 O.2   625  VAL625     -0.2867
    155  CB         0.7080   21.6170    6.8960 C.3   625  VAL625      0.0252
    156  CG1       -0.0680   22.0620    5.6660 C.3   625  VAL625      0.0019
    157  CG2       -0.2430   21.3440    8.0410 C.3   625  VAL625      0.0019
@<TRIPOS>BOND
     1     3     4    2
     2     3     2    1
     3     8     9    1
     4   102   100   ar
     5    10     9    1
     6    10    11    2
     7     1     2    1
     8     2     5    1
     9     9    12    1
    10   101   100   ar
    11     5     7    1
    12     5     6    1
    13   100    99    1
    14    14    15    1
    15    91    92    2
    16    91    90    1
    17    99    98    1
    18    16    17    2
    19    16    15    1
    20    12    13    1
    21    15    18    1
    22    42    40   ar
    23    42    43   ar
    24    90    93    1
    25    90    89    1
    26    44    43    1
    27    40    38   ar
    28    43    41   ar
    29    98    95    1
    30    94    95    1
    31    18    19    1
    32    21    19   ar
    33    21    23   ar
    34    38    37    1
    35    38    39   ar
    36    19    20   ar
    37    41    39   ar
    38    95    96    1
    39    37    34    1
    40    23    22   ar
    41    76    75    1
    42    52    51    1
    43    20    22   ar
    44   115   114    1
    45    97    96    2
    46    96   103   am
    47    74    75    1
    48    74    71    1
    49    49    50    1
    50    49    46    1
    51    24    25    1
    52    32    30   am
    53    34    33    1
    54    34    35    1
    55    75    77    1
    56    33    26   am
    57    50    51    1
    58    36    35    2
    59    73    72    2
    60   114   111    1
    61    35    45   am
    62    29    30    1
    63    29    28    1
    64    30    31    2
    65    72    71    1
    66   103   104    1
    67    81    80    2
    68    45    46    1
    69    71    70    1
    70    46    47    1
    71    25    26    1
    72    25    28    1
    73    80    79    1
    74    26    27    2
    75   110   111    1
    76   110   105   am
    77   111   112    1
    78    63    62    2
    79   104   105    1
    80   104   107    1
    81   112   113    2
    82   105   106    2
    83    48    47    2
    84    47    53   am
    85    82    79    1
    86    82    83    1
    87    79    78    1
    88   109   107    1
    89   144   145    1
    90    62    61    1
    91   138   139    1
    92   138   135    1
    93    64    61    1
    94    64    65    1
    95   150   148    1
    96   107   108    1
    97   137   136    2
    98    67    65   ar
    99    67    69   ar
   100   139   141   ar
   101   139   140   ar
   102    53    54    1
   103   141   143   ar
   104   140   142   ar
   105   145   148    1
   106   145   146    1
   107    85    83   ar
   108    85    87   ar
   109    83    84   ar
   110    61    60    1
   111    65    66   ar
   112   136   135    1
   113   143   142   ar
   114    60    55   am
   115   116   117    1
   116   135   134    1
   117   148   149    1
   118    69    68   ar
   119    55    54    1
   120    55    56    2
   121    54    57    1
   122   134   130   am
   123   146   147    2
   124    87    88   ar
   125    84    86   ar
   126    66    68   ar
   127   117   120    1
   128   117   118    1
   129    59    57    1
   130   120   121    1
   131    57    58    1
   132   128   118   am
   133   128   129    1
   134    88    86   ar
   135   130   129    1
   136   130   131    2
   137   118   119    2
   138   129   132    1
   139   156   155    1
   140   132   133    1
   141   121   122   ar
   142   121   123   ar
   143   151   152    1
   144   122   124   ar
   145   152   155    1
   146   152   153    1
   147   155   157    1
   148   123   125   ar
   149   124   126   ar
   150   153   154    2
   151   125   126   ar
   152   126   127    1
