@<TRIPOS>MOLECULE
tmp/4lm8A01.pdb
 224 220 0 0 0
SMALL
GASTEIGER

@<TRIPOS>ATOM
      1  N        -21.0260  -10.9190    6.5540 N.3    42  LYS42      -0.1231
      2  CA       -22.0920  -10.0740    6.0130 C.3    42  LYS42       0.1693
      3  C        -23.1600  -10.9210    5.3070 C.2    42  LYS42       0.2591
      4  O        -24.3600  -10.6050    5.3570 O.2    42  LYS42      -0.2718
      5  CB       -21.4810   -9.0350    5.0590 C.3    42  LYS42       0.0285
      6  CG       -22.4120   -7.8690    4.6690 C.3    42  LYS42       0.0035
      7  CD       -21.6440   -6.8260    3.8580 C.3    42  LYS42       0.0206
      8  CE       -22.5730   -5.7990    3.2170 C.3    42  LYS42       0.1093
      9  NZ       -23.3020   -4.9650    4.2210 N.3    42  LYS42      -0.1314
     10  N        -22.7130  -11.9990    4.6590 N.am   43  LYS43      -0.1980
     11  CA       -23.6010  -12.9290    3.9550 C.3    43  LYS43       0.1596
     12  C        -23.0320  -14.3440    4.0140 C.2    43  LYS43       0.2287
     13  O        -21.8280  -14.5540    3.7870 O.2    43  LYS43      -0.2864
     14  CB       -23.7740  -12.5350    2.4780 C.3    43  LYS43       0.0298
     15  CG       -24.4010  -11.1680    2.2190 C.3    43  LYS43       0.0038
     16  CD       -25.9030  -11.1320    2.5530 C.3    43  LYS43       0.0206
     17  CE       -26.4680   -9.7070    2.3940 C.3    43  LYS43       0.1093
     18  NZ       -27.9440   -9.6530    2.6760 N.3    43  LYS43      -0.1314
     19  N        -17.8750    1.9120   -3.7840 N.3   152  ILE152     -0.1231
     20  CA       -18.3310    2.0860   -5.1560 C.3   152  ILE152      0.1692
     21  C        -19.8450    2.2580   -5.1070 C.2   152  ILE152      0.2592
     22  O        -20.5780    1.2990   -4.8720 O.2   152  ILE152     -0.2718
     23  CB       -17.9370    0.8940   -6.0550 C.3   152  ILE152      0.0266
     24  CG1      -16.4210    0.6980   -6.0460 C.3   152  ILE152      0.0019
     25  CG2      -18.3830    1.1340   -7.4820 C.3   152  ILE152      0.0020
     26  CD1      -15.9680   -0.5410   -6.7820 C.3   152  ILE152      0.0001
     27  N        -20.2880    3.4960   -5.3170 N.am  153  TYR153     -0.1962
     28  CA       -21.6830    3.9140   -5.1280 C.3   153  TYR153      0.1771
     29  C        -22.1220    3.8610   -3.6670 C.2   153  TYR153      0.2620
     30  O        -22.3340    4.9130   -3.0330 O.2   153  TYR153     -0.2715
     31  CB       -22.6680    3.1500   -6.0290 C.3   153  TYR153      0.0574
     32  CG       -24.0820    3.6910   -5.8850 C.ar  153  TYR153     -0.0198
     33  CD1      -25.0850    2.9330   -5.2940 C.ar  153  TYR153     -0.0009
     34  CD2      -24.3940    4.9850   -6.3110 C.ar  153  TYR153     -0.0009
     35  CE1      -26.3810    3.4360   -5.1570 C.ar  153  TYR153      0.0417
     36  CE2      -25.6770    5.4940   -6.1770 C.ar  153  TYR153      0.0417
     37  CZ       -26.6600    4.7170   -5.5960 C.ar  153  TYR153      0.1957
     38  OH       -27.9280    5.2300   -5.4580 O.3   153  TYR153     -0.2866
     39  N        -22.2640    2.6560   -3.1250 N.am  154  HIS154     -0.1959
     40  CA       -22.6410    2.5090   -1.7170 C.3   154  HIS154      0.1787
     41  C        -22.2430    1.1590   -1.1160 C.2   154  HIS154      0.2620
     42  O        -21.7360    0.2950   -1.8300 O.2   154  HIS154     -0.2715
     43  CB       -24.1450    2.7920   -1.5210 C.3   154  HIS154      0.0785
     44  CG       -25.0630    1.6830   -1.9440 C.ar  154  HIS154      0.0821
     45  ND1      -26.4300    1.7610   -1.7910 N.ar  154  HIS154     -0.2267
     46  CD2      -24.8230    0.4680   -2.5080 C.ar  154  HIS154      0.1154
     47  CE1      -26.9940    0.6520   -2.2410 C.ar  154  HIS154      0.1986
     48  NE2      -26.0380   -0.1480   -2.6800 N.ar  154  HIS154     -0.2212
     49  N        -22.4260    1.0160    0.1990 N.am  155  GLN155     -0.1963
     50  CA       -22.3320   -0.2740    0.9070 C.3   155  GLN155      0.1733
     51  C        -20.9490   -0.9250    1.0380 C.2   155  GLN155      0.2616
     52  O        -20.5920   -1.4200    2.1200 O.2   155  GLN155     -0.2715
     53  CB       -23.2940   -1.3000    0.2950 C.3   155  GLN155      0.0408
     54  CG       -24.7340   -1.1950    0.7760 C.3   155  GLN155      0.0908
     55  CD       -24.9470   -1.9310    2.0720 C.2   155  GLN155      0.2608
     56  OE1      -24.0830   -2.7000    2.5130 O.2   155  GLN155     -0.2717
     57  NE2      -26.0960   -1.7090    2.6950 N.am  155  GLN155     -0.0878
     58  N        -20.1890   -0.9710   -0.0570 N.am  156  ALA156     -0.1963
     59  CA       -18.9420   -1.7440   -0.0600 C.3   156  ALA156      0.1728
     60  C        -17.9100   -1.2380   -1.0540 C.2   156  ALA156      0.2617
     61  O        -18.1830   -0.3070   -1.8260 O.2   156  ALA156     -0.2715
     62  CB       -19.2330   -3.2240   -0.3100 C.3   156  ALA156      0.0334
     63  N        -16.7310   -1.8650   -1.0280 N.am  157  THR157     -0.1937
     64  CA       -15.5980   -1.4500   -1.8600 C.3   157  THR157      0.2028
     65  C        -15.1240   -2.4970   -2.8620 C.2   157  THR157      0.2642
     66  O        -14.3070   -2.1830   -3.7240 O.2   157  THR157     -0.2714
     67  CB       -14.3750   -1.0390   -1.0070 C.3   157  THR157      0.1808
     68  OG1      -13.8240   -2.1940   -0.3500 O.3   157  THR157     -0.2208
     69  CG2      -14.7770   -0.0140    0.0250 C.3   157  THR157      0.0379
     70  N        -15.6130   -3.7350   -2.7400 N.am  158  GLU158     -0.1976
     71  CA       -15.1830   -4.8200   -3.6320 C.3   158  GLU158      0.1602
     72  C        -16.3840   -5.5070   -4.2700 C.2   158  GLU158      0.2287
     73  O        -17.3890   -5.7510   -3.6090 O.2   158  GLU158     -0.2864
     74  CB       -14.2760   -5.8370   -2.9000 C.3   158  GLU158      0.0415
     75  CG       -12.8750   -5.2680   -2.5840 C.3   158  GLU158      0.1163
     76  CD       -11.9530   -6.2410   -1.8570 C.2   158  GLU158      0.3649
     77  OE1      -10.9490   -5.7840   -1.2670 O.co2 158  GLU158     -0.2457
     78  OE2      -12.2180   -7.4570   -1.8770 O.co2 158  GLU158     -0.2457
     79  N        -18.6400   -8.4310   -2.8030 N.3   161  THR161     -0.1203
     80  CA       -19.5840   -8.0440   -1.7680 C.3   161  THR161      0.1994
     81  C        -20.9010   -7.5890   -2.3870 C.2   161  THR161      0.2618
     82  O        -21.9740   -7.9700   -1.9000 O.2   161  THR161     -0.2717
     83  CB       -18.9820   -6.9550   -0.8570 C.3   161  THR161      0.1784
     84  OG1      -17.7300   -7.4250   -0.3320 O.3   161  THR161     -0.2211
     85  CG2      -19.9040   -6.6460    0.3070 C.3   161  THR161      0.0376
     86  N        -20.8330   -6.7950   -3.4590 N.am  162  CYS162     -0.1969
     87  CA       -22.0560   -6.3660   -4.1550 C.3   162  CYS162      0.1712
     88  C        -22.8000   -7.5750   -4.6900 C.2   162  CYS162      0.2296
     89  O        -24.0260   -7.6460   -4.6420 O.2   162  CYS162     -0.2864
     90  CB       -21.7620   -5.4570   -5.3590 C.3   162  CYS162      0.0983
     91  SG       -20.3940   -4.2840   -5.2620 S.3   162  CYS162     -0.0798
     92  N        -24.9470   -9.6020   -2.1630 N.3   165  CYS165     -0.1221
     93  CA       -26.2100   -9.0510   -1.6900 C.3   165  CYS165      0.1808
     94  C        -27.2020   -8.8930   -2.8340 C.2   165  CYS165      0.2601
     95  O        -28.3750   -9.2610   -2.6970 O.2   165  CYS165     -0.2717
     96  CB       -25.9870   -7.7120   -0.9980 C.3   165  CYS165      0.0970
     97  SG       -27.5040   -7.0100   -0.2870 S.3   165  CYS165     -0.0800
     98  N        -26.7330   -8.3630   -3.9650 N.am  166  HIS166     -0.1975
     99  CA       -27.5920   -8.1120   -5.1260 C.3   166  HIS166      0.1656
    100  C        -27.8460   -9.4040   -5.9170 C.2   166  HIS166      0.2291
    101  O        -27.5100   -9.4910   -7.1020 O.2   166  HIS166     -0.2864
    102  CB       -26.9660   -7.0480   -6.0580 C.3   166  HIS166      0.0771
    103  CG       -27.1660   -5.6280   -5.6120 C.ar  166  HIS166      0.0820
    104  ND1      -28.2400   -4.8660   -6.0140 N.ar  166  HIS166     -0.2267
    105  CD2      -26.4020   -4.8190   -4.8340 C.ar  166  HIS166      0.1154
    106  CE1      -28.1500   -3.6580   -5.4770 C.ar  166  HIS166      0.1986
    107  NE2      -27.0420   -3.6010   -4.7700 N.ar  166  HIS166     -0.2212
    108  N        -32.6650  -11.8290   -4.0950 N.3   170  PHE170     -0.1241
    109  CA       -32.8540  -10.4700   -3.5900 C.3   170  PHE170      0.1605
    110  C        -33.7840   -9.6910   -4.5020 C.2   170  PHE170      0.2264
    111  O        -34.7450   -9.0580   -4.0500 O.2   170  PHE170     -0.2867
    112  CB       -31.4660   -9.8140   -3.4960 C.3   170  PHE170      0.0534
    113  CG       -31.4730   -8.3200   -3.2950 C.ar  170  PHE170     -0.0203
    114  CD1      -31.5940   -7.7790   -2.0240 C.ar  170  PHE170     -0.0042
    115  CD2      -31.2740   -7.4660   -4.3720 C.ar  170  PHE170     -0.0042
    116  CE1      -31.5580   -6.4020   -1.8310 C.ar  170  PHE170     -0.0003
    117  CE2      -31.2400   -6.0850   -4.1910 C.ar  170  PHE170     -0.0003
    118  CZ       -31.3790   -5.5550   -2.9220 C.ar  170  PHE170     -0.0000
    119  N        -37.9750   -8.5040   -3.9910 N.3   174  ARG174     -0.1245
    120  CA       -38.3760   -7.1030   -4.0730 C.3   174  ARG174      0.1563
    121  C        -39.2680   -6.8290   -5.2700 C.2   174  ARG174      0.2260
    122  O        -39.7730   -5.7040   -5.4300 O.2   174  ARG174     -0.2867
    123  CB       -37.1350   -6.2120   -4.1600 C.3   174  ARG174      0.0307
    124  CG       -36.3740   -6.1480   -2.8710 C.3   174  ARG174      0.0489
    125  CD       -35.0800   -5.3540   -2.9580 C.3   174  ARG174      0.2205
    126  NE       -34.6060   -5.1490   -1.5980 N.pl3 174  ARG174     -0.0865
    127  CZ       -34.6910   -4.0020   -0.9350 C.cat 174  ARG174      0.5346
    128  NH1      -35.1800   -2.9180   -1.5230 N.pl3 174  ARG174      0.1354
    129  NH2      -34.2580   -3.9340    0.3140 N.pl3 174  ARG174      0.1354
    130  N        -38.1850   -6.6790   -8.3010 N.3   176  LYS176     -0.1245
    131  CA       -37.4260   -5.7430   -9.1420 C.3   176  LYS176      0.1561
    132  C        -36.2840   -6.4680   -9.8460 C.2   176  LYS176      0.2260
    133  O        -35.1560   -6.4750   -9.3390 O.2   176  LYS176     -0.2867
    134  CB       -36.8470   -4.6040   -8.2960 C.3   176  LYS176      0.0271
    135  CG       -37.8800   -3.7270   -7.5880 C.3   176  LYS176      0.0035
    136  CD       -37.2140   -2.7180   -6.6440 C.3   176  LYS176      0.0206
    137  CE       -38.2500   -1.8190   -5.9710 C.3   176  LYS176      0.1093
    138  NZ       -37.6510   -0.9540   -4.9110 N.3   176  LYS176     -0.1314
    139  N        -34.4200   -5.6580  -12.1850 N.3   178  HIS178     -0.1226
    140  CA       -33.2910   -4.8000  -12.5420 C.3   178  HIS178      0.1752
    141  C        -32.2360   -4.6230  -11.4430 C.2   178  HIS178      0.2595
    142  O        -31.1350   -4.1310  -11.7200 O.2   178  HIS178     -0.2718
    143  CB       -33.7740   -3.4320  -13.0690 C.3   178  HIS178      0.0759
    144  CG       -34.4960   -2.6040  -12.0510 C.ar  178  HIS178      0.0818
    145  ND1      -35.8670   -2.6720  -11.8630 N.ar  178  HIS178     -0.2268
    146  CD2      -34.0500   -1.6740  -11.1710 C.ar  178  HIS178      0.1154
    147  CE1      -36.2220   -1.8320  -10.9130 C.ar  178  HIS178      0.1986
    148  NE2      -35.1370   -1.2120  -10.4710 N.ar  178  HIS178     -0.2212
    149  N        -32.5430   -5.0050  -10.2020 N.am  179  VAL179     -0.1980
    150  CA       -31.5400   -4.8590   -9.1510 C.3   179  VAL179      0.1595
    151  C        -30.6840   -6.1040   -8.9460 C.2   179  VAL179      0.2287
    152  O        -29.7970   -6.1040   -8.1020 O.2   179  VAL179     -0.2864
    153  CB       -32.1190   -4.3730   -7.7830 C.3   179  VAL179      0.0276
    154  CG1      -32.8370   -3.0500   -7.9600 C.3   179  VAL179      0.0022
    155  CG2      -33.0400   -5.4230   -7.1570 C.3   179  VAL179      0.0022
    156  N        -27.5430   -8.1190   -9.6280 N.3   181  PHE181     -0.1241
    157  CA       -26.2890   -7.4480   -9.9810 C.3   181  PHE181      0.1605
    158  C        -25.8920   -7.5890  -11.4470 C.2   181  PHE181      0.2264
    159  O        -25.3390   -6.6570  -12.0280 O.2   181  PHE181     -0.2867
    160  CB       -25.1090   -7.8460   -9.0820 C.3   181  PHE181      0.0534
    161  CG       -24.0610   -6.7520   -8.9710 C.ar  181  PHE181     -0.0203
    162  CD1      -22.8420   -6.8590   -9.6330 C.ar  181  PHE181     -0.0042
    163  CD2      -24.3320   -5.5930   -8.2540 C.ar  181  PHE181     -0.0042
    164  CE1      -21.8840   -5.8200   -9.5560 C.ar  181  PHE181     -0.0003
    165  CE2      -23.3980   -4.5510   -8.1790 C.ar  181  PHE181     -0.0003
    166  CZ       -22.1710   -4.6720   -8.8240 C.ar  181  PHE181     -0.0000
    167  N        -27.9200   -4.8520  -13.1940 N.3   184  LEU184     -0.1231
    168  CA       -27.4830   -3.5590  -12.6600 C.3   184  LEU184      0.1693
    169  C        -26.1240   -3.0930  -13.1830 C.2   184  LEU184      0.2591
    170  O        -25.9670   -1.9220  -13.5550 O.2   184  LEU184     -0.2718
    171  CB       -27.4710   -3.6270  -11.1220 C.3   184  LEU184      0.0284
    172  CG       -27.1150   -2.4300  -10.2270 C.3   184  LEU184      0.0019
    173  CD1      -27.5890   -2.7070   -8.8100 C.3   184  LEU184      0.0001
    174  CD2      -25.6140   -2.1550  -10.2080 C.3   184  LEU184      0.0001
    175  N        -25.1350   -3.9820  -13.1930 N.am  185  ILE185     -0.1980
    176  CA       -23.7690   -3.5480  -13.4940 C.3   185  ILE185      0.1595
    177  C        -23.6330   -2.9680  -14.9080 C.2   185  ILE185      0.2287
    178  O        -22.9140   -1.9880  -15.1180 O.2   185  ILE185     -0.2864
    179  CB       -22.7350   -4.6710  -13.2170 C.3   185  ILE185      0.0276
    180  CG1      -21.3070   -4.1190  -13.3220 C.3   185  ILE185      0.0022
    181  CG2      -22.9720   -5.8850  -14.1410 C.3   185  ILE185      0.0022
    182  CD1      -21.0580   -2.9570  -12.3470 C.3   185  ILE185      0.0001
    183  N        -26.2970   -1.8660  -16.7050 N.3   187  ASN187     -0.1225
    184  CA       -27.2270   -0.7390  -16.6710 C.3   187  ASN187      0.1785
    185  C        -26.5590    0.5640  -16.2500 C.2   187  ASN187      0.2597
    186  O        -26.7300    1.5970  -16.9060 O.2   187  ASN187     -0.2718
    187  CB       -28.3930   -1.0480  -15.7140 C.3   187  ASN187      0.1169
    188  CG       -29.4990    0.0020  -15.7720 C.2   187  ASN187      0.2627
    189  OD1      -29.5320    0.8400  -16.6790 O.2   187  ASN187     -0.2716
    190  ND2      -30.4100   -0.0420  -14.8090 N.am  187  ASN187     -0.0877
    191  N        -25.7930    0.5240  -15.1670 N.am  188  VAL188     -0.1980
    192  CA       -25.1990    1.7570  -14.6280 C.3   188  VAL188      0.1595
    193  C        -24.0350    2.3120  -15.4680 C.2   188  VAL188      0.2287
    194  O        -23.5790    3.4410  -15.2250 O.2   188  VAL188     -0.2864
    195  CB       -24.7930    1.6520  -13.1180 C.3   188  VAL188      0.0276
    196  CG1      -26.0010    1.3060  -12.2400 C.3   188  VAL188      0.0022
    197  CG2      -23.6770    0.6340  -12.9140 C.3   188  VAL188      0.0022
    198  N        -31.1040    5.0710  -14.7250 N.3   195  TRP195     -0.1227
    199  CA       -31.2130    4.2100  -13.5390 C.3   195  TRP195      0.1737
    200  C        -31.4450    4.9990  -12.2530 C.2   195  TRP195      0.2596
    201  O        -31.1340    6.1990  -12.1730 O.2   195  TRP195     -0.2718
    202  CB       -29.9770    3.3010  -13.3850 C.3   195  TRP195      0.0564
    203  CG       -28.6940    4.0410  -13.0570 C.ar  195  TRP195      0.0003
    204  CD1      -27.8060    4.5770  -13.9460 C.ar  195  TRP195      0.0946
    205  CD2      -28.1670    4.3150  -11.7490 C.ar  195  TRP195      0.0152
    206  NE1      -26.7620    5.1650  -13.2770 N.ar  195  TRP195     -0.2442
    207  CE2      -26.9610    5.0200  -11.9250 C.ar  195  TRP195      0.0810
    208  CE3      -28.6000    4.0280  -10.4480 C.ar  195  TRP195      0.0012
    209  CZ2      -26.1820    5.4550  -10.8480 C.ar  195  TRP195      0.0191
    210  CZ3      -27.8260    4.4510   -9.3770 C.ar  195  TRP195      0.0001
    211  CH2      -26.6270    5.1600   -9.5840 C.ar  195  TRP195      0.0015
    212  N        -31.9790    4.3160  -11.2410 N.am  196  GLY196     -0.1942
    213  CA       -32.1150    4.8970   -9.9190 C.3   196  GLY196      0.2014
    214  C        -33.3830    5.7080   -9.7090 C.2   196  GLY196      0.2638
    215  O        -34.0400    6.1280  -10.6650 O.2   196  GLY196     -0.2714
    216  N        -33.7080    5.9590   -8.4450 N.am  197  LYS197     -0.1977
    217  CA       -34.8750    6.7630   -8.0930 C.3   197  LYS197      0.1596
    218  C        -34.6470    8.2290   -8.4420 C.2   197  LYS197      0.2287
    219  O        -35.3720    9.1060   -7.9780 O.2   197  LYS197     -0.2864
    220  CB       -35.1600    6.6590   -6.5940 C.3   197  LYS197      0.0298
    221  CG       -35.3680    5.2460   -6.0680 C.3   197  LYS197      0.0038
    222  CD       -35.5980    5.2570   -4.5590 C.3   197  LYS197      0.0206
    223  CE       -36.1890    3.9430   -4.0630 C.3   197  LYS197      0.1093
    224  NZ       -35.1520    3.0660   -3.4580 N.3   197  LYS197     -0.1314
@<TRIPOS>BOND
     1   186   185    2
     2   183   184    1
     3   189   188    2
     4   184   185    1
     5   184   187    1
     6   185   191   am
     7   188   187    1
     8   188   190   am
     9   193   194    2
    10   193   192    1
    11   191   192    1
    12   178   177    2
    13   177   176    1
    14   198   199    1
    15   192   195    1
    16   181   179    1
    17   204   206   ar
    18   204   203   ar
    19   170   169    2
    20   199   202    1
    21   199   200    1
    22   176   179    1
    23   176   175    1
    24   202   203    1
    25   180   179    1
    26   180   182    1
    27   206   207   ar
    28   167   168    1
    29   175   169   am
    30   169   168    1
    31   195   197    1
    32   195   196    1
    33   143   140    1
    34   143   144    1
    35   203   205   ar
    36   168   171    1
    37   140   139    1
    38   140   141    1
    39   200   201    2
    40   200   212   am
    41   144   145   ar
    42   144   146   ar
    43   159   158    2
    44   207   205   ar
    45   207   209   ar
    46   145   147   ar
    47   205   208   ar
    48   142   141    2
    49   158   157    1
    50   141   149   am
    51   212   213    1
    52   146   148   ar
    53   171   172    1
    54   147   148   ar
    55   209   211   ar
    56   215   214    2
    57   208   210   ar
    58   172   174    1
    59   172   173    1
    60   149   150    1
    61   157   156    1
    62   157   160    1
    63   213   214    1
    64   132   133    2
    65   132   131    1
    66   214   216   am
    67   162   164   ar
    68   162   161   ar
    69   211   210   ar
    70   164   166   ar
    71   150   151    1
    72   150   153    1
    73   131   130    1
    74   131   134    1
    75   160   161    1
    76   161   163   ar
    77   151   152    2
    78   166   165   ar
    79   216   217    1
    80   218   217    1
    81   218   219    2
    82   134   135    1
    83   163   165   ar
    84   217   220    1
    85   154   153    1
    86   153   155    1
    87   135   136    1
    88    25    23    1
    89   101   100    2
    90    26    24    1
    91   136   137    1
    92   220   221    1
    93    34    36   ar
    94    34    32   ar
    95    36    37   ar
    96   221   222    1
    97   102   103    1
    98   102    99    1
    99    23    24    1
   100    23    20    1
   101    31    32    1
   102    31    28    1
   103   104   103   ar
   104   104   106   ar
   105   137   138    1
   106   100    99    1
   107    32    33   ar
   108   103   105   ar
   109    37    38    1
   110    37    35   ar
   111   106   107   ar
   112   122   121    2
   113    90    91    1
   114    90    87    1
   115    27    28    1
   116    27    21   am
   117    33    35   ar
   118   121   120    1
   119    20    21    1
   120    20    19    1
   121    28    29    1
   122    99    98    1
   123    21    22    2
   124   105   107   ar
   125    88    89    2
   126    88    87    1
   127   222   223    1
   128   110   111    2
   129   110   109    1
   130   115   117   ar
   131   115   113   ar
   132    72    71    1
   133    72    73    2
   134   117   118   ar
   135   123   120    1
   136   123   124    1
   137    87    86    1
   138   108   109    1
   139   120   119    1
   140   223   224    1
   141    98    94   am
   142    66    65    2
   143    29    39   am
   144    29    30    2
   145    71    74    1
   146    71    70    1
   147   109   112    1
   148   112   113    1
   149    86    81   am
   150   113   114   ar
   151    39    40    1
   152   125   124    1
   153   125   126    1
   154   118   116   ar
   155    74    75    1
   156    65    70   am
   157    65    64    1
   158    94    95    2
   159    94    93    1
   160    79    80    1
   161    48    46   ar
   162    48    47   ar
   163    75    76    1
   164    46    44   ar
   165    81    82    2
   166    81    80    1
   167    47    45   ar
   168    92    93    1
   169   114   116   ar
   170    44    45   ar
   171    44    43    1
   172    78    76   ar
   173    64    63    1
   174    64    67    1
   175    76    77   ar
   176    42    41    2
   177    61    60    2
   178    80    83    1
   179    40    43    1
   180    40    41    1
   181    93    96    1
   182   126   127    2
   183   128   127    1
   184    41    49   am
   185    60    63   am
   186    60    59    1
   187    67    68    1
   188    67    69    1
   189    96    97    1
   190   127   129    1
   191    83    84    1
   192    83    85    1
   193    62    59    1
   194    59    58    1
   195    58    51   am
   196    49    50    1
   197    53    54    1
   198    53    50    1
   199    54    55    1
   200    50    51    1
   201    51    52    2
   202    55    56    2
   203    55    57   am
   204    15    14    1
   205    15    16    1
   206    17    16    1
   207    17    18    1
   208    14    11    1
   209     8     7    1
   210     8     9    1
   211    13    12    2
   212     7     6    1
   213    11    12    1
   214    11    10    1
   215    10     3   am
   216     6     5    1
   217     5     2    1
   218     3     4    2
   219     3     2    1
   220     2     1    1
