@<TRIPOS>MOLECULE
tmp/4lm9A00.pdb
 154 152 0 0 0
SMALL
GASTEIGER

@<TRIPOS>ATOM
      1  N        -12.9050   77.1880   -7.5290 N.3     1  GLU1       -0.1231
      2  CA       -12.9530   76.8810   -6.1070 C.3     1  GLU1        0.1699
      3  C        -11.5750   77.0680   -5.4590 C.2     1  GLU1        0.2592
      4  O        -10.6540   77.6300   -6.0560 O.2     1  GLU1       -0.2718
      5  CB       -13.4480   75.4380   -5.8950 C.3     1  GLU1        0.0402
      6  CG       -12.4960   74.3850   -6.4330 C.3     1  GLU1        0.1161
      7  CD       -12.7650   72.9980   -5.8810 C.2     1  GLU1        0.3649
      8  OE1      -13.1130   72.8840   -4.6840 O.co2   1  GLU1       -0.2457
      9  OE2      -12.6310   72.0180   -6.6460 O.co2   1  GLU1       -0.2457
     10  N        -11.4410   76.5760   -4.2300 N.am    2  PHE2       -0.1976
     11  CA       -10.2020   76.7030   -3.4710 C.3     2  PHE2        0.1639
     12  C         -9.5740   75.3180   -3.2350 C.2     2  PHE2        0.2290
     13  O        -10.2720   74.3730   -2.8840 O.2     2  PHE2       -0.2864
     14  CB       -10.4880   77.3890   -2.1330 C.3     2  PHE2        0.0560
     15  CG       -11.0130   78.8010   -2.2650 C.ar    2  PHE2       -0.0200
     16  CD1      -12.3370   79.0430   -2.5980 C.ar    2  PHE2       -0.0042
     17  CD2      -10.1830   79.8830   -2.0420 C.ar    2  PHE2       -0.0042
     18  CE1      -12.8130   80.3460   -2.7290 C.ar    2  PHE2       -0.0003
     19  CE2      -10.6520   81.1920   -2.1630 C.ar    2  PHE2       -0.0003
     20  CZ       -11.9690   81.4240   -2.4900 C.ar    2  PHE2       -0.0000
     21  N        -10.1590   78.2480    2.4180 N.3     6  PRO6       -0.2102
     22  CA       -10.1350   79.6870    2.6600 C.3     6  PRO6        0.1504
     23  C        -10.6530   80.0760    4.0250 C.2     6  PRO6        0.2576
     24  O        -11.2880   79.2860    4.6800 O.2     6  PRO6       -0.2718
     25  CB       -11.0940   80.2110    1.5980 C.3     6  PRO6        0.0282
     26  CG       -12.0920   79.1410    1.4640 C.3     6  PRO6        0.0208
     27  CD       -11.3850   77.8400    1.7100 C.3     6  PRO6        0.0893
     28  N        -10.3870   81.3000    4.4480 N.am    7  TYR7       -0.1963
     29  CA       -11.1420   81.8850    5.5420 C.3     7  TYR7        0.1771
     30  C        -12.5380   82.1310    4.9860 C.2     7  TYR7        0.2620
     31  O        -12.6820   82.5740    3.8420 O.2     7  TYR7       -0.2715
     32  CB       -10.4890   83.1850    6.0200 C.3     7  TYR7        0.0574
     33  CG        -9.1370   82.9940    6.6680 C.ar    7  TYR7       -0.0198
     34  CD1       -7.9720   83.1250    5.9360 C.ar    7  TYR7       -0.0009
     35  CD2       -9.0270   82.6630    8.0140 C.ar    7  TYR7       -0.0009
     36  CE1       -6.7410   82.9540    6.5180 C.ar    7  TYR7        0.0417
     37  CE2       -7.7890   82.4640    8.6060 C.ar    7  TYR7        0.0417
     38  CZ        -6.6480   82.6130    7.8530 C.ar    7  TYR7        0.1957
     39  OH        -5.4070   82.4380    8.4160 O.3     7  TYR7       -0.2866
     40  N        -13.5710   81.7940    5.7360 N.am    8  TYR8       -0.1960
     41  CA       -14.9080   81.9450    5.1880 C.3     8  TYR8        0.1771
     42  C        -15.4650   83.3440    5.5080 C.2     8  TYR8        0.2620
     43  O        -15.3210   83.8720    6.6250 O.2     8  TYR8       -0.2715
     44  CB       -15.8720   80.8240    5.6200 C.3     8  TYR8        0.0574
     45  CG       -15.6520   79.5240    4.8790 C.ar    8  TYR8       -0.0198
     46  CD1      -14.7340   78.5900    5.3480 C.ar    8  TYR8       -0.0009
     47  CD2      -16.3310   79.2350    3.6930 C.ar    8  TYR8       -0.0009
     48  CE1      -14.5150   77.3880    4.6740 C.ar    8  TYR8        0.0417
     49  CE2      -16.1080   78.0350    3.0100 C.ar    8  TYR8        0.0417
     50  CZ       -15.1900   77.1180    3.5110 C.ar    8  TYR8        0.1957
     51  OH       -14.9390   75.9230    2.8640 O.3     8  TYR8       -0.2866
     52  N        -15.9230   83.9870    4.4500 N.am    9  SER9       -0.1950
     53  CA       -16.7180   85.2060    4.5110 C.3     9  SER9        0.1924
     54  C        -18.1330   84.9560    5.0120 C.2     9  SER9        0.2314
     55  O        -18.7450   83.9450    4.6620 O.2     9  SER9       -0.2863
     56  CB       -16.8290   85.8030    3.1100 C.3     9  SER9        0.2116
     57  OG       -17.6370   86.9610    3.1270 O.3     9  SER9       -0.2180
     58  N        -20.4670   86.4980    3.8750 N.3    11  PHE11      -0.1227
     59  CA       -21.3140   87.0320    2.7900 C.3    11  PHE11       0.1736
     60  C        -21.0030   86.3970    1.4500 C.2    11  PHE11       0.2596
     61  O        -19.9200   85.8800    1.2530 O.2    11  PHE11      -0.2718
     62  CB       -21.1500   88.5580    2.6930 C.3    11  PHE11       0.0547
     63  CG       -21.5150   89.2820    3.9490 C.ar   11  PHE11      -0.0202
     64  CD1      -22.8200   89.6040    4.2090 C.ar   11  PHE11      -0.0042
     65  CD2      -20.5400   89.6270    4.8770 C.ar   11  PHE11      -0.0042
     66  CE1      -23.1680   90.2440    5.3660 C.ar   11  PHE11      -0.0003
     67  CE2      -20.8530   90.2710    6.0120 C.ar   11  PHE11      -0.0003
     68  CZ       -22.1910   90.5950    6.2770 C.ar   11  PHE11      -0.0000
     69  N        -21.9590   86.4260    0.5240 N.am   12  SER12      -0.1938
     70  CA       -21.7200   85.9790   -0.8580 C.3    12  SER12       0.2055
     71  C        -20.7490   86.9340   -1.5340 C.2    12  SER12       0.2643
     72  O        -20.5890   88.0840   -1.0970 O.2    12  SER12      -0.2714
     73  CB       -23.0460   85.9350   -1.6320 C.3    12  SER12       0.2130
     74  OG       -23.6500   87.2180   -1.6510 O.3    12  SER12      -0.2179
     75  N        -20.1150   86.4810   -2.6010 N.am   13  GLY13      -0.1954
     76  CA       -19.1140   87.2850   -3.2730 C.3    13  GLY13       0.1869
     77  C        -19.7000   88.2290   -4.2920 C.2    13  GLY13       0.2309
     78  O        -20.8860   88.1970   -4.6090 O.2    13  GLY13      -0.2863
     79  N        -11.7780   91.1860   -0.3810 N.3    47  TYR47      -0.1241
     80  CA       -10.5570   90.4610   -0.7270 C.3    47  TYR47       0.1605
     81  C        -10.7360   89.7840   -2.0940 C.2    47  TYR47       0.2264
     82  O        -11.7520   89.1130   -2.3370 O.2    47  TYR47      -0.2867
     83  CB       -10.2930   89.4040    0.3390 C.3    47  TYR47       0.0534
     84  CG        -9.1420   88.5120    0.0030 C.ar   47  TYR47      -0.0201
     85  CD1       -7.8530   88.9880    0.0650 C.ar   47  TYR47      -0.0009
     86  CD2       -9.3440   87.2120   -0.4190 C.ar   47  TYR47      -0.0009
     87  CE1       -6.7900   88.1860   -0.2380 C.ar   47  TYR47       0.0417
     88  CE2       -8.2760   86.4010   -0.7320 C.ar   47  TYR47       0.0417
     89  CZ        -7.0050   86.8990   -0.6290 C.ar   47  TYR47       0.1957
     90  OH        -5.9080   86.1270   -0.9350 O.3    47  TYR47      -0.2866
     91  N        -13.3900   87.3380   -8.2110 N.3    64  ARG64      -0.1245
     92  CA       -14.5450   87.4000   -7.3490 C.3    64  ARG64       0.1563
     93  C        -14.0830   87.8450   -5.9490 C.2    64  ARG64       0.2260
     94  O        -13.1100   87.3250   -5.4120 O.2    64  ARG64      -0.2867
     95  CB       -15.1740   86.0350   -7.2260 C.3    64  ARG64       0.0307
     96  CG       -16.3670   85.9850   -6.2500 C.3    64  ARG64       0.0489
     97  CD       -16.9680   84.6090   -6.1960 C.3    64  ARG64       0.2205
     98  NE       -17.8020   84.3190   -7.3610 N.pl3  64  ARG64      -0.0865
     99  CZ       -17.9710   83.1070   -7.8840 C.cat  64  ARG64       0.5346
    100  NH1      -17.3390   82.0560   -7.3850 N.pl3  64  ARG64       0.1354
    101  NH2      -18.7580   82.9530   -8.9290 N.pl3  64  ARG64       0.1354
    102  N        -14.6010   88.8170   -1.8510 N.3    66  TYR66      -0.1241
    103  CA       -15.3050   88.4140   -0.6460 C.3    66  TYR66       0.1605
    104  C        -15.0440   89.3760    0.5090 C.2    66  TYR66       0.2264
    105  O        -13.8990   89.8340    0.7010 O.2    66  TYR66      -0.2867
    106  CB       -14.8330   87.0230   -0.2180 C.3    66  TYR66       0.0534
    107  CG       -15.2790   85.9010   -1.1460 C.ar   66  TYR66      -0.0201
    108  CD1      -16.5700   85.4020   -1.1090 C.ar   66  TYR66      -0.0009
    109  CD2      -14.3980   85.3470   -2.0540 C.ar   66  TYR66      -0.0009
    110  CE1      -16.9660   84.3540   -1.9630 C.ar   66  TYR66       0.0417
    111  CE2      -14.7780   84.3030   -2.8850 C.ar   66  TYR66       0.0417
    112  CZ       -16.0620   83.8190   -2.8400 C.ar   66  TYR66       0.1957
    113  OH       -16.4090   82.7950   -3.6920 O.3    66  TYR66      -0.2866
    114  N        -14.4980   90.5310    4.3940 N.3    68  TYR68      -0.1241
    115  CA       -14.0740   90.1870    5.7430 C.3    68  TYR68       0.1605
    116  C        -14.1150   91.3670    6.6860 C.2    68  TYR68       0.2264
    117  O        -13.6420   92.4330    6.3520 O.2    68  TYR68      -0.2867
    118  CB       -12.6690   89.6330    5.7010 C.3    68  TYR68       0.0534
    119  CG       -12.6120   88.3340    4.9270 C.ar   68  TYR68      -0.0201
    120  CD1      -12.8670   87.1220    5.5440 C.ar   68  TYR68      -0.0009
    121  CD2      -12.3450   88.3420    3.5820 C.ar   68  TYR68      -0.0009
    122  CE1      -12.8150   85.9780    4.8500 C.ar   68  TYR68       0.0417
    123  CE2      -12.2940   87.2210    2.8770 C.ar   68  TYR68       0.0417
    124  CZ       -12.5140   86.0170    3.4990 C.ar   68  TYR68       0.1957
    125  OH       -12.4450   84.8810    2.7040 O.3    68  TYR68      -0.2866
    126  N        -17.5190   82.8320   10.7000 N.3   106  ARG106     -0.1245
    127  CA       -18.6320   81.9670   10.3190 C.3   106  ARG106      0.1563
    128  C        -18.1980   80.5100   10.3310 C.2   106  ARG106      0.2260
    129  O        -17.0150   80.2250   10.3660 O.2   106  ARG106     -0.2867
    130  CB       -19.1730   82.3360    8.9130 C.3   106  ARG106      0.0307
    131  CG       -20.1560   81.2910    8.3060 C.3   106  ARG106      0.0489
    132  CD       -21.0700   81.8340    7.2130 C.3   106  ARG106      0.2205
    133  NE       -20.4370   81.9050    5.8970 N.pl3 106  ARG106     -0.0865
    134  CZ       -20.4020   80.9310    5.0040 C.cat 106  ARG106      0.5346
    135  NH1      -20.9590   79.7600    5.2430 N.pl3 106  ARG106      0.1354
    136  NH2      -19.8010   81.1190    3.8480 N.pl3 106  ARG106      0.1354
    137  N        -23.7820   81.3500    3.9950 N.3   113  ALA113     -0.1245
    138  CA       -23.4070   82.7490    3.7020 C.3   113  ALA113      0.1562
    139  C        -24.6450   83.6420    3.5270 C.2   113  ALA113      0.2260
    140  O        -25.5990   83.2500    2.8800 O.2   113  ALA113     -0.2867
    141  CB       -22.5500   82.8250    2.4760 C.3   113  ALA113      0.0290
    142  N        -23.3040   88.1540   -6.1240 N.3   131  GLU131     -0.1231
    143  CA       -23.8080   86.8000   -6.0710 C.3   131  GLU131      0.1699
    144  C        -25.0480   86.7230   -5.1860 C.2   131  GLU131      0.2592
    145  O        -25.1010   87.3100   -4.0800 O.2   131  GLU131     -0.2718
    146  CB       -22.7300   85.8440   -5.5620 C.3   131  GLU131      0.0402
    147  CG       -21.4980   85.7380   -6.4790 C.3   131  GLU131      0.1161
    148  CD       -21.7960   85.1110   -7.8380 C.2   131  GLU131      0.3649
    149  OE1      -20.9810   85.2640   -8.7740 O.co2 131  GLU131     -0.2457
    150  OE2      -22.8470   84.4580   -7.9760 O.co2 131  GLU131     -0.2457
    151  N        -26.0460   85.9840   -5.6730 N.am  132  GLY132     -0.1957
    152  CA       -27.3110   85.8550   -4.9680 C.3   132  GLY132      0.1869
    153  C        -28.3330   86.8030   -5.5730 C.2   132  GLY132      0.2309
    154  O        -29.5020   86.8250   -5.1750 O.2   132  GLY132     -0.2863
@<TRIPOS>BOND
     1   101    99    1
     2   149   148   ar
     3    91    92    1
     4   150   148   ar
     5    99   100    1
     6    99    98    2
     7   148   147    1
     8     1     2    1
     9    98    97    1
    10    92    95    1
    11    92    93    1
    12    95    96    1
    13     9     7   ar
    14   147   146    1
    15     6     5    1
    16     6     7    1
    17    96    97    1
    18   142   143    1
    19     2     5    1
    20     2     3    1
    21   143   146    1
    22   143   144    1
    23     4     3    2
    24    93    94    2
    25     7     8   ar
    26   151   144   am
    27   151   152    1
    28   153   154    2
    29   153   152    1
    30     3    10   am
    31   144   145    2
    32    78    77    2
    33    77    76    1
    34    10    11    1
    35   113   112    1
    36    11    12    1
    37    11    14    1
    38    76    75    1
    39    12    13    2
    40   111   112   ar
    41   111   109   ar
    42   112   110   ar
    43    18    16   ar
    44    18    20   ar
    45    75    71   am
    46    16    15   ar
    47    20    19   ar
    48    82    81    2
    49    15    14    1
    50    15    17   ar
    51    19    17   ar
    52    81    80    1
    53   109   107   ar
    54   110   108   ar
    55   102   103    1
    56    74    73    1
    57    73    70    1
    58    71    72    2
    59    71    70    1
    60   107   108   ar
    61   107   106    1
    62    90    89    1
    63    70    69    1
    64    88    89   ar
    65    88    86   ar
    66    80    79    1
    67    80    83    1
    68   103   106    1
    69   103   104    1
    70    89    87   ar
    71    86    84   ar
    72    87    85   ar
    73    84    85   ar
    74    84    83    1
    75   104   105    2
    76    69    60   am
    77    61    60    2
    78    60    59    1
    79    26    25    1
    80    26    27    1
    81    25    22    1
    82    27    21    1
    83    21    22    1
    84   141   138    1
    85    22    23    1
    86    62    59    1
    87    62    63    1
    88   125   124    1
    89    59    58    1
    90    51    50    1
    91   123   124   ar
    92   123   121   ar
    93   140   139    2
    94    49    50   ar
    95    49    47   ar
    96    56    57    1
    97    56    53    1
    98   124   122   ar
    99    50    48   ar
   100   139   138    1
   101   121   119   ar
   102    47    45   ar
   103   138   137    1
   104    31    30    2
   105   136   134    1
   106    63    64   ar
   107    63    65   ar
   108    23    28   am
   109    23    24    2
   110    64    66   ar
   111   114   115    1
   112    28    29    1
   113    52    53    1
   114    52    42   am
   115    53    54    1
   116    55    54    2
   117    48    46   ar
   118   122   120   ar
   119    65    67   ar
   120    45    46   ar
   121    45    44    1
   122   119   120   ar
   123   119   118    1
   124    30    29    1
   125    30    40   am
   126   134   135    1
   127   134   133    2
   128    41    42    1
   129    41    44    1
   130    41    40    1
   131    66    68   ar
   132    42    43    2
   133    29    32    1
   134   118   115    1
   135   115   116    1
   136   133   132    1
   137    34    36   ar
   138    34    33   ar
   139    67    68   ar
   140    32    33    1
   141   117   116    2
   142    36    38   ar
   143    33    35   ar
   144   132   131    1
   145    38    39    1
   146    38    37   ar
   147    35    37   ar
   148   131   130    1
   149   130   127    1
   150   127   128    1
   151   127   126    1
   152   128   129    2
