@<TRIPOS>MOLECULE
tmp/4lmaA02.pdb
 145 137 0 0 0
SMALL
GASTEIGER

@<TRIPOS>ATOM
      1  N         26.3290    0.6500   -6.8730 N.3    44  SER44      -0.1202
      2  CA        25.4790    0.4650   -8.0480 C.3    44  SER44       0.2020
      3  C         26.2000   -0.2650   -9.1720 C.2    44  SER44       0.2619
      4  O         27.4280   -0.2860   -9.2280 O.2    44  SER44      -0.2717
      5  CB        24.8990    1.8030   -8.5590 C.3    44  SER44       0.2103
      6  OG        25.7630    2.4120   -9.4990 O.3    44  SER44      -0.2182
      7  N         25.4030   -0.8370  -10.0730 N.am   45  VAL45      -0.1965
      8  CA        25.8710   -1.4410  -11.3170 C.3    45  VAL45       0.1727
      9  C         26.7950   -0.5320  -12.1470 C.2    45  VAL45       0.2616
     10  O         27.6540   -1.0260  -12.8890 O.2    45  VAL45      -0.2715
     11  CB        24.6680   -1.9010  -12.1850 C.3    45  VAL45       0.0290
     12  CG1       23.8120   -0.7170  -12.6230 C.3    45  VAL45       0.0023
     13  CG2       25.1420   -2.7110  -13.3880 C.3    45  VAL45       0.0023
     14  N         26.6010    0.7780  -12.0320 N.am   46  LYS46      -0.1977
     15  CA        27.3720    1.7410  -12.8100 C.3    46  LYS46       0.1596
     16  C         28.8750    1.5200  -12.6630 C.2    46  LYS46       0.2287
     17  O         29.6220    1.5990  -13.6380 O.2    46  LYS46      -0.2864
     18  CB        27.0100    3.1710  -12.4020 C.3    46  LYS46       0.0298
     19  CG        25.6850    3.6590  -12.9630 C.3    46  LYS46       0.0038
     20  CD        25.3530    2.9700  -14.2770 C.3    46  LYS46       0.0206
     21  CE        24.0940    3.5490  -14.9010 C.3    46  LYS46       0.1093
     22  NZ        22.8620    2.9170  -14.3530 N.3    46  LYS46      -0.1314
     23  N         30.7110    0.2940  -15.5490 N.3    49  ILE49      -0.1245
     24  CA        30.9680    1.1520  -16.7200 C.3    49  ILE49       0.1561
     25  C         31.8330    2.3660  -16.3900 C.2    49  ILE49       0.2260
     26  O         32.5950    2.8320  -17.2370 O.2    49  ILE49      -0.2867
     27  CB        29.6860    1.5460  -17.5070 C.3    49  ILE49       0.0252
     28  CG1       28.8550    2.6010  -16.7630 C.3    49  ILE49       0.0019
     29  CG2       28.8650    0.3060  -17.8520 C.3    49  ILE49       0.0019
     30  CD1       27.6290    3.0550  -17.5280 C.3    49  ILE49       0.0001
     31  N         23.5730    7.4220  -11.3200 N.3    77  ASN77      -0.1240
     32  CA        24.6920    6.7180  -10.7040 C.3    77  ASN77       0.1653
     33  C         25.9910    6.7270  -11.4980 C.2    77  ASN77       0.2266
     34  O         27.0600    6.5390  -10.9180 O.2    77  ASN77      -0.2867
     35  CB        24.2930    5.2850  -10.3540 C.3    77  ASN77       0.1155
     36  CG        23.3400    5.2200   -9.1790 C.2    77  ASN77       0.2627
     37  OD1       23.5250    5.9240   -8.1820 O.2    77  ASN77      -0.2716
     38  ND2       22.3180    4.3710   -9.2830 N.am   77  ASN77      -0.0877
     39  N         30.4260   -0.0260  -22.7650 N.3   153  ASN153     -0.1240
     40  CA        29.3680   -0.1860  -21.7710 C.3   153  ASN153      0.1653
     41  C         28.7710   -1.6040  -21.8630 C.2   153  ASN153      0.2266
     42  O         28.8770   -2.3670  -20.9040 O.2   153  ASN153     -0.2867
     43  CB        28.3290    0.9440  -21.9200 C.3   153  ASN153      0.1155
     44  CG        27.0980    0.7750  -21.0350 C.2   153  ASN153      0.2627
     45  OD1       26.8270   -0.2960  -20.4800 O.2   153  ASN153     -0.2716
     46  ND2       26.3240    1.8500  -20.9220 N.am  153  ASN153     -0.0877
     47  N         29.7320   -5.6900  -19.5030 N.3   157  HIS157     -0.1241
     48  CA        28.6790   -6.6120  -19.1210 C.3   157  HIS157      0.1621
     49  C         28.8090   -7.9360  -19.8200 C.2   157  HIS157      0.2264
     50  O         28.4130   -8.9680  -19.2670 O.2   157  HIS157     -0.2867
     51  CB        27.3070   -5.9860  -19.3600 C.3   157  HIS157      0.0745
     52  CG        27.0150   -4.8130  -18.4510 C.ar  157  HIS157      0.0817
     53  ND1       26.8400   -4.9540  -17.1190 N.ar  157  HIS157     -0.2268
     54  CD2       26.8930   -3.4510  -18.7220 C.ar  157  HIS157      0.1154
     55  CE1       26.6060   -3.7480  -16.5690 C.ar  157  HIS157      0.1986
     56  NE2       26.6430   -2.8270  -17.5500 N.ar  157  HIS157     -0.2212
     57  N         15.5940   -3.9510  -15.8740 N.3   179  GLY179     -0.1210
     58  CA        15.2450   -2.6020  -16.3040 C.3   179  GLY179      0.1956
     59  C         16.3090   -2.0290  -17.2190 C.2   179  GLY179      0.2612
     60  O         17.4990   -2.3140  -17.0620 O.2   179  GLY179     -0.2717
     61  N         15.8710   -1.2240  -18.1850 N.am  180  VAL180     -0.1965
     62  CA        16.7700   -0.6300  -19.1700 C.3   180  VAL180      0.1727
     63  C         16.9900    0.8460  -18.8400 C.2   180  VAL180      0.2617
     64  O         16.0340    1.6370  -18.7950 O.2   180  VAL180     -0.2715
     65  CB        16.2190   -0.8090  -20.6060 C.3   180  VAL180      0.0290
     66  CG1       17.0170    0.0000  -21.6260 C.3   180  VAL180      0.0023
     67  CG2       16.1970   -2.2900  -20.9880 C.3   180  VAL180      0.0023
     68  N         18.2460    1.1980  -18.5750 N.am  181  GLY181     -0.1940
     69  CA        18.6620    2.5880  -18.4310 C.3   181  GLY181      0.2014
     70  C         19.3810    2.9830  -19.7070 C.2   181  GLY181      0.2640
     71  O         18.7810    3.5500  -20.6270 O.2   181  GLY181     -0.2714
     72  N         20.6700    2.6670  -19.7600 N.am  182  THR182     -0.1936
     73  CA        21.4360    2.7430  -20.9950 C.3   182  THR182      0.2028
     74  C         21.2010    1.4620  -21.7930 C.2   182  THR182      0.2643
     75  O         21.3860    1.4390  -23.0050 O.2   182  THR182     -0.2714
     76  CB        22.9490    2.8890  -20.7240 C.3   182  THR182      0.1808
     77  OG1       23.4610    1.6750  -20.1500 O.3   182  THR182     -0.2208
     78  CG2       23.2350    4.0770  -19.7920 C.3   182  THR182      0.0379
     79  N         20.7960    0.3970  -21.1000 N.am  183  GLY183     -0.1939
     80  CA        20.5700   -0.9050  -21.7300 C.3   183  GLY183      0.2014
     81  C         21.8150   -1.7710  -21.7620 C.2   183  GLY183      0.2639
     82  O         21.7860   -2.8860  -22.2840 O.2   183  GLY183     -0.2714
     83  N         22.9060   -1.2630  -21.1950 N.am  184  GLY184     -0.1939
     84  CA        24.1830   -1.9800  -21.1760 C.3   184  GLY184      0.2014
     85  C         24.1370   -3.3350  -20.4860 C.2   184  GLY184      0.2640
     86  O         24.6670   -4.3230  -21.0140 O.2   184  GLY184     -0.2714
     87  N         23.4920   -3.3780  -19.3190 N.am  185  THR185     -0.1936
     88  CA        23.4070   -4.5950  -18.5030 C.3   185  THR185      0.2028
     89  C         22.7110   -5.7340  -19.2360 C.2   185  THR185      0.2642
     90  O         23.2970   -6.7950  -19.4490 O.2   185  THR185     -0.2714
     91  CB        22.6810   -4.3440  -17.1620 C.3   185  THR185      0.1808
     92  OG1       23.3710   -3.3310  -16.4230 O.3   185  THR185     -0.2208
     93  CG2       22.6230   -5.6250  -16.3290 C.3   185  THR185      0.0379
     94  N         21.4650   -5.5060  -19.6240 N.am  186  ILE186     -0.1977
     95  CA        20.6780   -6.5340  -20.2830 C.3   186  ILE186      0.1596
     96  C         21.2970   -6.9530  -21.6270 C.2   186  ILE186      0.2287
     97  O         21.2100   -8.1180  -22.0150 O.2   186  ILE186     -0.2864
     98  CB        19.1950   -6.1060  -20.4360 C.3   186  ILE186      0.0276
     99  CG1       18.2960   -7.3430  -20.5490 C.3   186  ILE186      0.0022
    100  CG2       19.0100   -5.1210  -21.5950 C.3   186  ILE186      0.0022
    101  CD1       16.8190   -7.0440  -20.6710 C.3   186  ILE186      0.0001
    102  N         13.7360    5.9180  -10.7850 N.3   224  GLN224     -0.1231
    103  CA        15.1100    6.3860  -10.9430 C.3   224  GLN224      0.1698
    104  C         16.0310    5.2760  -11.4560 C.2   224  GLN224      0.2593
    105  O         16.0680    4.1840  -10.8920 O.2   224  GLN224     -0.2718
    106  CB        15.6250    6.9380   -9.6030 C.3   224  GLN224      0.0381
    107  CG        17.1400    7.1040   -9.5050 C.3   224  GLN224      0.0905
    108  CD        17.6190    8.4890   -9.9080 C.2   224  GLN224      0.2608
    109  OE1       17.1120    9.4990   -9.4170 O.2   224  GLN224     -0.2717
    110  NE2       18.6160    8.5410  -10.7910 N.am  224  GLN224     -0.0878
    111  N         16.7600    5.5640  -12.5300 N.am  225  GLY225     -0.1942
    112  CA        17.7420    4.6340  -13.0740 C.3   225  GLY225      0.2014
    113  C         17.3580    4.0380  -14.4130 C.2   225  GLY225      0.2638
    114  O         18.2350    3.6890  -15.2140 O.2   225  GLY225     -0.2714
    115  N         16.0530    3.9050  -14.6520 N.am  226  ILE226     -0.1977
    116  CA        15.5680    3.3290  -15.9070 C.3   226  ILE226      0.1596
    117  C         14.6680    4.2990  -16.6750 C.2   226  ILE226      0.2287
    118  O         14.1850    5.2840  -16.1150 O.2   226  ILE226     -0.2864
    119  CB        14.8370    1.9700  -15.7020 C.3   226  ILE226      0.0276
    120  CG1       13.5010    2.1550  -14.9720 C.3   226  ILE226      0.0022
    121  CG2       15.7450    0.9610  -15.0080 C.3   226  ILE226      0.0022
    122  CD1       12.6500    0.9020  -14.8940 C.3   226  ILE226      0.0001
    123  N         17.2810    0.2400   -4.4760 N.3   267  GLY267     -0.1225
    124  CA        16.6550    1.3660   -5.1660 C.3   267  GLY267      0.1811
    125  C         15.3210    0.9740   -5.7770 C.2   267  GLY267      0.2280
    126  O         14.9650   -0.2090   -5.8080 O.2   267  GLY267     -0.2866
    127  N         14.3830    0.9690   -8.8820 N.3   269  SER269     -0.1217
    128  CA        14.5350    0.1360  -10.0880 C.3   269  SER269      0.1889
    129  C         14.6340   -1.3540   -9.7540 C.2   269  SER269      0.2288
    130  O         14.1880   -2.1940  -10.5370 O.2   269  SER269     -0.2866
    131  CB        15.7170    0.5930  -10.9490 C.3   269  SER269      0.2089
    132  OG        16.9410    0.4940  -10.2440 O.3   269  SER269     -0.2183
    133  N         19.9470   -3.2270   -9.3180 N.3   296  PRO296     -0.2102
    134  CA        20.9530   -2.3000   -9.8340 C.3   296  PRO296      0.1504
    135  C         21.6800   -1.4930   -8.7620 C.2   296  PRO296      0.2576
    136  O         22.8230   -1.0940   -8.9730 O.2   296  PRO296     -0.2718
    137  CB        20.1390   -1.3660  -10.7350 C.3   296  PRO296      0.0282
    138  CG        18.9350   -2.1650  -11.1150 C.3   296  PRO296      0.0208
    139  CD        18.6120   -2.9480   -9.8810 C.3   296  PRO296      0.0893
    140  N         21.0290   -1.2440   -7.6300 N.am  297  SER297     -0.1953
    141  CA        21.6460   -0.4250   -6.5880 C.3   297  SER297      0.1924
    142  C         21.1740   -0.7630   -5.1740 C.2   297  SER297      0.2314
    143  O         20.0660   -1.2560   -4.9880 O.2   297  SER297     -0.2863
    144  CB        21.4160    1.0650   -6.8830 C.3   297  SER297      0.2116
    145  OG        20.0330    1.3710   -6.8570 O.3   297  SER297     -0.2180
@<TRIPOS>BOND
     1    75    74    2
     2    39    40    1
     3    82    81    2
     4    97    96    2
     5    43    40    1
     6    43    44    1
     7    41    40    1
     8    41    42    2
     9    74    79   am
    10    74    73    1
    11    81    80    1
    12    81    83   am
    13    80    79    1
    14    96    95    1
    15    66    65    1
    16   100    98    1
    17    83    84    1
    18    84    85    1
    19    44    46   am
    20    44    45    2
    21    86    85    2
    22    73    76    1
    23    73    72    1
    24    67    65    1
    25    76    77    1
    26    76    78    1
    27   101    99    1
    28    71    70    2
    29    65    62    1
    30    99    98    1
    31    85    87   am
    32    98    95    1
    33    95    94    1
    34    49    50    2
    35    49    48    1
    36    72    70   am
    37    70    69    1
    38    94    89   am
    39    47    48    1
    40    90    89    2
    41    51    48    1
    42    51    52    1
    43    87    88    1
    44    89    88    1
    45    62    63    1
    46    62    61    1
    47    63    64    2
    48    63    68   am
    49    54    52   ar
    50    54    56   ar
    51    68    69    1
    52    88    91    1
    53    52    53   ar
    54    61    59   am
    55    29    27    1
    56    56    55   ar
    57    30    28    1
    58    27    28    1
    59    27    24    1
    60    26    25    2
    61    59    60    2
    62    59    58    1
    63    91    92    1
    64    91    93    1
    65    53    55   ar
    66    24    25    1
    67    24    23    1
    68   117   118    2
    69   117   116    1
    70    58    57    1
    71   116   119    1
    72   116   115    1
    73   119   121    1
    74   119   120    1
    75   114   113    2
    76   120   122    1
    77    21    22    1
    78    21    20    1
    79   115   113   am
    80   113   112    1
    81    20    19    1
    82    17    16    2
    83    13    11    1
    84   112   111    1
    85    19    18    1
    86    10     9    2
    87    15    16    1
    88    15    18    1
    89    15    14    1
    90    12    11    1
    91   111   104   am
    92    11     8    1
    93     9    14   am
    94     9     8    1
    95    33    34    2
    96    33    32    1
    97   104   103    1
    98   104   105    2
    99    31    32    1
   100     8     7    1
   101   138   137    1
   102   138   139    1
   103   131   132    1
   104   131   128    1
   105   103   102    1
   106   103   106    1
   107   110   108   am
   108   137   134    1
   109    32    35    1
   110   130   129    2
   111    35    36    1
   112   128   129    1
   113   128   127    1
   114     7     3   am
   115   108   107    1
   116   108   109    2
   117   139   133    1
   118   134   133    1
   119   134   135    1
   120   106   107    1
   121     6     5    1
   122    38    36   am
   123     4     3    2
   124    36    37    2
   125     3     2    1
   126   136   135    2
   127   135   140   am
   128     5     2    1
   129     2     1    1
   130   140   141    1
   131   144   145    1
   132   144   141    1
   133   141   142    1
   134   126   125    2
   135   125   124    1
   136   142   143    2
   137   124   123    1
