@<TRIPOS>MOLECULE
tmp/4lmaA01.pdb
 85 79 0 0 0
SMALL
GASTEIGER

@<TRIPOS>ATOM
      1  N          7.8740    0.9030   -6.2400 N.3   252  PHE252     -0.1241
      2  CA         8.1420    1.3450   -4.8650 C.3   252  PHE252      0.1605
      3  C          7.7370    0.2880   -3.8400 C.2   252  PHE252      0.2264
      4  O          8.4910    0.0070   -2.8950 O.2   252  PHE252     -0.2867
      5  CB         7.4440    2.6860   -4.5590 C.3   252  PHE252      0.0534
      6  CG         7.6880    3.2060   -3.1530 C.ar  252  PHE252     -0.0203
      7  CD1        8.7800    4.0250   -2.8740 C.ar  252  PHE252     -0.0042
      8  CD2        6.8140    2.8880   -2.1130 C.ar  252  PHE252     -0.0042
      9  CE1        9.0030    4.5020   -1.5850 C.ar  252  PHE252     -0.0003
     10  CE2        7.0280    3.3690   -0.8260 C.ar  252  PHE252     -0.0003
     11  CZ         8.1240    4.1770   -0.5620 C.ar  252  PHE252     -0.0000
     12  N         10.0090   -2.5830   -3.7400 N.3   255  GLY255     -0.1210
     13  CA        11.2290   -2.1270   -3.0740 C.3   255  GLY255      0.1956
     14  C         11.0840   -2.2100   -1.5590 C.2   255  GLY255      0.2611
     15  O         11.9780   -2.7090   -0.8620 O.2   255  GLY255     -0.2717
     16  N          9.9540   -1.7240   -1.0490 N.am  256  ARG256     -0.1979
     17  CA         9.6420   -1.8270    0.3780 C.3   256  ARG256      0.1597
     18  C          9.6750   -3.2880    0.8330 C.2   256  ARG256      0.2287
     19  O         10.2560   -3.6070    1.8710 O.2   256  ARG256     -0.2864
     20  CB         8.2720   -1.2100    0.6990 C.3   256  ARG256      0.0334
     21  CG         8.1690    0.2960    0.5140 C.3   256  ARG256      0.0492
     22  CD         8.5700    1.0660    1.7670 C.3   256  ARG256      0.2205
     23  NE         9.9700    0.8340    2.0760 N.pl3 256  ARG256     -0.0865
     24  CZ        10.4550    0.3950    3.2310 C.cat 256  ARG256      0.5346
     25  NH1        9.6760    0.1700    4.2780 N.pl3 256  ARG256      0.1354
     26  NH2       11.7550    0.2000    3.3270 N.pl3 256  ARG256      0.1354
     27  N         13.1860   -4.8610    1.1410 N.3   259  ALA259     -0.1245
     28  CA        13.8550   -4.4280    2.3660 C.3   259  ALA259      0.1562
     29  C         13.3370   -5.1960    3.5760 C.2   259  ALA259      0.2260
     30  O         14.1230   -5.7560    4.3360 O.2   259  ALA259     -0.2867
     31  CB        13.6810   -2.9320    2.5740 C.3   259  ALA259      0.0290
     32  N         17.8910   -3.9480    1.0800 N.3   265  LEU265     -0.1231
     33  CA        17.6530   -2.5290    0.8220 C.3   265  LEU265      0.1693
     34  C         18.1040   -2.1500   -0.5900 C.2   265  LEU265      0.2592
     35  O         19.2760   -2.2650   -0.9270 O.2   265  LEU265     -0.2718
     36  CB        18.3560   -1.6600    1.8700 C.3   265  LEU265      0.0284
     37  CG        17.9430   -0.1870    1.8600 C.3   265  LEU265      0.0019
     38  CD1       16.4740   -0.0160    2.2280 C.3   265  LEU265      0.0001
     39  CD2       18.8340    0.6410    2.7750 C.3   265  LEU265      0.0001
     40  N         17.1580   -1.6940   -1.4040 N.am  266  SER266     -0.1952
     41  CA        17.3830   -1.5550   -2.8420 C.3   266  SER266      0.1924
     42  C         16.7390   -0.2840   -3.3810 C.2   266  SER266      0.2314
     43  O         15.7590    0.2080   -2.8170 O.2   266  SER266     -0.2863
     44  CB        16.8000   -2.7710   -3.5670 C.3   266  SER266      0.2116
     45  OG        17.1900   -3.9920   -2.9530 O.3   266  SER266     -0.2180
     46  N         14.5810    1.9670   -6.2650 N.3   268  ILE268     -0.1245
     47  CA        13.2530    1.7280   -6.8350 C.3   268  ILE268      0.1561
     48  C         13.2940    0.8700   -8.1140 C.2   268  ILE268      0.2260
     49  O         12.3550    0.1000   -8.3790 O.2   268  ILE268     -0.2867
     50  CB        12.4510    3.0470   -7.0090 C.3   268  ILE268      0.0252
     51  CG1       10.9810    2.7510   -7.3560 C.3   268  ILE268      0.0019
     52  CG2       13.1470    3.9930   -7.9850 C.3   268  ILE268      0.0019
     53  CD1       10.0630    3.9580   -7.3210 C.3   268  ILE268      0.0001
     54  N         19.8250    0.5810   -1.6110 N.3   299  GLY299     -0.1225
     55  CA        18.7180    1.5330   -1.4790 C.3   299  GLY299      0.1811
     56  C         18.9040    2.7590   -0.5990 C.2   299  GLY299      0.2280
     57  O         17.9910    3.5860   -0.4930 O.2   299  GLY299     -0.2866
     58  N         18.7830    6.1310   -2.6110 N.3   302  TYR302     -0.1227
     59  CA        17.3960    6.4340   -2.9250 C.3   302  TYR302      0.1736
     60  C         16.6500    6.9500   -1.6910 C.2   302  TYR302      0.2595
     61  O         15.9040    7.9210   -1.7810 O.2   302  TYR302     -0.2718
     62  CB        16.6770    5.2230   -3.5460 C.3   302  TYR302      0.0548
     63  CG        15.2570    5.5230   -3.9690 C.ar  302  TYR302     -0.0200
     64  CD1       14.9890    6.3830   -5.0370 C.ar  302  TYR302     -0.0009
     65  CD2       14.1800    4.9690   -3.2880 C.ar  302  TYR302     -0.0009
     66  CE1       13.6880    6.6750   -5.4180 C.ar  302  TYR302      0.0417
     67  CE2       12.8720    5.2480   -3.6640 C.ar  302  TYR302      0.0417
     68  CZ        12.6310    6.1030   -4.7250 C.ar  302  TYR302      0.1957
     69  OH        11.3270    6.3820   -5.0840 O.3   302  TYR302     -0.2866
     70  N         16.8760    6.3230   -0.5400 N.am  303  LEU303     -0.1980
     71  CA        16.2060    6.7410    0.6950 C.3   303  LEU303      0.1596
     72  C         16.4760    8.1970    1.0730 C.2   303  LEU303      0.2287
     73  O         15.5360    8.9280    1.4050 O.2   303  LEU303     -0.2864
     74  CB        16.5280    5.8080    1.8640 C.3   303  LEU303      0.0297
     75  CG        15.8370    6.0800    3.2070 C.3   303  LEU303      0.0022
     76  CD1       14.3130    6.0970    3.0930 C.3   303  LEU303      0.0001
     77  CD2       16.2860    5.0470    4.2270 C.3   303  LEU303      0.0001
     78  N         14.6290   10.4380   -1.3330 N.3   306  LEU306     -0.1245
     79  CA        13.2410   10.5930   -0.8970 C.3   306  LEU306      0.1561
     80  C         13.0880   11.5170    0.3090 C.2   306  LEU306      0.2260
     81  O         12.0700   12.1820    0.4470 O.2   306  LEU306     -0.2867
     82  CB        12.6110    9.2410   -0.5710 C.3   306  LEU306      0.0270
     83  CG        12.1170    8.3510   -1.7080 C.3   306  LEU306      0.0019
     84  CD1       11.5120    7.0950   -1.1130 C.3   306  LEU306      0.0001
     85  CD2       11.1010    9.0610   -2.5940 C.3   306  LEU306      0.0001
@<TRIPOS>BOND
     1    49    48    2
     2    48    47    1
     3    52    50    1
     4    51    53    1
     5    51    50    1
     6    50    47    1
     7    47    46    1
     8     1     2    1
     9    66    64   ar
    10    66    68   ar
    11    69    68    1
    12    64    63   ar
    13     2     5    1
    14     2     3    1
    15    68    67   ar
    16     5     6    1
    17    63    62    1
    18    63    65   ar
    19     3     4    2
    20    12    13    1
    21    67    65   ar
    22    44    45    1
    23    44    41    1
    24    62    59    1
    25    42    41    1
    26    42    43    2
    27     6     7   ar
    28     6     8   ar
    29    13    14    1
    30    59    58    1
    31    59    60    1
    32     7     9   ar
    33    41    40    1
    34    85    83    1
    35     8    10   ar
    36    61    60    2
    37    83    84    1
    38    83    82    1
    39    60    70   am
    40    54    55    1
    41     9    11   ar
    42    14    16   am
    43    14    15    2
    44    55    56    1
    45    40    34   am
    46    78    79    1
    47    16    17    1
    48    35    34    2
    49    79    82    1
    50    79    80    1
    51    10    11   ar
    52    56    57    2
    53    34    33    1
    54    70    71    1
    55    80    81    2
    56    17    20    1
    57    17    18    1
    58    21    20    1
    59    21    22    1
    60    71    72    1
    61    71    74    1
    62    33    32    1
    63    33    36    1
    64    18    19    2
    65    72    73    2
    66    27    28    1
    67    22    23    1
    68    37    36    1
    69    37    38    1
    70    37    39    1
    71    74    75    1
    72    23    24    2
    73    28    31    1
    74    28    29    1
    75    76    75    1
    76    75    77    1
    77    24    26    1
    78    24    25    1
    79    29    30    2
