@<TRIPOS>MOLECULE
tmp/4lmbA01.pdb
 101 96 0 0 0
SMALL
GASTEIGER

@<TRIPOS>ATOM
      1  N         39.5260  -17.6780   -5.8720 N.3    75  SER75      -0.1217
      2  CA        39.0200  -18.3120   -7.0970 C.3    75  SER75       0.1889
      3  C         39.8610  -19.5380   -7.4370 C.2    75  SER75       0.2288
      4  O         39.6170  -20.2010   -8.4520 O.2    75  SER75      -0.2866
      5  CB        39.0840  -17.3580   -8.2830 C.3    75  SER75       0.2089
      6  OG        40.4330  -17.0930   -8.6470 O.3    75  SER75      -0.2183
      7  N         34.4140  -22.7260   -9.8220 N.3   101  MET101     -0.1245
      8  CA        35.8370  -22.7550  -10.2180 C.3   101  MET101      0.1570
      9  C         36.2330  -24.1860  -10.5760 C.2   101  MET101      0.2261
     10  O         35.5400  -25.1320  -10.1860 O.2   101  MET101     -0.2867
     11  CB        36.7500  -22.1570   -9.1270 C.3   101  MET101      0.0387
     12  CG        36.3280  -20.7650   -8.6490 C.3   101  MET101      0.0595
     13  SD        36.3430  -19.5680  -10.0010 S.3   101  MET101     -0.1393
     14  CE        35.3620  -18.2330   -9.3040 C.3   101  MET101      0.0692
     15  N         32.3580  -14.6680   -6.0410 N.3   125  MET125     -0.1245
     16  CA        33.4030  -14.3160   -5.0690 C.3   125  MET125      0.1570
     17  C         32.8430  -13.6650   -3.8030 C.2   125  MET125      0.2261
     18  O         33.3720  -13.8760   -2.7080 O.2   125  MET125     -0.2867
     19  CB        34.4500  -13.4060   -5.7000 C.3   125  MET125      0.0387
     20  CG        35.4630  -14.1610   -6.5540 C.3   125  MET125      0.0595
     21  SD        36.2670  -15.5650   -5.7440 S.3   125  MET125     -0.1393
     22  CE        37.0820  -14.7840   -4.3540 C.3   125  MET125      0.0692
     23  N         43.7850  -10.8910    0.3620 N.3   147  GLN147     -0.1231
     24  CA        44.5320  -10.6860   -0.8890 C.3   147  GLN147      0.1698
     25  C         44.1150   -9.4560   -1.7190 C.2   147  GLN147      0.2592
     26  O         44.8900   -9.0090   -2.5630 O.2   147  GLN147     -0.2718
     27  CB        44.4550  -11.9330   -1.7630 C.3   147  GLN147      0.0381
     28  CG        43.0440  -12.2940   -2.2230 C.3   147  GLN147      0.0905
     29  CD        43.0780  -13.3790   -3.2720 C.2   147  GLN147      0.2608
     30  OE1       43.9430  -13.3660   -4.1520 O.2   147  GLN147     -0.2717
     31  NE2       42.1560  -14.3370   -3.1820 N.am  147  GLN147     -0.0878
     32  N         42.9050   -8.9470   -1.4880 N.am  148  PHE148     -0.1976
     33  CA        42.3900   -7.7780   -2.2200 C.3   148  PHE148      0.1639
     34  C         42.8330   -6.4560   -1.5810 C.2   148  PHE148      0.2290
     35  O         42.6650   -5.3970   -2.1840 O.2   148  PHE148     -0.2864
     36  CB        40.8640   -7.8290   -2.3420 C.3   148  PHE148      0.0560
     37  CG        40.3450   -9.0320   -3.0800 C.ar  148  PHE148     -0.0200
     38  CD1       40.3650   -9.0790   -4.4840 C.ar  148  PHE148     -0.0042
     39  CD2       39.7980  -10.1150   -2.3780 C.ar  148  PHE148     -0.0042
     40  CE1       39.8900  -10.1940   -5.1670 C.ar  148  PHE148     -0.0003
     41  CE2       39.3180  -11.2300   -3.0640 C.ar  148  PHE148     -0.0003
     42  CZ        39.3650  -11.2710   -4.4540 C.ar  148  PHE148     -0.0000
     43  N         42.5730   -9.5090  -11.2530 N.3   181  GLY181     -0.1210
     44  CA        41.8550  -10.3330  -10.2690 C.3   181  GLY181      0.1956
     45  C         41.8560   -9.5540   -8.9680 C.2   181  GLY181      0.2612
     46  O         40.8610   -8.9070   -8.6050 O.2   181  GLY181     -0.2717
     47  N         42.9930   -9.5810   -8.2890 N.am  182  THR182     -0.1952
     48  CA        43.2380   -8.6690   -7.1730 C.3   182  THR182      0.1897
     49  C         43.7030   -7.2990   -7.6610 C.2   182  THR182      0.2313
     50  O         43.5870   -6.3230   -6.9330 O.2   182  THR182     -0.2863
     51  CB        44.2860   -9.2110   -6.1740 C.3   182  THR182      0.1794
     52  OG1       45.6060   -9.1840   -6.7720 O.3   182  THR182     -0.2208
     53  CG2       43.9300  -10.6540   -5.7440 C.3   182  THR182      0.0378
     54  N         30.5130  -14.7590  -15.3540 N.3   221  HIS221     -0.1241
     55  CA        31.4000  -14.9190  -16.5050 C.3   221  HIS221      0.1621
     56  C         32.2960  -16.1120  -16.2690 C.2   221  HIS221      0.2264
     57  O         32.3930  -16.6180  -15.1460 O.2   221  HIS221     -0.2867
     58  CB        32.2500  -13.6630  -16.7160 C.3   221  HIS221      0.0745
     59  CG        33.3210  -13.4880  -15.6700 C.ar  221  HIS221      0.0817
     60  ND1       34.5210  -14.1100  -15.7480 N.ar  221  HIS221     -0.2268
     61  CD2       33.3290  -12.7640  -14.4860 C.ar  221  HIS221      0.1154
     62  CE1       35.2540  -13.7940  -14.6670 C.ar  221  HIS221      0.1986
     63  NE2       34.5250  -12.9730  -13.8930 N.ar  221  HIS221     -0.2212
     64  N         35.7230  -16.3700  -17.1820 N.3   223  ILE223     -0.1231
     65  CA        37.1750  -16.1330  -17.1610 C.3   223  ILE223      0.1692
     66  C         37.7330  -16.2570  -15.7310 C.2   223  ILE223      0.2592
     67  O         37.9900  -15.2600  -15.0480 O.2   223  ILE223     -0.2718
     68  CB        37.5780  -14.8100  -17.8370 C.3   223  ILE223      0.0266
     69  CG1       36.7520  -14.5720  -19.1220 C.3   223  ILE223      0.0019
     70  CG2       39.0800  -14.8060  -18.1210 C.3   223  ILE223      0.0020
     71  CD1       36.9760  -13.2000  -19.7560 C.3   223  ILE223      0.0001
     72  N         37.9170  -17.5070  -15.2940 N.am  224  GLN224     -0.1966
     73  CA        38.3990  -17.8030  -13.9390 C.3   224  GLN224      0.1733
     74  C         39.6720  -17.0740  -13.6000 C.2   224  GLN224      0.2617
     75  O         40.6260  -17.0940  -14.3780 O.2   224  GLN224     -0.2715
     76  CB        38.6450  -19.3110  -13.7570 C.3   224  GLN224      0.0408
     77  CG        37.3830  -20.1320  -13.8660 C.3   224  GLN224      0.0908
     78  CD        37.5850  -21.5920  -13.5200 C.2   224  GLN224      0.2608
     79  OE1       38.3540  -21.9380  -12.6160 O.2   224  GLN224     -0.2717
     80  NE2       36.8630  -22.4550  -14.2150 N.am  224  GLN224     -0.0878
     81  N         39.6860  -16.4560  -12.4190 N.am  225  GLY225     -0.1940
     82  CA        40.8540  -15.7190  -11.9500 C.3   225  GLY225      0.2014
     83  C         40.7930  -14.2160  -12.1360 C.2   225  GLY225      0.2639
     84  O         41.5050  -13.4930  -11.4480 O.2   225  GLY225     -0.2714
     85  N         39.9850  -13.7340  -13.0870 N.am  226  ILE226     -0.1963
     86  CA        39.7450  -12.2770  -13.2040 C.3   226  ILE226      0.1727
     87  C         38.2720  -11.9180  -12.9390 C.2   226  ILE226      0.2617
     88  O         37.4330  -12.8080  -12.7940 O.2   226  ILE226     -0.2715
     89  CB        40.3010  -11.6560  -14.5210 C.3   226  ILE226      0.0290
     90  CG1       39.5170  -12.1040  -15.7690 C.3   226  ILE226      0.0022
     91  CG2       41.8030  -11.9420  -14.6650 C.3   226  ILE226      0.0023
     92  CD1       39.7830  -11.2490  -16.9960 C.3   226  ILE226      0.0001
     93  N         37.9710  -10.6220  -12.8290 N.am  227  GLY227     -0.1940
     94  CA        36.5770  -10.1620  -12.7320 C.3   227  GLY227      0.2014
     95  C         35.9400  -10.5550  -11.4090 C.2   227  GLY227      0.2638
     96  O         35.0100  -11.3580  -11.3830 O.2   227  GLY227     -0.2714
     97  N         36.4690   -9.9930  -10.3220 N.am  228  ALA228     -0.1977
     98  CA        35.9990  -10.2760   -8.9570 C.3   228  ALA228      0.1597
     99  C         34.5870   -9.7690   -8.6800 C.2   228  ALA228      0.2287
    100  O         33.9250  -10.2540   -7.7560 O.2   228  ALA228     -0.2864
    101  CB        36.9600   -9.6990   -7.9340 C.3   228  ALA228      0.0319
@<TRIPOS>BOND
     1    71    69    1
     2    69    68    1
     3    70    68    1
     4    68    65    1
     5    64    65    1
     6    65    66    1
     7    92    90    1
     8    58    55    1
     9    58    59    1
    10    55    56    1
    11    55    54    1
    12    56    57    2
    13    90    89    1
    14    60    59   ar
    15    60    62   ar
    16    66    72   am
    17    66    67    2
    18    59    61   ar
    19    72    73    1
    20    62    63   ar
    21    91    89    1
    22    89    86    1
    23    61    63   ar
    24    75    74    2
    25    80    78   am
    26    73    76    1
    27    73    74    1
    28    77    76    1
    29    77    78    1
    30    74    81   am
    31    78    79    2
    32    86    85    1
    33    86    87    1
    34    85    83   am
    35    87    93   am
    36    87    88    2
    37    93    94    1
    38    94    95    1
    39    81    82    1
    40    83    82    1
    41    83    84    2
    42    95    96    2
    43    95    97   am
    44    43    44    1
    45     9     8    1
    46     9    10    2
    47    97    98    1
    48    44    45    1
    49     8     7    1
    50     8    11    1
    51    13    14    1
    52    13    12    1
    53    11    12    1
    54    45    46    2
    55    45    47   am
    56    98    99    1
    57    98   101    1
    58    99   100    2
    59     6     5    1
    60     4     3    2
    61    47    48    1
    62     5     2    1
    63    49    48    1
    64    49    50    2
    65     3     2    1
    66    48    51    1
    67     2     1    1
    68    52    51    1
    69    20    21    1
    70    20    19    1
    71    51    53    1
    72    15    16    1
    73    21    22    1
    74    19    16    1
    75    40    38   ar
    76    40    42   ar
    77    16    17    1
    78    38    37   ar
    79    42    41   ar
    80    30    29    2
    81    17    18    2
    82    29    31   am
    83    29    28    1
    84    37    39   ar
    85    37    36    1
    86    41    39   ar
    87    26    25    2
    88    36    33    1
    89    28    27    1
    90    33    34    1
    91    33    32    1
    92    35    34    2
    93    27    24    1
    94    25    32   am
    95    25    24    1
    96    24    23    1
