@<TRIPOS>MOLECULE
tmp/4lmbA02.pdb
 156 148 0 0 0
SMALL
GASTEIGER

@<TRIPOS>ATOM
      1  N         50.8720  -17.1840  -11.0980 N.3    45  VAL45      -0.1231
      2  CA        51.4020  -15.9180  -10.5750 C.3    45  VAL45       0.1692
      3  C         51.1940  -15.7890   -9.0580 C.2    45  VAL45       0.2591
      4  O         51.9850  -15.1290   -8.3780 O.2    45  VAL45      -0.2718
      5  CB        50.7160  -14.7290  -11.3120 C.3    45  VAL45       0.0266
      6  CG1       49.1950  -14.7250  -11.0890 C.3    45  VAL45       0.0020
      7  CG2       51.3620  -13.4000  -10.9470 C.3    45  VAL45       0.0020
      8  N         50.1710  -16.4610   -8.5230 N.am   46  LYS46      -0.1980
      9  CA        49.8410  -16.3020   -7.0940 C.3    46  LYS46       0.1596
     10  C         50.9000  -16.8060   -6.1380 C.2    46  LYS46       0.2287
     11  O         50.9140  -16.3680   -4.9870 O.2    46  LYS46      -0.2864
     12  CB        48.4800  -16.9420   -6.7440 C.3    46  LYS46       0.0298
     13  CG        47.3060  -16.3230   -7.4550 C.3    46  LYS46       0.0038
     14  CD        47.3110  -14.8100   -7.2710 C.3    46  LYS46       0.0206
     15  CE        45.9280  -14.2630   -7.4890 C.3    46  LYS46       0.1093
     16  NZ        45.3920  -14.7770   -8.7810 N.3    46  LYS46      -0.1314
     17  N         39.5260  -17.6780   -5.8720 N.3    75  SER75      -0.1217
     18  CA        39.0200  -18.3120   -7.0970 C.3    75  SER75       0.1889
     19  C         39.8610  -19.5380   -7.4370 C.2    75  SER75       0.2288
     20  O         39.6170  -20.2010   -8.4520 O.2    75  SER75      -0.2866
     21  CB        39.0840  -17.3580   -8.2830 C.3    75  SER75       0.2089
     22  OG        40.4330  -17.0930   -8.6470 O.3    75  SER75      -0.2183
     23  N         43.7510  -19.9880   -7.4290 N.3    77  ASN77      -0.1240
     24  CA        45.2130  -19.8700   -7.4180 C.3    77  ASN77       0.1653
     25  C         45.8210  -19.2910   -6.1410 C.2    77  ASN77       0.2266
     26  O         46.8160  -19.7950   -5.6580 O.2    77  ASN77      -0.2867
     27  CB        45.7080  -19.1440   -8.6690 C.3    77  ASN77       0.1155
     28  CG        45.5590  -19.9850   -9.9120 C.2    77  ASN77       0.2627
     29  OD1       45.6010  -21.2170   -9.8400 O.2    77  ASN77      -0.2716
     30  ND2       45.3930  -19.3330  -11.0700 N.am   77  ASN77      -0.0877
     31  N         41.2550  -27.1300   -9.2090 N.3   105  ARG105     -0.1245
     32  CA        41.5610  -26.2390   -8.1040 C.3   105  ARG105      0.1563
     33  C         41.1920  -26.8880   -6.7680 C.2   105  ARG105      0.2260
     34  O         41.9660  -26.8150   -5.8210 O.2   105  ARG105     -0.2867
     35  CB        40.8610  -24.8800   -8.2610 C.3   105  ARG105      0.0307
     36  CG        41.4580  -23.9990   -9.3650 C.3   105  ARG105      0.0489
     37  CD        40.4200  -22.9670   -9.8090 C.3   105  ARG105      0.2205
     38  NE        41.0320  -21.7460  -10.3520 N.pl3 105  ARG105     -0.0865
     39  CZ        41.5520  -21.6560  -11.5770 C.cat 105  ARG105      0.5346
     40  NH1       41.5420  -22.7190  -12.3870 N.pl3 105  ARG105      0.1354
     41  NH2       42.0890  -20.5070  -11.9980 N.pl3 105  ARG105      0.1354
     42  N         50.8740   -7.5960   -1.6380 N.3   153  ASN153     -0.1240
     43  CA        50.4690   -8.0810   -2.9550 C.3   153  ASN153      0.1653
     44  C         51.1000   -7.1580   -4.0460 C.2   153  ASN153      0.2266
     45  O         52.0530   -7.5750   -4.7140 O.2   153  ASN153     -0.2867
     46  CB        48.9290   -8.2260   -2.9980 C.3   153  ASN153      0.1155
     47  CG        48.3890   -8.7430   -4.3300 C.2   153  ASN153      0.2627
     48  OD1       49.0490   -8.6810   -5.3570 O.2   153  ASN153     -0.2716
     49  ND2       47.1450   -9.2070   -4.3160 N.am  153  ASN153     -0.0877
     50  N         54.9450   -7.5190   -6.5030 N.3   157  HIS157     -0.1241
     51  CA        54.9590   -7.2560   -7.9590 C.3   157  HIS157      0.1621
     52  C         55.8530   -6.0930   -8.3460 C.2   157  HIS157      0.2264
     53  O         56.5360   -6.1420   -9.3760 O.2   157  HIS157     -0.2867
     54  CB        53.5470   -7.0850   -8.4840 C.3   157  HIS157      0.0745
     55  CG        52.7640   -8.3770   -8.4910 C.ar  157  HIS157      0.0817
     56  ND1       53.1180   -9.4420   -9.2600 N.ar  157  HIS157     -0.2268
     57  CD2       51.6240   -8.7500   -7.7940 C.ar  157  HIS157      0.1154
     58  CE1       52.2420  -10.4440   -9.0500 C.ar  157  HIS157      0.1986
     59  NE2       51.3210  -10.0130   -8.1570 N.ar  157  HIS157     -0.2212
     60  N         45.2420   -9.0340  -17.1070 N.3   179  GLY179     -0.1210
     61  CA        43.9340   -9.2000  -16.4930 C.3   179  GLY179      0.1956
     62  C         44.0130   -8.7990  -15.0300 C.2   179  GLY179      0.2612
     63  O         45.0650   -8.9240  -14.4060 O.2   179  GLY179     -0.2717
     64  N         42.8910   -8.3360  -14.4860 N.am  180  VAL180     -0.1965
     65  CA        42.8220   -7.9340  -13.0850 C.3   180  VAL180      0.1727
     66  C         41.9600   -8.8950  -12.2650 C.2   180  VAL180      0.2617
     67  O         40.7600   -9.0650  -12.5430 O.2   180  VAL180     -0.2715
     68  CB        42.2840   -6.4850  -12.9550 C.3   180  VAL180      0.0290
     69  CG1       41.8190   -6.1920  -11.5280 C.3   180  VAL180      0.0023
     70  CG2       43.3530   -5.4980  -13.3920 C.3   180  VAL180      0.0023
     71  N         42.5730   -9.5090  -11.2530 N.am  181  GLY181     -0.1940
     72  CA        41.8550  -10.3330  -10.2690 C.3   181  GLY181      0.2014
     73  C         41.8560   -9.5540   -8.9680 C.2   181  GLY181      0.2640
     74  O         40.8610   -8.9070   -8.6050 O.2   181  GLY181     -0.2714
     75  N         42.9930   -9.5810   -8.2890 N.am  182  THR182     -0.1936
     76  CA        43.2380   -8.6690   -7.1730 C.3   182  THR182      0.2028
     77  C         43.7030   -7.2990   -7.6610 C.2   182  THR182      0.2643
     78  O         43.5870   -6.3230   -6.9330 O.2   182  THR182     -0.2714
     79  CB        44.2860   -9.2110   -6.1740 C.3   182  THR182      0.1808
     80  OG1       45.6060   -9.1840   -6.7720 O.3   182  THR182     -0.2208
     81  CG2       43.9300  -10.6540   -5.7440 C.3   182  THR182      0.0379
     82  N         44.2820   -7.2450   -8.8600 N.am  183  GLY183     -0.1939
     83  CA        44.8720   -6.0170   -9.3720 C.3   183  GLY183      0.2014
     84  C         46.3220   -5.7900   -9.0190 C.2   183  GLY183      0.2639
     85  O         46.9190   -4.8100   -9.4720 O.2   183  GLY183     -0.2714
     86  N         46.9000   -6.6790   -8.2100 N.am  184  GLY184     -0.1939
     87  CA        48.2540   -6.4730   -7.6940 C.3   184  GLY184      0.2014
     88  C         49.2890   -6.4860   -8.8060 C.2   184  GLY184      0.2640
     89  O         50.2340   -5.6850   -8.7870 O.2   184  GLY184     -0.2714
     90  N         49.1200   -7.4040   -9.7630 N.am  185  THR185     -0.1936
     91  CA        50.0990   -7.5680  -10.8540 C.3   185  THR185      0.2028
     92  C         50.2350   -6.2900  -11.6650 C.2   185  THR185      0.2642
     93  O         51.3130   -5.7180  -11.7520 O.2   185  THR185     -0.2714
     94  CB        49.7410   -8.7380  -11.8010 C.3   185  THR185      0.1808
     95  OG1       49.7040   -9.9650  -11.0670 O.3   185  THR185     -0.2208
     96  CG2       50.7890   -8.8650  -12.9480 C.3   185  THR185      0.0379
     97  N         49.1340   -5.8290  -12.2360 N.am  186  ILE186     -0.1977
     98  CA        49.2020   -4.6880  -13.1490 C.3   186  ILE186      0.1596
     99  C         49.5380   -3.4060  -12.3410 C.2   186  ILE186      0.2287
    100  O         50.2940   -2.5690  -12.8090 O.2   186  ILE186     -0.2864
    101  CB        47.9360   -4.5790  -14.0300 C.3   186  ILE186      0.0276
    102  CG1       48.1840   -3.6700  -15.2560 C.3   186  ILE186      0.0022
    103  CG2       46.7170   -4.1150  -13.2250 C.3   186  ILE186      0.0022
    104  CD1       49.2600   -4.1770  -16.1930 C.3   186  ILE186      0.0001
    105  N         37.9170  -17.5070  -15.2940 N.3   224  GLN224     -0.1231
    106  CA        38.3990  -17.8030  -13.9390 C.3   224  GLN224      0.1698
    107  C         39.6720  -17.0740  -13.6000 C.2   224  GLN224      0.2593
    108  O         40.6260  -17.0940  -14.3780 O.2   224  GLN224     -0.2718
    109  CB        38.6450  -19.3110  -13.7570 C.3   224  GLN224      0.0381
    110  CG        37.3830  -20.1320  -13.8660 C.3   224  GLN224      0.0905
    111  CD        37.5850  -21.5920  -13.5200 C.2   224  GLN224      0.2608
    112  OE1       38.3540  -21.9380  -12.6160 O.2   224  GLN224     -0.2717
    113  NE2       36.8630  -22.4550  -14.2150 N.am  224  GLN224     -0.0878
    114  N         39.6860  -16.4560  -12.4190 N.am  225  GLY225     -0.1942
    115  CA        40.8540  -15.7190  -11.9500 C.3   225  GLY225      0.2014
    116  C         40.7930  -14.2160  -12.1360 C.2   225  GLY225      0.2638
    117  O         41.5050  -13.4930  -11.4480 O.2   225  GLY225     -0.2714
    118  N         39.9850  -13.7340  -13.0870 N.am  226  ILE226     -0.1977
    119  CA        39.7450  -12.2770  -13.2040 C.3   226  ILE226      0.1596
    120  C         38.2720  -11.9180  -12.9390 C.2   226  ILE226      0.2287
    121  O         37.4330  -12.8080  -12.7940 O.2   226  ILE226     -0.2864
    122  CB        40.3010  -11.6560  -14.5210 C.3   226  ILE226      0.0276
    123  CG1       39.5170  -12.1040  -15.7690 C.3   226  ILE226      0.0022
    124  CG2       41.8030  -11.9420  -14.6650 C.3   226  ILE226      0.0022
    125  CD1       39.7830  -11.2490  -16.9960 C.3   226  ILE226      0.0001
    126  N         42.2490  -16.9600  -18.4270 N.3   269  SER269     -0.1217
    127  CA        42.5810  -15.5380  -18.3430 C.3   269  SER269      0.1889
    128  C         43.7730  -15.1080  -19.2170 C.2   269  SER269      0.2288
    129  O         43.8280  -13.9600  -19.6770 O.2   269  SER269     -0.2866
    130  CB        42.8110  -15.1410  -16.8770 C.3   269  SER269      0.2089
    131  OG        44.0140  -15.6970  -16.4130 O.3   269  SER269     -0.2183
    132  N         48.8020  -15.5710  -16.5820 N.3   296  PRO296     -0.2102
    133  CA        48.7210  -15.8110  -15.1380 C.3   296  PRO296      0.1504
    134  C         48.8680  -17.2500  -14.7010 C.2   296  PRO296      0.2576
    135  O         49.4000  -17.4960  -13.6130 O.2   296  PRO296     -0.2718
    136  CB        47.3350  -15.2750  -14.7700 C.3   296  PRO296      0.0282
    137  CG        47.0610  -14.2390  -15.8290 C.3   296  PRO296      0.0208
    138  CD        47.5820  -14.9060  -17.0880 C.3   296  PRO296      0.0893
    139  N         48.4190  -18.2100  -15.5130 N.am  297  SER297     -0.1953
    140  CA        48.3970  -19.6040  -15.0530 C.3   297  SER297      0.1924
    141  C         48.6690  -20.6160  -16.1560 C.2   297  SER297      0.2314
    142  O         48.4560  -20.3320  -17.3360 O.2   297  SER297     -0.2863
    143  CB        47.0520  -19.9390  -14.3800 C.3   297  SER297      0.2116
    144  OG        45.9900  -19.8190  -15.3200 O.3   297  SER297     -0.2180
    145  N         42.8980  -26.5260  -15.9710 N.3   302  TYR302     -0.1241
    146  CA        41.6680  -26.1510  -16.6690 C.3   302  TYR302      0.1605
    147  C         41.1620  -27.2270  -17.6260 C.2   302  TYR302      0.2264
    148  O         40.2230  -26.9850  -18.3820 O.2   302  TYR302     -0.2867
    149  CB        41.8640  -24.8570  -17.4560 C.3   302  TYR302      0.0534
    150  CG        42.3480  -23.6750  -16.6270 C.ar  302  TYR302     -0.0201
    151  CD1       43.6870  -23.5600  -16.2440 C.ar  302  TYR302     -0.0009
    152  CD2       41.4600  -22.6690  -16.2430 C.ar  302  TYR302     -0.0009
    153  CE1       44.1330  -22.4700  -15.4730 C.ar  302  TYR302      0.0417
    154  CE2       41.8920  -21.5830  -15.4780 C.ar  302  TYR302      0.0417
    155  CZ        43.2200  -21.4820  -15.1110 C.ar  302  TYR302      0.1957
    156  OH        43.6090  -20.3860  -14.3660 O.3   302  TYR302     -0.2866
@<TRIPOS>BOND
     1   129   128    2
     2   128   127    1
     3   126   127    1
     4   148   147    2
     5   127   130    1
     6   147   146    1
     7   149   146    1
     8   149   150    1
     9   142   141    2
    10    60    61    1
    11   138   132    1
    12   138   137    1
    13   125   123    1
    14   130   131    1
    15   146   145    1
    16   150   151   ar
    17   150   152   ar
    18   132   133    1
    19    61    62    1
    20   151   153   ar
    21   152   154   ar
    22   104   102    1
    23   141   140    1
    24   137   136    1
    25   123   122    1
    26   139   140    1
    27   139   134   am
    28   154   155   ar
    29   153   155   ar
    30   144   143    1
    31   105   106    1
    32   102   101    1
    33   133   136    1
    34   133   134    1
    35   155   156    1
    36   140   143    1
    37    62    64   am
    38    62    63    2
    39   134   135    2
    40   124   122    1
    41   122   119    1
    42    64    65    1
    43   108   107    2
    44   113   111   am
    45   101   103    1
    46   101    98    1
    47   106   109    1
    48   106   107    1
    49   110   109    1
    50   110   111    1
    51   107   114   am
    52   111   112    2
    53    70    68    1
    54   119   118    1
    55   119   120    1
    56    98    99    1
    57    98    97    1
    58   118   116   am
    59    65    68    1
    60    65    66    1
    61    68    69    1
    62    96    94    1
    63   120   121    2
    64   100    99    2
    65    67    66    2
    66   114   115    1
    67    40    39    1
    68    66    71   am
    69    97    92   am
    70   116   115    1
    71   116   117    2
    72    41    39    1
    73    94    95    1
    74    94    91    1
    75    93    92    2
    76    92    91    1
    77    39    38    2
    78     5     6    1
    79     5     7    1
    80     5     2    1
    81    71    72    1
    82     1     2    1
    83    30    28   am
    84    91    90    1
    85     2     3    1
    86    38    37    1
    87    72    73    1
    88    28    29    2
    89    28    27    1
    90    37    36    1
    91    90    88   am
    92    85    84    2
    93    53    52    2
    94    83    84    1
    95    83    82    1
    96    36    35    1
    97    56    58   ar
    98    56    55   ar
    99    31    32    1
   100     3     8   am
   101     3     4    2
   102    58    59   ar
   103    84    86   am
   104    73    74    2
   105    73    75   am
   106    82    77   am
   107    88    89    2
   108    88    87    1
   109    16    15    1
   110    27    24    1
   111    22    21    1
   112     8     9    1
   113    55    54    1
   114    55    57   ar
   115    54    51    1
   116    20    19    2
   117    52    51    1
   118    75    76    1
   119    21    18    1
   120    35    32    1
   121    86    87    1
   122    59    57   ar
   123    32    33    1
   124    51    50    1
   125    77    76    1
   126    77    78    2
   127    15    14    1
   128    13    14    1
   129    13    12    1
   130    19    18    1
   131    23    24    1
   132    24    25    1
   133    76    79    1
   134    18    17    1
   135     9    12    1
   136     9    10    1
   137    80    79    1
   138    33    34    2
   139    79    81    1
   140    25    26    2
   141    10    11    2
   142    48    47    2
   143    45    44    2
   144    47    49   am
   145    47    46    1
   146    44    43    1
   147    46    43    1
   148    43    42    1
