@<TRIPOS>MOLECULE
tmp/4lmbA00.pdb
 85 78 0 0 0
SMALL
GASTEIGER

@<TRIPOS>ATOM
      1  N         50.1710  -16.4610   -8.5230 N.3    46  LYS46      -0.1245
      2  CA        49.8410  -16.3020   -7.0940 C.3    46  LYS46       0.1561
      3  C         50.9000  -16.8060   -6.1380 C.2    46  LYS46       0.2260
      4  O         50.9140  -16.3680   -4.9870 O.2    46  LYS46      -0.2867
      5  CB        48.4800  -16.9420   -6.7440 C.3    46  LYS46       0.0271
      6  CG        47.3060  -16.3230   -7.4550 C.3    46  LYS46       0.0035
      7  CD        47.3110  -14.8100   -7.2710 C.3    46  LYS46       0.0206
      8  CE        45.9280  -14.2630   -7.4890 C.3    46  LYS46       0.1093
      9  NZ        45.3920  -14.7770   -8.7810 N.3    46  LYS46      -0.1314
     10  N         39.0220  -17.4330   -2.2860 N.3    74  THR74      -0.1203
     11  CA        39.8770  -17.5340   -3.4800 C.3    74  THR74       0.1994
     12  C         39.0770  -18.0270   -4.6680 C.2    74  THR74       0.2618
     13  O         38.0540  -18.6880   -4.4980 O.2    74  THR74      -0.2717
     14  CB        41.0920  -18.4730   -3.2120 C.3    74  THR74       0.1784
     15  OG1       41.9950  -18.4660   -4.3360 O.3    74  THR74      -0.2211
     16  CG2       40.6280  -19.9030   -2.9410 C.3    74  THR74       0.0376
     17  N         39.5260  -17.6780   -5.8720 N.am   75  SER75      -0.1951
     18  CA        39.0200  -18.3120   -7.0970 C.3    75  SER75       0.1924
     19  C         39.8610  -19.5380   -7.4370 C.2    75  SER75       0.2314
     20  O         39.6170  -20.2010   -8.4520 O.2    75  SER75      -0.2863
     21  CB        39.0840  -17.3580   -8.2830 C.3    75  SER75       0.2116
     22  OG        40.4330  -17.0930   -8.6470 O.3    75  SER75      -0.2180
     23  N         43.7510  -19.9880   -7.4290 N.3    77  ASN77      -0.1225
     24  CA        45.2130  -19.8700   -7.4180 C.3    77  ASN77       0.1785
     25  C         45.8210  -19.2910   -6.1410 C.2    77  ASN77       0.2597
     26  O         46.8160  -19.7950   -5.6580 O.2    77  ASN77      -0.2718
     27  CB        45.7080  -19.1440   -8.6690 C.3    77  ASN77       0.1169
     28  CG        45.5590  -19.9850   -9.9120 C.2    77  ASN77       0.2627
     29  OD1       45.6010  -21.2170   -9.8400 O.2    77  ASN77      -0.2716
     30  ND2       45.3930  -19.3330  -11.0700 N.am   77  ASN77      -0.0877
     31  N         45.2230  -18.2470   -5.5730 N.am   78  THR78      -0.1953
     32  CA        45.7470  -17.7710   -4.3010 C.3    78  THR78       0.1897
     33  C         45.6400  -18.8700   -3.2600 C.2    78  THR78       0.2313
     34  O         46.5760  -19.0930   -2.4970 O.2    78  THR78      -0.2863
     35  CB        45.0450  -16.4940   -3.8240 C.3    78  THR78       0.1794
     36  OG1       45.3180  -15.4620   -4.7680 O.3    78  THR78      -0.2208
     37  CG2       45.5610  -16.0510   -2.4120 C.3    78  THR78       0.0378
     38  N         32.3580  -14.6680   -6.0410 N.3   125  MET125     -0.1245
     39  CA        33.4030  -14.3160   -5.0690 C.3   125  MET125      0.1570
     40  C         32.8430  -13.6650   -3.8030 C.2   125  MET125      0.2261
     41  O         33.3720  -13.8760   -2.7080 O.2   125  MET125     -0.2867
     42  CB        34.4500  -13.4060   -5.7000 C.3   125  MET125      0.0387
     43  CG        35.4630  -14.1610   -6.5540 C.3   125  MET125      0.0595
     44  SD        36.2670  -15.5650   -5.7440 S.3   125  MET125     -0.1393
     45  CE        37.0820  -14.7840   -4.3540 C.3   125  MET125      0.0692
     46  N         43.7850  -10.8910    0.3620 N.3   147  GLN147     -0.1231
     47  CA        44.5320  -10.6860   -0.8890 C.3   147  GLN147      0.1698
     48  C         44.1150   -9.4560   -1.7190 C.2   147  GLN147      0.2592
     49  O         44.8900   -9.0090   -2.5630 O.2   147  GLN147     -0.2718
     50  CB        44.4550  -11.9330   -1.7630 C.3   147  GLN147      0.0381
     51  CG        43.0440  -12.2940   -2.2230 C.3   147  GLN147      0.0905
     52  CD        43.0780  -13.3790   -3.2720 C.2   147  GLN147      0.2608
     53  OE1       43.9430  -13.3660   -4.1520 O.2   147  GLN147     -0.2717
     54  NE2       42.1560  -14.3370   -3.1820 N.am  147  GLN147     -0.0878
     55  N         42.9050   -8.9470   -1.4880 N.am  148  PHE148     -0.1976
     56  CA        42.3900   -7.7780   -2.2200 C.3   148  PHE148      0.1639
     57  C         42.8330   -6.4560   -1.5810 C.2   148  PHE148      0.2290
     58  O         42.6650   -5.3970   -2.1840 O.2   148  PHE148     -0.2864
     59  CB        40.8640   -7.8290   -2.3420 C.3   148  PHE148      0.0560
     60  CG        40.3450   -9.0320   -3.0800 C.ar  148  PHE148     -0.0200
     61  CD1       40.3650   -9.0790   -4.4840 C.ar  148  PHE148     -0.0042
     62  CD2       39.7980  -10.1150   -2.3780 C.ar  148  PHE148     -0.0042
     63  CE1       39.8900  -10.1940   -5.1670 C.ar  148  PHE148     -0.0003
     64  CE2       39.3180  -11.2300   -3.0640 C.ar  148  PHE148     -0.0003
     65  CZ        39.3650  -11.2710   -4.4540 C.ar  148  PHE148     -0.0000
     66  N         42.5730   -9.5090  -11.2530 N.3   181  GLY181     -0.1210
     67  CA        41.8550  -10.3330  -10.2690 C.3   181  GLY181      0.1956
     68  C         41.8560   -9.5540   -8.9680 C.2   181  GLY181      0.2612
     69  O         40.8610   -8.9070   -8.6050 O.2   181  GLY181     -0.2717
     70  N         42.9930   -9.5810   -8.2890 N.am  182  THR182     -0.1952
     71  CA        43.2380   -8.6690   -7.1730 C.3   182  THR182      0.1897
     72  C         43.7030   -7.2990   -7.6610 C.2   182  THR182      0.2313
     73  O         43.5870   -6.3230   -6.9330 O.2   182  THR182     -0.2863
     74  CB        44.2860   -9.2110   -6.1740 C.3   182  THR182      0.1794
     75  OG1       45.6060   -9.1840   -6.7720 O.3   182  THR182     -0.2208
     76  CG2       43.9300  -10.6540   -5.7440 C.3   182  THR182      0.0378
     77  N         39.6860  -16.4560  -12.4190 N.3   225  GLY225     -0.1225
     78  CA        40.8540  -15.7190  -11.9500 C.3   225  GLY225      0.1811
     79  C         40.7930  -14.2160  -12.1360 C.2   225  GLY225      0.2280
     80  O         41.5050  -13.4930  -11.4480 O.2   225  GLY225     -0.2866
     81  N         36.4690   -9.9930  -10.3220 N.3   228  ALA228     -0.1245
     82  CA        35.9990  -10.2760   -8.9570 C.3   228  ALA228      0.1562
     83  C         34.5870   -9.7690   -8.6800 C.2   228  ALA228      0.2260
     84  O         33.9250  -10.2540   -7.7560 O.2   228  ALA228     -0.2867
     85  CB        36.9600   -9.6990   -7.9340 C.3   228  ALA228      0.0290
@<TRIPOS>BOND
     1    77    78    1
     2    79    78    1
     3    79    80    2
     4    66    67    1
     5    30    28   am
     6    81    82    1
     7    67    68    1
     8    28    29    2
     9    28    27    1
    10    68    69    2
    11    68    70   am
    12    82    83    1
    13    82    85    1
    14     9     8    1
    15    83    84    2
    16    27    24    1
    17    22    21    1
    18     1     2    1
    19    20    19    2
    20    70    71    1
    21    21    18    1
    22    72    71    1
    23    72    73    2
    24     8     7    1
    25     6     7    1
    26     6     5    1
    27    19    18    1
    28    23    24    1
    29    24    25    1
    30    71    74    1
    31    18    17    1
    32     2     5    1
    33     2     3    1
    34    75    74    1
    35    43    44    1
    36    43    42    1
    37    74    76    1
    38    25    26    2
    39    25    31   am
    40     3     4    2
    41    38    39    1
    42    17    12   am
    43    44    45    1
    44    42    39    1
    45    31    32    1
    46    63    61   ar
    47    63    65   ar
    48    39    40    1
    49    36    35    1
    50    12    13    2
    51    12    11    1
    52    61    60   ar
    53    65    64   ar
    54    15    14    1
    55    32    35    1
    56    32    33    1
    57    53    52    2
    58    35    37    1
    59    40    41    2
    60    11    14    1
    61    11    10    1
    62    52    54   am
    63    52    51    1
    64    33    34    2
    65    14    16    1
    66    60    62   ar
    67    60    59    1
    68    64    62   ar
    69    49    48    2
    70    59    56    1
    71    51    50    1
    72    56    57    1
    73    56    55    1
    74    58    57    2
    75    50    47    1
    76    48    55   am
    77    48    47    1
    78    47    46    1
