@<TRIPOS>MOLECULE
tmp/4lmcA00.pdb
 150 148 0 0 0
SMALL
GASTEIGER

@<TRIPOS>ATOM
      1  N         21.4370   93.8070   -5.2510 N.3     2  PHE2       -0.1241
      2  CA        20.6690   94.7600   -4.4690 C.3     2  PHE2        0.1605
      3  C         21.5180   96.0090   -4.2070 C.2     2  PHE2        0.2264
      4  O         22.6490   95.9030   -3.7420 O.2     2  PHE2       -0.2867
      5  CB        20.2540   94.1040   -3.1510 C.3     2  PHE2        0.0534
      6  CG        19.4570   92.8510   -3.3320 C.ar    2  PHE2       -0.0203
      7  CD1       18.0870   92.8500   -3.1440 C.ar    2  PHE2       -0.0042
      8  CD2       20.0830   91.6730   -3.7180 C.ar    2  PHE2       -0.0042
      9  CE1       17.3470   91.6830   -3.3180 C.ar    2  PHE2       -0.0003
     10  CE2       19.3570   90.5090   -3.8980 C.ar    2  PHE2       -0.0003
     11  CZ        17.9910   90.5130   -3.7000 C.ar    2  PHE2       -0.0000
     12  N         19.2860   94.0620    1.3420 N.3     6  PRO6       -0.2102
     13  CA        18.0470   93.3300    1.6010 C.3     6  PRO6        0.1504
     14  C         17.9740   92.6970    2.9800 C.2     6  PRO6        0.2576
     15  O         18.9870   92.5690    3.6370 O.2     6  PRO6       -0.2718
     16  CB        18.1340   92.1880    0.5680 C.3     6  PRO6        0.0282
     17  CG        19.5510   91.9320    0.4300 C.3     6  PRO6        0.0208
     18  CD        20.2240   93.2580    0.5320 C.3     6  PRO6        0.0893
     19  N         16.7820   92.2650    3.3950 N.am    7  TYR7       -0.1963
     20  CA        16.6560   91.3200    4.4840 C.3     7  TYR7        0.1771
     21  C         17.1180   89.9970    3.9010 C.2     7  TYR7        0.2620
     22  O         16.7920   89.6690    2.7490 O.2     7  TYR7       -0.2715
     23  CB        15.2110   91.2300    4.9900 C.3     7  TYR7        0.0574
     24  CG        14.7150   92.4850    5.6750 C.ar    7  TYR7       -0.0198
     25  CD1       14.9310   92.6800    7.0310 C.ar    7  TYR7       -0.0009
     26  CD2       14.0260   93.4610    4.9770 C.ar    7  TYR7       -0.0009
     27  CE1       14.5050   93.8260    7.6680 C.ar    7  TYR7        0.0417
     28  CE2       13.5790   94.6130    5.6090 C.ar    7  TYR7        0.0417
     29  CZ        13.8250   94.7860    6.9570 C.ar    7  TYR7        0.1957
     30  OH        13.3910   95.9180    7.5990 O.3     7  TYR7       -0.2866
     31  N         17.9210   89.2620    4.6540 N.am    8  TYR8       -0.1960
     32  CA        18.5200   88.0340    4.1240 C.3     8  TYR8        0.1771
     33  C         17.6020   86.8550    4.4120 C.2     8  TYR8        0.2620
     34  O         16.9860   86.7540    5.4860 O.2     8  TYR8       -0.2715
     35  CB        19.9540   87.7610    4.6200 C.3     8  TYR8        0.0574
     36  CG        20.9610   88.6090    3.9050 C.ar    8  TYR8       -0.0198
     37  CD1       21.6750   88.1230    2.8190 C.ar    8  TYR8       -0.0009
     38  CD2       21.1530   89.9290    4.2770 C.ar    8  TYR8       -0.0009
     39  CE1       22.5860   88.9360    2.1430 C.ar    8  TYR8        0.0417
     40  CE2       22.0610   90.7460    3.6090 C.ar    8  TYR8        0.0417
     41  CZ        22.7720   90.2510    2.5490 C.ar    8  TYR8        0.1957
     42  OH        23.6650   91.0880    1.8940 O.3     8  TYR8       -0.2866
     43  N         17.3890   86.0980    3.3590 N.am    9  SER9       -0.1950
     44  CA        16.5470   84.8930    3.3970 C.3     9  SER9        0.1924
     45  C         17.4170   83.7700    3.9110 C.2     9  SER9        0.2314
     46  O         18.5810   83.7660    3.5860 O.2     9  SER9       -0.2863
     47  CB        16.0970   84.5450    1.9930 C.3     9  SER9        0.2116
     48  OG        15.4120   83.3140    1.9640 O.3     9  SER9       -0.2180
     49  N         17.2790   80.9290    2.8200 N.3    11  PHE11      -0.1227
     50  CA        17.2390   79.9760    1.7240 C.3    11  PHE11       0.1736
     51  C         17.6230   80.5570    0.3880 C.2    11  PHE11       0.2596
     52  O         17.5390   81.7720    0.1430 O.2    11  PHE11      -0.2718
     53  CB        15.8290   79.3250    1.6210 C.3    11  PHE11       0.0547
     54  CG        15.3700   78.6950    2.8780 C.ar   11  PHE11      -0.0202
     55  CD1       15.7710   77.4040    3.1960 C.ar   11  PHE11      -0.0042
     56  CD2       14.5740   79.3740    3.7600 C.ar   11  PHE11      -0.0042
     57  CE1       15.3660   76.8090    4.3630 C.ar   11  PHE11      -0.0003
     58  CE2       14.1520   78.8030    4.8970 C.ar   11  PHE11      -0.0003
     59  CZ        14.5500   77.4860    5.2140 C.ar   11  PHE11      -0.0000
     60  N         18.0400   79.6810   -0.5140 N.am   12  SER12      -0.1938
     61  CA        18.2850   80.1130   -1.8840 C.3    12  SER12       0.2055
     62  C         16.9740   80.4950   -2.5840 C.2    12  SER12       0.2643
     63  O         15.8820   80.0830   -2.1840 O.2    12  SER12      -0.2714
     64  CB        18.9960   79.0120   -2.6820 C.3    12  SER12       0.2130
     65  OG        18.1920   77.8530   -2.7720 O.3    12  SER12      -0.2179
     66  N         17.1080   81.2550   -3.6510 N.am   13  GLY13      -0.1954
     67  CA        15.9780   81.7820   -4.3680 C.3    13  GLY13       0.1869
     68  C         15.4190   80.8130   -5.3720 C.2    13  GLY13       0.2309
     69  O         16.0140   79.7760   -5.6690 O.2    13  GLY13      -0.2863
     70  N          8.8600   86.1590   -1.4410 N.3    47  TYR47      -0.1241
     71  CA         8.9080   87.5650   -1.8240 C.3    47  TYR47       0.1605
     72  C          9.5690   87.7180   -3.1790 C.2    47  TYR47       0.2264
     73  O         10.6770   87.2120   -3.3960 O.2    47  TYR47      -0.2867
     74  CB         9.6810   88.3290   -0.7650 C.3    47  TYR47       0.0534
     75  CG         9.8670   89.7660   -1.1330 C.ar   47  TYR47      -0.0201
     76  CD1        8.7780   90.6000   -1.2450 C.ar   47  TYR47      -0.0009
     77  CD2       11.1180   90.2660   -1.4140 C.ar   47  TYR47      -0.0009
     78  CE1        8.9210   91.8930   -1.6010 C.ar   47  TYR47       0.0417
     79  CE2       11.2720   91.5820   -1.7760 C.ar   47  TYR47       0.0417
     80  CZ        10.1670   92.3850   -1.8510 C.ar   47  TYR47       0.1957
     81  OH        10.2820   93.7190   -2.2240 O.3    47  TYR47      -0.2866
     82  N         13.0990   86.7250   -9.2980 N.3    64  ARG64      -0.1245
     83  CA        13.5640   85.6880   -8.4020 C.3    64  ARG64       0.1563
     84  C         12.8940   85.8390   -7.0510 C.2    64  ARG64       0.2260
     85  O         12.8120   86.9140   -6.4890 O.2    64  ARG64      -0.2867
     86  CB        15.0540   85.8060   -8.2110 C.3    64  ARG64       0.0307
     87  CG        15.6260   84.8020   -7.2230 C.3    64  ARG64       0.0489
     88  CD        17.1340   84.9640   -7.1750 C.3    64  ARG64       0.2205
     89  NE        17.7720   84.3490   -8.3300 N.pl3  64  ARG64      -0.0865
     90  CZ        18.7950   84.8780   -9.0040 C.cat  64  ARG64       0.5346
     91  NH1       19.2780   86.0730   -8.6760 N.pl3  64  ARG64       0.1354
     92  NH2       19.3210   84.2170  -10.0250 N.pl3  64  ARG64       0.1354
     93  N         12.3380   84.8290   -2.9400 N.3    66  TYR66      -0.1241
     94  CA        13.0290   84.4850   -1.7130 C.3    66  TYR66       0.1605
     95  C         12.0440   84.2610   -0.5600 C.2    66  TYR66       0.2264
     96  O         11.0610   84.9850   -0.3910 O.2    66  TYR66      -0.2867
     97  CB        13.9510   85.6090   -1.3290 C.3    66  TYR66       0.0534
     98  CG        15.1050   85.7450   -2.2560 C.ar   66  TYR66      -0.0201
     99  CD1       16.2120   84.9030   -2.1340 C.ar   66  TYR66      -0.0009
    100  CD2       15.0980   86.6860   -3.2460 C.ar   66  TYR66      -0.0009
    101  CE1       17.2920   85.0280   -2.9930 C.ar   66  TYR66       0.0417
    102  CE2       16.1830   86.8240   -4.1060 C.ar   66  TYR66       0.0417
    103  CZ        17.2650   85.9990   -3.9730 C.ar   66  TYR66       0.1957
    104  OH        18.3250   86.1580   -4.8350 O.3    66  TYR66      -0.2866
    105  N         10.8110   84.0790    3.3700 N.3    68  TYR68      -0.1241
    106  CA        10.8800   84.6640    4.6900 C.3    68  TYR68       0.1605
    107  C          9.8810   84.0320    5.6320 C.2    68  TYR68       0.2264
    108  O          8.6930   83.8660    5.3020 O.2    68  TYR68      -0.2867
    109  CB        10.6460   86.1650    4.6340 C.3    68  TYR68       0.0534
    110  CG        11.7180   86.8590    3.8170 C.ar   68  TYR68      -0.0201
    111  CD1       12.9070   87.2290    4.4040 C.ar   68  TYR68      -0.0009
    112  CD2       11.5360   87.1110    2.4660 C.ar   68  TYR68      -0.0009
    113  CE1       13.8960   87.8420    3.6610 C.ar   68  TYR68       0.0417
    114  CE2       12.5270   87.7210    1.7180 C.ar   68  TYR68       0.0417
    115  CZ        13.7000   88.0930    2.3240 C.ar   68  TYR68       0.1957
    116  OH        14.6890   88.7080    1.5630 O.3    68  TYR68      -0.2866
    117  N         18.8850   85.4760    9.4650 N.3   106  ARG106     -0.1245
    118  CA        20.1970   84.9450    9.1130 C.3   106  ARG106      0.1563
    119  C         21.2250   86.0500    8.9090 C.2   106  ARG106      0.2260
    120  O         20.9070   87.0850    8.3510 O.2   106  ARG106     -0.2867
    121  CB        20.1310   84.1150    7.8200 C.3   106  ARG106      0.0307
    122  CG        21.5400   83.8290    7.2090 C.3   106  ARG106      0.0489
    123  CD        21.5600   82.8010    6.0660 C.3   106  ARG106      0.2205
    124  NE        21.2240   83.3500    4.7560 N.pl3 106  ARG106     -0.0865
    125  CZ        22.0860   83.8740    3.8980 C.cat 106  ARG106      0.5346
    126  NH1       23.3640   83.9670    4.2120 N.pl3 106  ARG106      0.1354
    127  NH2       21.6640   84.3370    2.7280 N.pl3 106  ARG106      0.1354
    128  N         25.5350   80.5870    5.9000 N.3   112  GLU112     -0.1231
    129  CA        25.2420   80.7680    4.4760 C.3   112  GLU112      0.1699
    130  C         23.7930   80.3290    4.1770 C.2   112  GLU112      0.2592
    131  O         23.1620   79.6960    5.0230 O.2   112  GLU112     -0.2718
    132  CB        26.2090   79.9550    3.6300 C.3   112  GLU112      0.0402
    133  CG        26.3850   80.5070    2.2240 C.3   112  GLU112      0.1161
    134  CD        27.6080   81.4020    2.0830 C.2   112  GLU112      0.3649
    135  OE1       27.8900   82.2010    3.0070 O.co2 112  GLU112     -0.2457
    136  OE2       28.2880   81.2990    1.0400 O.co2 112  GLU112     -0.2457
    137  N         23.2740   80.6800    3.0000 N.am  113  ALA113     -0.1980
    138  CA        21.9020   80.2600    2.6330 C.3   113  ALA113      0.1597
    139  C         21.8120   78.7670    2.4600 C.2   113  ALA113      0.2287
    140  O         22.6650   78.1520    1.8200 O.2   113  ALA113     -0.2864
    141  CB        21.4560   80.9320    1.3570 C.3   113  ALA113      0.0319
    142  N         17.2940   77.6220   -7.1560 N.3   131  GLU131     -0.1245
    143  CA        18.7370   77.8520   -7.1170 C.3   131  GLU131      0.1567
    144  C         19.3990   76.8590   -6.1890 C.2   131  GLU131      0.2260
    145  O         18.8740   76.5200   -5.1270 O.2   131  GLU131     -0.2867
    146  CB        19.0650   79.2780   -6.6650 C.3   131  GLU131      0.0388
    147  CG        18.5050   80.3470   -7.5780 C.3   131  GLU131      0.1160
    148  CD        19.2370   80.4550   -8.9050 C.2   131  GLU131      0.3649
    149  OE1       20.4190   80.0750   -8.9560 O.co2 131  GLU131     -0.2457
    150  OE2       18.6360   80.9220   -9.8950 O.co2 131  GLU131     -0.2457
@<TRIPOS>BOND
     1    92    90    1
     2   150   148   ar
     3    82    83    1
     4    90    91    1
     5    90    89    2
     6   149   148   ar
     7   148   147    1
     8    83    86    1
     9    83    84    1
    10    89    88    1
    11    86    87    1
    12   147   146    1
    13    87    88    1
    14   142   143    1
    15   143   146    1
    16   143   144    1
    17    84    85    2
    18   144   145    2
    19    69    68    2
    20    68    67    1
    21     1     2    1
    22   104   103    1
    23     2     3    1
    24     2     5    1
    25    67    66    1
    26     3     4    2
    27   102   103   ar
    28   102   100   ar
    29   103   101   ar
    30    10     8   ar
    31    10    11   ar
    32     8     6   ar
    33    11     9   ar
    34    66    62   am
    35    73    72    2
    36     6     5    1
    37     6     7   ar
    38     9     7   ar
    39   100    98   ar
    40    72    71    1
    41   101    99   ar
    42    93    94    1
    43    65    64    1
    44    64    61    1
    45    62    63    2
    46    62    61    1
    47    98    99   ar
    48    98    97    1
    49    81    80    1
    50    61    60    1
    51    80    79   ar
    52    80    78   ar
    53    71    70    1
    54    71    74    1
    55    79    77   ar
    56    94    97    1
    57    94    95    1
    58    78    76   ar
    59    77    75   ar
    60    76    75   ar
    61    75    74    1
    62    95    96    2
    63    60    51   am
    64    52    51    2
    65    51    50    1
    66    17    18    1
    67    17    16    1
    68    18    12    1
    69    16    13    1
    70   136   134   ar
    71    12    13    1
    72   141   138    1
    73   116   115    1
    74    13    14    1
    75    53    50    1
    76    53    54    1
    77   114   115   ar
    78   114   112   ar
    79    50    49    1
    80   140   139    2
    81    42    41    1
    82    48    47    1
    83    47    44    1
    84   134   133    1
    85   134   135   ar
    86    39    41   ar
    87    39    37   ar
    88   133   132    1
    89   115   113   ar
    90   139   138    1
    91   112   110   ar
    92    41    40   ar
    93   138   137    1
    94   127   125    1
    95    22    21    2
    96    37    36   ar
    97    54    55   ar
    98    54    56   ar
    99    14    19   am
   100    14    15    2
   101   137   130   am
   102    55    57   ar
   103    43    44    1
   104    43    33   am
   105   105   106    1
   106    19    20    1
   107    44    45    1
   108    46    45    2
   109    40    38   ar
   110   132   129    1
   111   113   111   ar
   112    56    58   ar
   113   110   111   ar
   114   110   109    1
   115   125   126    1
   116   125   124    2
   117    21    20    1
   118    21    31   am
   119    36    38   ar
   120    36    35    1
   121    32    33    1
   122    32    35    1
   123    32    31    1
   124   130   129    1
   125   130   131    2
   126    57    59   ar
   127    33    34    2
   128   129   128    1
   129    20    23    1
   130   109   106    1
   131   106   107    1
   132   124   123    1
   133    58    59   ar
   134    26    28   ar
   135    26    24   ar
   136    23    24    1
   137   108   107    2
   138    28    29   ar
   139    24    25   ar
   140   123   122    1
   141    29    30    1
   142    29    27   ar
   143    25    27   ar
   144   122   121    1
   145   121   118    1
   146   120   119    2
   147   119   118    1
   148   118   117    1
