@<TRIPOS>MOLECULE
tmp/4lmhD08.pdb
 138 131 0 0 0
SMALL
GASTEIGER

@<TRIPOS>ATOM
      1  N         96.5640  205.0360  -21.2550 N.3   571  HIS571     -0.1241
      2  CA        95.6080  204.0120  -21.6810 C.3   571  HIS571      0.1621
      3  C         94.9800  203.2700  -20.5000 C.2   571  HIS571      0.2264
      4  O         93.7910  202.9470  -20.5260 O.2   571  HIS571     -0.2867
      5  CB        96.2640  202.9990  -22.6260 C.3   571  HIS571      0.0745
      6  CG        96.6700  203.5570  -23.9500 C.ar  571  HIS571      0.0817
      7  ND1       97.5980  202.9530  -24.7660 N.ar  571  HIS571     -0.2268
      8  CD2       96.2640  204.6750  -24.6200 C.ar  571  HIS571      0.1154
      9  CE1       97.7600  203.6580  -25.8660 C.ar  571  HIS571      0.1986
     10  NE2       96.9540  204.7130  -25.8020 N.ar  571  HIS571     -0.2212
     11  N         88.3030  205.3310  -18.7800 N.3   577  TYR577     -0.1241
     12  CA        87.3960  204.2700  -19.2080 C.3   577  TYR577      0.1605
     13  C         86.2600  204.0690  -18.1950 C.2   577  TYR577      0.2264
     14  O         86.2690  203.1160  -17.4100 O.2   577  TYR577     -0.2867
     15  CB        88.1800  202.9710  -19.4070 C.3   577  TYR577      0.0534
     16  CG        87.4760  201.9260  -20.2460 C.ar  577  TYR577     -0.0201
     17  CD1       86.9230  202.2490  -21.4820 C.ar  577  TYR577     -0.0009
     18  CD2       87.3860  200.6090  -19.8140 C.ar  577  TYR577     -0.0009
     19  CE1       86.2870  201.2910  -22.2550 C.ar  577  TYR577      0.0417
     20  CE2       86.7540  199.6450  -20.5770 C.ar  577  TYR577      0.0417
     21  CZ        86.2070  199.9890  -21.7970 C.ar  577  TYR577      0.1957
     22  OH        85.5780  199.0280  -22.5600 O.3   577  TYR577     -0.2866
     23  N         83.3000  202.9250  -18.2540 N.3   579  LYS579     -0.1245
     24  CA        82.2680  201.9710  -18.6460 C.3   579  LYS579      0.1561
     25  C         81.7890  201.1750  -17.4370 C.2   579  LYS579      0.2260
     26  O         80.5870  201.0050  -17.2300 O.2   579  LYS579     -0.2867
     27  CB        82.7970  201.0220  -19.7200 C.3   579  LYS579      0.0271
     28  CG        81.7440  200.0980  -20.3090 C.3   579  LYS579      0.0035
     29  CD        82.2670  199.4050  -21.5570 C.3   579  LYS579      0.0206
     30  CE        81.1690  198.6310  -22.2690 C.3   579  LYS579      0.1093
     31  NZ        81.6560  198.0370  -23.5450 N.3   579  LYS579     -0.1314
     32  N         88.1180  205.0980  -23.5060 N.3   590  LYS590     -0.1231
     33  CA        89.4230  204.9770  -24.1570 C.3   590  LYS590      0.1693
     34  C         89.3360  204.3480  -25.5520 C.2   590  LYS590      0.2592
     35  O         90.2490  204.5020  -26.3640 O.2   590  LYS590     -0.2718
     36  CB        90.3980  204.1950  -23.2760 C.3   590  LYS590      0.0285
     37  CG        90.0130  202.7460  -23.0420 C.3   590  LYS590      0.0035
     38  CD        90.9960  202.0830  -22.0900 C.3   590  LYS590      0.0206
     39  CE        90.6170  200.6410  -21.8110 C.3   590  LYS590      0.1093
     40  NZ        91.5140  200.0470  -20.7890 N.3   590  LYS590     -0.1314
     41  N         88.2340  203.6540  -25.8310 N.am  591  THR591     -0.1953
     42  CA        88.0120  203.0730  -27.1530 C.3   591  THR591      0.1897
     43  C         87.9340  204.1500  -28.2260 C.2   591  THR591      0.2313
     44  O         88.1580  203.8770  -29.4020 O.2   591  THR591     -0.2863
     45  CB        86.7280  202.2120  -27.2130 C.3   591  THR591      0.1794
     46  OG1       85.5930  203.0000  -26.8230 O.3   591  THR591     -0.2208
     47  CG2       86.8540  200.9950  -26.3050 C.3   591  THR591      0.0378
     48  N         89.7520  206.7580  -29.6840 N.3   593  CYS593     -0.1235
     49  CA        91.1430  207.1900  -29.7160 C.3   593  CYS593      0.1677
     50  C         91.3000  208.7030  -29.8880 C.2   593  CYS593      0.2270
     51  O         92.2690  209.2860  -29.4060 O.2   593  CYS593     -0.2867
     52  CB        91.8960  206.4230  -30.8050 C.3   593  CYS593      0.0956
     53  SG        91.4360  204.6680  -30.8520 S.3   593  CYS593     -0.0801
     54  N        100.5840  203.6710  -37.2960 N.3   610  LEU610     -0.1245
     55  CA       101.5690  202.6540  -36.9210 C.3   610  LEU610      0.1561
     56  C        102.8020  202.6510  -37.8220 C.2   610  LEU610      0.2260
     57  O        102.8390  203.3310  -38.8500 O.2   610  LEU610     -0.2867
     58  CB       100.9310  201.2640  -36.9180 C.3   610  LEU610      0.0270
     59  CG        99.6520  201.0990  -36.0980 C.3   610  LEU610      0.0019
     60  CD1       99.1420  199.6700  -36.1950 C.3   610  LEU610      0.0001
     61  CD2       99.8940  201.4820  -34.6490 C.3   610  LEU610      0.0001
     62  N        104.7940  198.3490  -32.6990 N.3   635  ASP635     -0.1239
     63  CA       103.3460  198.4720  -32.8170 C.3   635  ASP635      0.1674
     64  C        102.6240  197.5550  -31.8280 C.2   635  ASP635      0.2266
     65  O        101.6320  197.9530  -31.2190 O.2   635  ASP635     -0.2867
     66  CB       102.8880  198.1830  -34.2490 C.3   635  ASP635      0.1410
     67  CG       103.5010  199.1340  -35.2660 C.2   635  ASP635      0.3668
     68  OD1      103.7420  200.3210  -34.9320 O.co2 635  ASP635     -0.2456
     69  OD2      103.7430  198.6820  -36.4070 O.co2 635  ASP635     -0.2456
     70  N        102.3630  198.8680  -28.3470 N.3   638  ALA638     -0.1231
     71  CA       101.3150  199.8760  -28.3050 C.3   638  ALA638      0.1694
     72  C         99.9460  199.2160  -28.1040 C.2   638  ALA638      0.2592
     73  O         99.0970  199.7300  -27.3720 O.2   638  ALA638     -0.2718
     74  CB       101.3330  200.7150  -29.5760 C.3   638  ALA638      0.0304
     75  N         99.7420  198.0710  -28.7470 N.am  639  CYS639     -0.1970
     76  CA        98.4970  197.3250  -28.5970 C.3   639  CYS639      0.1712
     77  C         98.3520  196.6570  -27.2230 C.2   639  CYS639      0.2296
     78  O         97.2630  196.6470  -26.6450 O.2   639  CYS639     -0.2864
     79  CB        98.3660  196.2810  -29.7070 C.3   639  CYS639      0.0983
     80  SG        98.2790  196.9840  -31.3740 S.3   639  CYS639     -0.0798
     81  N         96.6830  197.9450  -23.7970 N.3   642  CYS642     -0.1221
     82  CA        95.3110  197.6120  -23.4240 C.3   642  CYS642      0.1808
     83  C         95.0320  196.1190  -23.5820 C.2   642  CYS642      0.2601
     84  O         94.2740  195.5350  -22.8070 O.2   642  CYS642     -0.2717
     85  CB        94.3140  198.4090  -24.2620 C.3   642  CYS642      0.0970
     86  SG        94.3010  200.1770  -23.9300 S.3   642  CYS642     -0.0800
     87  N         95.6570  195.5020  -24.5820 N.am  643  HIS643     -0.1975
     88  CA        95.2970  194.1420  -24.9830 C.3   643  HIS643      0.1656
     89  C         96.0540  193.0100  -24.2880 C.2   643  HIS643      0.2291
     90  O         95.7440  191.8410  -24.5080 O.2   643  HIS643     -0.2864
     91  CB        95.4240  193.9830  -26.5000 C.3   643  HIS643      0.0771
     92  CG        94.3250  194.6480  -27.2720 C.ar  643  HIS643      0.0820
     93  ND1       93.1560  194.0050  -27.6020 N.ar  643  HIS643     -0.2267
     94  CD2       94.2300  195.8980  -27.7880 C.ar  643  HIS643      0.1154
     95  CE1       92.3770  194.8300  -28.2850 C.ar  643  HIS643      0.1986
     96  NE2       93.0080  195.9830  -28.4110 N.ar  643  HIS643     -0.2212
     97  N         96.0460  197.9120  -40.3250 N.3   682  HIS682     -0.1241
     98  CA        95.5280  198.6970  -39.2140 C.3   682  HIS682      0.1621
     99  C         95.8140  200.1830  -39.4010 C.2   682  HIS682      0.2264
    100  O         96.6650  200.7540  -38.7200 O.2   682  HIS682     -0.2867
    101  CB        96.1100  198.2030  -37.8890 C.3   682  HIS682      0.0745
    102  CG        95.6660  196.8230  -37.5110 C.ar  682  HIS682      0.0817
    103  ND1       94.4030  196.5550  -37.0380 N.ar  682  HIS682     -0.2268
    104  CD2       96.3220  195.6370  -37.5340 C.ar  682  HIS682      0.1154
    105  CE1       94.2930  195.2620  -36.7830 C.ar  682  HIS682      0.1986
    106  NE2       95.4460  194.6840  -37.0750 N.ar  682  HIS682     -0.2212
    107  N         90.6530  202.2840  -39.8360 N.3   686  GLN686     -0.1231
    108  CA        90.1010  200.9870  -39.4540 C.3   686  GLN686      0.1698
    109  C         90.2440  200.7300  -37.9490 C.2   686  GLN686      0.2592
    110  O         89.4160  200.0430  -37.3410 O.2   686  GLN686     -0.2718
    111  CB        90.7160  199.8560  -40.2990 C.3   686  GLN686      0.0381
    112  CG        91.9550  199.1970  -39.6720 C.3   686  GLN686      0.0905
    113  CD        91.6200  198.0190  -38.7610 C.2   686  GLN686      0.2608
    114  OE1       92.2410  197.8170  -37.7060 O.2   686  GLN686     -0.2717
    115  NE2       90.6440  197.2200  -39.1810 N.am  686  GLN686     -0.0878
    116  N         91.2940  201.2950  -37.3550 N.am  687  LEU687     -0.1980
    117  CA        91.4950  201.1950  -35.9110 C.3   687  LEU687      0.1596
    118  C         90.3250  201.8640  -35.1800 C.2   687  LEU687      0.2287
    119  O         89.7470  201.2790  -34.2580 O.2   687  LEU687     -0.2864
    120  CB        92.8420  201.7950  -35.4760 C.3   687  LEU687      0.0297
    121  CG        94.1060  200.9420  -35.6450 C.3   687  LEU687      0.0022
    122  CD1       95.3480  201.8060  -35.4840 C.3   687  LEU687      0.0001
    123  CD2       94.1280  199.7970  -34.6370 C.3   687  LEU687      0.0001
    124  N         87.2500  199.6080  -35.6980 N.3   690  ALA690     -0.1231
    125  CA        87.3300  198.3990  -34.8830 C.3   690  ALA690      0.1694
    126  C         86.9680  198.6370  -33.4150 C.2   690  ALA690      0.2592
    127  O         86.5430  197.7160  -32.7140 O.2   690  ALA690     -0.2718
    128  CB        88.7130  197.7840  -34.9790 C.3   690  ALA690      0.0304
    129  N         87.1320  199.8700  -32.9490 N.am  691  HIS691     -0.1976
    130  CA        86.8360  200.1960  -31.5590 C.3   691  HIS691      0.1656
    131  C         85.4840  200.8910  -31.3950 C.2   691  HIS691      0.2291
    132  O         85.2220  201.5140  -30.3700 O.2   691  HIS691     -0.2864
    133  CB        87.9760  201.0170  -30.9510 C.3   691  HIS691      0.0771
    134  CG        89.2620  200.2560  -30.8340 C.ar  691  HIS691      0.0820
    135  ND1       90.1940  200.2020  -31.8460 N.ar  691  HIS691     -0.2267
    136  CD2       89.7580  199.5030  -29.8210 C.ar  691  HIS691      0.1154
    137  CE1       91.2180  199.4570  -31.4620 C.ar  691  HIS691      0.1986
    138  NE2       90.9770  199.0230  -30.2370 N.ar  691  HIS691     -0.2212
@<TRIPOS>BOND
     1    97    98    1
     2   111   112    1
     3   111   108    1
     4   107   108    1
     5   112   113    1
     6   108   109    1
     7    99    98    1
     8    99   100    2
     9    98   101    1
    10   115   113   am
    11    57    56    2
    12   113   114    2
    13   109   116   am
    14   109   110    2
    15   101   102    1
    16    56    55    1
    17   104   102   ar
    18   104   106   ar
    19   102   103   ar
    20   116   117    1
    21    54    55    1
    22   106   105   ar
    23   103   105   ar
    24    55    58    1
    25    58    59    1
    26    69    67   ar
    27    60    59    1
    28    59    61    1
    29   117   120    1
    30   117   118    1
    31   124   125    1
    32   121   122    1
    33   121   120    1
    34   121   123    1
    35    67    68   ar
    36    67    66    1
    37   118   119    2
    38   128   125    1
    39   125   126    1
    40    66    63    1
    41   126   129   am
    42   126   127    2
    43   129   130    1
    44    63    62    1
    45    63    64    1
    46   135   137   ar
    47   135   134   ar
    48    64    65    2
    49   130   131    1
    50   130   133    1
    51   137   138   ar
    52   131   132    2
    53    80    79    1
    54   133   134    1
    55    53    52    1
    56   134   136   ar
    57    52    49    1
    58   138   136   ar
    59    50    49    1
    60    50    51    2
    61    49    48    1
    62    79    76    1
    63    74    71    1
    64    44    43    2
    65    75    76    1
    66    75    72   am
    67    76    77    1
    68    96    95   ar
    69    96    94   ar
    70    70    71    1
    71    71    72    1
    72    95    93   ar
    73    43    42    1
    74    72    73    2
    75    94    92   ar
    76    93    92   ar
    77    92    91    1
    78    77    78    2
    79    45    42    1
    80    45    46    1
    81    45    47    1
    82    42    41    1
    83    91    88    1
    84    35    34    2
    85     9    10   ar
    86     9     7   ar
    87    41    34   am
    88    10     8   ar
    89    34    33    1
    90    88    87    1
    91    88    89    1
    92     7     6   ar
    93     8     6   ar
    94    87    83   am
    95    90    89    2
    96    85    86    1
    97    85    82    1
    98    33    32    1
    99    33    36    1
   100     6     5    1
   101    81    82    1
   102    83    82    1
   103    83    84    2
   104    31    30    1
   105    36    37    1
   106    37    38    1
   107     5     2    1
   108    22    21    1
   109    30    29    1
   110    19    21   ar
   111    19    17   ar
   112    38    39    1
   113    39    40    1
   114    21    20   ar
   115     2     1    1
   116     2     3    1
   117    29    28    1
   118    17    16   ar
   119    20    18   ar
   120     4     3    2
   121    28    27    1
   122    16    18   ar
   123    16    15    1
   124    27    24    1
   125    15    12    1
   126    12    11    1
   127    12    13    1
   128    24    23    1
   129    24    25    1
   130    13    14    2
   131    25    26    2
