@<TRIPOS>MOLECULE
tmp/4lmhD03.pdb
 212 202 0 0 0
SMALL
GASTEIGER

@<TRIPOS>ATOM
      1  N         76.3600  220.3800   -9.5560 N.3   232  HIS232     -0.1241
      2  CA        77.4670  220.7120   -8.6610 C.3   232  HIS232      0.1621
      3  C         77.8510  219.5300   -7.7670 C.2   232  HIS232      0.2264
      4  O         79.0290  219.2070   -7.6310 O.2   232  HIS232     -0.2867
      5  CB        77.1220  221.9340   -7.8000 C.3   232  HIS232      0.0745
      6  CG        77.1010  223.2200   -8.5560 C.ar  232  HIS232      0.0817
      7  ND1       76.6130  224.3990   -8.0230 N.ar  232  HIS232     -0.2268
      8  CD2       77.5130  223.5330   -9.8120 C.ar  232  HIS232      0.1154
      9  CE1       76.7240  225.3660   -8.9030 C.ar  232  HIS232      0.1986
     10  NE2       77.2690  224.8660  -10.0090 N.ar  232  HIS232     -0.2212
     11  N         79.6920  216.5170   -9.6030 N.3   235  HIS235     -0.1226
     12  CA        81.0770  216.7530   -9.9870 C.3   235  HIS235      0.1752
     13  C         82.0120  217.0010   -8.8070 C.2   235  HIS235      0.2595
     14  O         83.2280  216.8920   -8.9450 O.2   235  HIS235     -0.2718
     15  CB        81.1540  217.8650  -11.0300 C.3   235  HIS235      0.0759
     16  CG        80.4220  217.5300  -12.2910 C.ar  235  HIS235      0.0818
     17  ND1       79.0520  217.5930  -12.3980 N.ar  235  HIS235     -0.2268
     18  CD2       80.8750  217.0860  -13.4910 C.ar  235  HIS235      0.1154
     19  CE1       78.6870  217.2230  -13.6130 C.ar  235  HIS235      0.1986
     20  NE2       79.7770  216.9100  -14.2950 N.ar  235  HIS235     -0.2212
     21  N         81.4520  217.3250   -7.6480 N.am  236  LYS236     -0.1980
     22  CA        82.2520  217.3500   -6.4310 C.3   236  LYS236      0.1596
     23  C         82.6280  215.9040   -6.1230 C.2   236  LYS236      0.2287
     24  O         83.7700  215.6090   -5.7550 O.2   236  LYS236     -0.2864
     25  CB        81.4790  217.9780   -5.2680 C.3   236  LYS236      0.0298
     26  CG        82.3690  218.5230   -4.1510 C.3   236  LYS236      0.0038
     27  CD        83.3120  219.6100   -4.6700 C.3   236  LYS236      0.0206
     28  CE        84.0180  220.3450   -3.5350 C.3   236  LYS236      0.1093
     29  NZ        84.8150  219.4340   -2.6630 N.3   236  LYS236     -0.1314
     30  N         85.0620  214.0570   -3.5750 N.3   239  GLU239     -0.1245
     31  CA        85.6860  215.1550   -2.8420 C.3   239  GLU239      0.1567
     32  C         84.6560  215.9490   -2.0420 C.2   239  GLU239      0.2260
     33  O         84.9800  216.9710   -1.4340 O.2   239  GLU239     -0.2867
     34  CB        86.4180  216.1010   -3.7950 C.3   239  GLU239      0.0388
     35  CG        87.5330  215.4660   -4.6090 C.3   239  GLU239      0.1160
     36  CD        88.6530  214.9200   -3.7470 C.2   239  GLU239      0.3649
     37  OE1       88.9100  215.4900   -2.6630 O.co2 239  GLU239     -0.2457
     38  OE2       89.2740  213.9160   -4.1560 O.co2 239  GLU239     -0.2457
     39  N         82.5550  216.6020    1.0610 N.3   241  HIS241     -0.1241
     40  CA        82.6950  216.2590    2.4730 C.3   241  HIS241      0.1621
     41  C         82.0540  217.3150    3.3650 C.2   241  HIS241      0.2264
     42  O         81.7040  218.4010    2.9060 O.2   241  HIS241     -0.2867
     43  CB        84.1750  216.1110    2.8290 C.3   241  HIS241      0.0745
     44  CG        84.9850  217.3350    2.5350 C.ar  241  HIS241      0.0817
     45  ND1       85.5610  217.5650    1.3060 N.ar  241  HIS241     -0.2268
     46  CD2       85.2980  218.4060    3.3060 C.ar  241  HIS241      0.1154
     47  CE1       86.2030  218.7220    1.3320 C.ar  241  HIS241      0.1986
     48  NE2       86.0590  219.2500    2.5330 N.ar  241  HIS241     -0.2212
     49  N         86.2620  213.9060  -10.3730 N.3   271  TYR271     -0.1241
     50  CA        86.4140  215.0830  -11.2190 C.3   271  TYR271      0.1605
     51  C         87.8740  215.2550  -11.6280 C.2   271  TYR271      0.2264
     52  O         88.7600  215.2910  -10.7720 O.2   271  TYR271     -0.2867
     53  CB        85.9480  216.3180  -10.4540 C.3   271  TYR271      0.0534
     54  CG        85.5740  217.4840  -11.3290 C.ar  271  TYR271     -0.0201
     55  CD1       84.5930  217.3540  -12.2990 C.ar  271  TYR271     -0.0009
     56  CD2       86.1840  218.7220  -11.1750 C.ar  271  TYR271     -0.0009
     57  CE1       84.2330  218.4180  -13.1020 C.ar  271  TYR271      0.0417
     58  CE2       85.8290  219.7950  -11.9760 C.ar  271  TYR271      0.0417
     59  CZ        84.8520  219.6360  -12.9390 C.ar  271  TYR271      0.1957
     60  OH        84.4830  220.6920  -13.7430 O.3   271  TYR271     -0.2866
     61  N         90.0670  222.1060   -8.8570 N.3   276  ALA276     -0.1231
     62  CA        88.6600  221.8490   -9.1420 C.3   276  ALA276      0.1694
     63  C         87.7540  223.0450   -8.8500 C.2   276  ALA276      0.2591
     64  O         86.5310  222.9430   -8.9560 O.2   276  ALA276     -0.2718
     65  CB        88.1890  220.6210   -8.3670 C.3   276  ALA276      0.0304
     66  N         88.3530  224.1710   -8.4780 N.am  277  ALA277     -0.1980
     67  CA        87.5910  225.3820   -8.1950 C.3   277  ALA277      0.1597
     68  C         87.4710  226.2970   -9.4160 C.2   277  ALA277      0.2287
     69  O         87.0870  227.4630   -9.2870 O.2   277  ALA277     -0.2864
     70  CB        88.2190  226.1370   -7.0330 C.3   277  ALA277      0.0319
     71  N         85.5350  227.4840  -12.1140 N.3   279  CYS279     -0.1235
     72  CA        84.1430  227.4850  -12.5460 C.3   279  CYS279      0.1677
     73  C         83.9780  227.5430  -14.0640 C.2   279  CYS279      0.2270
     74  O         82.9680  227.0880  -14.5970 O.2   279  CYS279     -0.2867
     75  CB        83.3980  228.6500  -11.8880 C.3   279  CYS279      0.0956
     76  SG        83.6560  228.7510  -10.0960 S.3   279  CYS279     -0.0801
     77  N         76.5210  232.7890  -12.1790 N.3   296  PHE296     -0.1241
     78  CA        77.2780  232.1020  -11.1300 C.3   296  PHE296      0.1605
     79  C         78.0330  233.0760  -10.2200 C.2   296  PHE296      0.2264
     80  O         78.4780  232.7100   -9.1350 O.2   296  PHE296     -0.2867
     81  CB        78.2210  231.0380  -11.7200 C.3   296  PHE296      0.0534
     82  CG        79.4900  231.5940  -12.3280 C.ar  296  PHE296     -0.0203
     83  CD1       79.4700  232.2270  -13.5610 C.ar  296  PHE296     -0.0042
     84  CD2       80.7100  231.4540  -11.6740 C.ar  296  PHE296     -0.0042
     85  CE1       80.6440  232.7290  -14.1250 C.ar  296  PHE296     -0.0003
     86  CE2       81.8850  231.9520  -12.2310 C.ar  296  PHE296     -0.0003
     87  CZ        81.8500  232.5880  -13.4570 C.ar  296  PHE296     -0.0000
     88  N         75.6140  235.7980   -6.8920 N.3   299  ASP299     -0.1239
     89  CA        75.4490  235.6260   -5.4490 C.3   299  ASP299      0.1674
     90  C         73.9860  235.6220   -5.0120 C.2   299  ASP299      0.2266
     91  O         73.6110  236.3250   -4.0750 O.2   299  ASP299     -0.2867
     92  CB        76.2290  236.7010   -4.6790 C.3   299  ASP299      0.1410
     93  CG        77.7390  236.5460   -4.8130 C.2   299  ASP299      0.3668
     94  OD1       78.2260  235.3940   -4.8850 O.co2 299  ASP299     -0.2456
     95  OD2       78.4400  237.5820   -4.8430 O.co2 299  ASP299     -0.2456
     96  N         72.2070  232.5060   -4.6640 N.3   301  SER301     -0.1217
     97  CA        71.8480  231.1630   -4.2250 C.3   301  SER301      0.1889
     98  C         72.7740  230.6350   -3.1400 C.2   301  SER301      0.2288
     99  O         73.9970  230.6450   -3.2950 O.2   301  SER301     -0.2866
    100  CB        71.8430  230.1980   -5.4170 C.3   301  SER301      0.2089
    101  OG        71.7180  228.8510   -4.9870 O.3   301  SER301     -0.2183
    102  N         73.3110  226.7210   -4.3060 N.3   304  ALA304     -0.1231
    103  CA        74.3830  226.5320   -5.2770 C.3   304  ALA304      0.1694
    104  C         75.6770  226.0910   -4.5910 C.2   304  ALA304      0.2592
    105  O         76.3220  225.1310   -5.0140 O.2   304  ALA304     -0.2718
    106  CB        74.6120  227.8110   -6.0670 C.3   304  ALA304      0.0304
    107  N         76.0520  226.7940   -3.5300 N.am  305  CYS305     -0.1970
    108  CA        77.2780  226.4850   -2.8090 C.3   305  CYS305      0.1712
    109  C         77.1470  225.1660   -2.0760 C.2   305  CYS305      0.2296
    110  O         78.0560  224.3330   -2.1150 O.2   305  CYS305     -0.2864
    111  CB        77.5950  227.5900   -1.8010 C.3   305  CYS305      0.0983
    112  SG        77.3030  229.2510   -2.4290 S.3   305  CYS305     -0.0798
    113  N         78.0750  221.7950   -3.5140 N.3   308  CYS308     -0.1221
    114  CA        79.4690  221.3620   -3.4640 C.3   308  CYS308      0.1808
    115  C         79.9980  221.2730   -2.0380 C.2   308  CYS308      0.2601
    116  O         80.6780  220.3110   -1.6820 O.2   308  CYS308     -0.2717
    117  CB        80.3630  222.2890   -4.2960 C.3   308  CYS308      0.0970
    118  SG        80.4530  221.8740   -6.0560 S.3   308  CYS308     -0.0800
    119  N         79.6670  222.2690   -1.2220 N.am  309  HIS309     -0.1975
    120  CA        80.3060  222.4350    0.0800 C.3   309  HIS309      0.1656
    121  C         79.5270  221.8620    1.2830 C.2   309  HIS309      0.2291
    122  O         80.0720  221.7840    2.3900 O.2   309  HIS309     -0.2864
    123  CB        80.6340  223.9160    0.3130 C.3   309  HIS309      0.0771
    124  CG        81.6820  224.4630   -0.6090 C.ar  309  HIS309      0.0820
    125  ND1       82.9920  224.0260   -0.6000 N.ar  309  HIS309     -0.2267
    126  CD2       81.6250  225.4390   -1.5510 C.ar  309  HIS309      0.1154
    127  CE1       83.6880  224.6950   -1.4970 C.ar  309  HIS309      0.1986
    128  NE2       82.8790  225.5630   -2.0920 N.ar  309  HIS309     -0.2212
    129  N         74.7100  231.3830    3.2800 N.3   322  CYS322     -0.1221
    130  CA        75.9930  231.6290    2.6300 C.3   322  CYS322      0.1808
    131  C         76.1390  233.0480    2.0830 C.2   322  CYS322      0.2601
    132  O         77.1610  233.7000    2.3080 O.2   322  CYS322     -0.2717
    133  CB        76.2240  230.6000    1.5190 C.3   322  CYS322      0.0970
    134  SG        75.7720  228.9010    1.9770 S.3   322  CYS322     -0.0800
    135  N         75.1150  233.5300    1.3830 N.am  323  MET323     -0.1979
    136  CA        75.1720  234.8570    0.7680 C.3   323  MET323      0.1605
    137  C         75.1660  236.0020    1.7830 C.2   323  MET323      0.2287
    138  O         75.4610  237.1460    1.4360 O.2   323  MET323     -0.2864
    139  CB        74.0390  235.0360   -0.2430 C.3   323  MET323      0.0413
    140  CG        74.0380  234.0090   -1.3630 C.3   323  MET323      0.0598
    141  SD        75.5400  234.0570   -2.3630 S.3   323  MET323     -0.1393
    142  CE        76.4880  232.7000   -1.6660 C.3   323  MET323      0.0692
    143  N         79.2840  235.4400    2.5050 N.3   326  HIS326     -0.1241
    144  CA        80.1040  235.3000    1.3130 C.3   326  HIS326      0.1621
    145  C         79.4740  236.0340    0.1360 C.2   326  HIS326      0.2264
    146  O         78.8020  235.4250   -0.6950 O.2   326  HIS326     -0.2867
    147  CB        80.2930  233.8200    0.9570 C.3   326  HIS326      0.0745
    148  CG        81.1300  233.0570    1.9360 C.ar  326  HIS326      0.0817
    149  ND1       82.4920  233.2360    2.0520 N.ar  326  HIS326     -0.2268
    150  CD2       80.8000  232.0990    2.8380 C.ar  326  HIS326      0.1154
    151  CE1       82.9640  232.4300    2.9840 C.ar  326  HIS326      0.1986
    152  NE2       81.9570  231.7250    3.4760 N.ar  326  HIS326     -0.2212
    153  N         83.5770  237.0710   -1.4070 N.3   337  SER337     -0.1202
    154  CA        82.6630  236.3950   -2.3240 C.3   337  SER337      0.2020
    155  C         83.2780  235.1050   -2.8440 C.2   337  SER337      0.2618
    156  O         84.4900  234.9030   -2.7490 O.2   337  SER337     -0.2717
    157  CB        82.3470  237.2990   -3.5150 C.3   337  SER337      0.2103
    158  OG        83.4870  237.4510   -4.3500 O.3   337  SER337     -0.2182
    159  N         82.4410  234.2420   -3.4080 N.am  338  ALA338     -0.1979
    160  CA        82.9130  233.0100   -4.0270 C.3   338  ALA338      0.1597
    161  C         83.9310  233.3080   -5.1230 C.2   338  ALA338      0.2287
    162  O         84.9640  232.6530   -5.2080 O.2   338  ALA338     -0.2864
    163  CB        81.7480  232.2220   -4.5920 C.3   338  ALA338      0.0319
    164  N         87.3220  234.2310   -3.4660 N.3   341  ARG341     -0.1231
    165  CA        87.9680  233.1270   -2.7670 C.3   341  ARG341      0.1694
    166  C         88.3490  231.9940   -3.7120 C.2   341  ARG341      0.2592
    167  O         89.4490  231.4460   -3.6130 O.2   341  ARG341     -0.2718
    168  CB        87.0880  232.6230   -1.6280 C.3   341  ARG341      0.0321
    169  CG        86.9050  233.6550   -0.5300 C.3   341  ARG341      0.0489
    170  CD        88.2160  233.9520    0.1910 C.3   341  ARG341      0.2205
    171  NE        88.5390  232.9080    1.1610 N.pl3 341  ARG341     -0.0865
    172  CZ        89.4400  231.9510    0.9690 C.cat 341  ARG341      0.5346
    173  NH1       90.1370  231.9040   -0.1570 N.pl3 341  ARG341      0.1354
    174  NH2       89.6530  231.0440    1.9100 N.pl3 341  ARG341      0.1354
    175  N         87.4480  231.6430   -4.6280 N.am  342  HIS342     -0.1976
    176  CA        87.8010  230.6910   -5.6750 C.3   342  HIS342      0.1656
    177  C         88.9400  231.2880   -6.4920 C.2   342  HIS342      0.2291
    178  O         89.8880  230.5890   -6.8540 O.2   342  HIS342     -0.2864
    179  CB        86.5940  230.3460   -6.5550 C.3   342  HIS342      0.0771
    180  CG        85.5650  229.5150   -5.8610 C.ar  342  HIS342      0.0820
    181  ND1       84.2100  229.6150   -6.1210 N.ar  342  HIS342     -0.2267
    182  CD2       85.6820  228.5560   -4.9080 C.ar  342  HIS342      0.1154
    183  CE1       83.5490  228.7700   -5.3660 C.ar  342  HIS342      0.1986
    184  NE2       84.4220  228.1010   -4.6180 N.ar  342  HIS342     -0.2212
    185  N         91.2350  233.1880   -5.3590 N.3   344  ASP344     -0.1225
    186  CA        92.4510  233.0130   -4.5700 C.3   344  ASP344      0.1805
    187  C         93.1370  231.6970   -4.9130 C.2   344  ASP344      0.2597
    188  O         94.3650  231.6190   -4.9540 O.2   344  ASP344     -0.2718
    189  CB        92.1450  233.0680   -3.0710 C.3   344  ASP344      0.1424
    190  CG        91.8730  234.4800   -2.5800 C.2   344  ASP344      0.3668
    191  OD1       92.3380  235.4430   -3.2320 O.co2 344  ASP344     -0.2456
    192  OD2       91.2020  234.6230   -1.5350 O.co2 344  ASP344     -0.2456
    193  N         92.3340  230.6660   -5.1640 N.am  345  VAL345     -0.1980
    194  CA        92.8590  229.3690   -5.5620 C.3   345  VAL345      0.1595
    195  C         93.4750  229.4480   -6.9530 C.2   345  VAL345      0.2287
    196  O         94.6040  229.0040   -7.1660 O.2   345  VAL345     -0.2864
    197  CB        91.7660  228.2890   -5.5440 C.3   345  VAL345      0.0276
    198  CG1       92.3340  226.9540   -5.9900 C.3   345  VAL345      0.0022
    199  CG2       91.1630  228.1760   -4.1520 C.3   345  VAL345      0.0022
    200  N         98.1820  230.6810    0.4840 N.3   472  LYS472     -0.1231
    201  CA        96.7910  230.2540    0.3280 C.3   472  LYS472      0.1693
    202  C         95.8350  231.3680    0.7350 C.2   472  LYS472      0.2592
    203  O         96.2000  232.2590    1.5060 O.2   472  LYS472     -0.2718
    204  CB        96.5050  229.0240    1.1960 C.3   472  LYS472      0.0285
    205  CG        97.4150  227.8280    0.9570 C.3   472  LYS472      0.0035
    206  CD        97.0660  226.6960    1.9150 C.3   472  LYS472      0.0206
    207  CE        98.0330  225.5300    1.7850 C.3   472  LYS472      0.1093
    208  NZ        97.6700  224.4000    2.6860 N.3   472  LYS472     -0.1314
    209  N         94.6080  231.3100    0.2230 N.am  473  GLY473     -0.1957
    210  CA        93.5600  232.2110    0.6670 C.3   473  GLY473      0.1869
    211  C         93.0210  231.7620    2.0170 C.2   473  GLY473      0.2309
    212  O         93.1920  230.6020    2.4080 O.2   473  GLY473     -0.2863
@<TRIPOS>BOND
     1    74    73    2
     2    20    19   ar
     3    20    18   ar
     4    85    83   ar
     5    85    87   ar
     6    73    72    1
     7    60    59    1
     8    19    17   ar
     9    83    82   ar
    10    18    16   ar
    11    87    86   ar
    12    57    59   ar
    13    57    55   ar
    14    59    58   ar
    15    72    71    1
    16    72    75    1
    17    17    16   ar
    18    82    81    1
    19    82    84   ar
    20    55    54   ar
    21    16    15    1
    22    86    84   ar
    23    77    78    1
    24    58    56   ar
    25    75    76    1
    26    81    78    1
    27    51    50    1
    28    51    52    2
    29    54    56   ar
    30    54    53    1
    31    50    53    1
    32    50    49    1
    33    78    79    1
    34    15    12    1
    35    79    80    2
    36    10     8   ar
    37    10     9   ar
    38    12    11    1
    39    12    13    1
    40     8     6   ar
    41     1     2    1
    42    68    69    2
    43    68    67    1
    44    62    61    1
    45    62    63    1
    46    62    65    1
    47    64    63    2
    48    14    13    2
    49     9     7   ar
    50    63    66   am
    51    13    21   am
    52     2     5    1
    53     2     3    1
    54     6     7   ar
    55     6     5    1
    56    66    67    1
    57    67    70    1
    58     3     4    2
    59    21    22    1
    60   196   195    2
    61   195   194    1
    62    88    89    1
    63   178   177    2
    64   179   180    1
    65   179   176    1
    66   177   176    1
    67    22    23    1
    68    22    25    1
    69    23    24    2
    70   181   180   ar
    71   181   183   ar
    72   106   103    1
    73   118   117    1
    74   198   197    1
    75   180   182   ar
    76   176   175    1
    77   194   197    1
    78   194   193    1
    79   197   199    1
    80    89    90    1
    81    89    92    1
    82   100   101    1
    83   100    97    1
    84   183   184   ar
    85   185   186    1
    86   103   104    1
    87   103   102    1
    88    25    26    1
    89   162   161    2
    90   193   187   am
    91   161   160    1
    92   105   104    2
    93    90    91    2
    94   188   187    2
    95   187   186    1
    96   182   184   ar
    97    94    93   ar
    98    95    93   ar
    99    93    92    1
   100    27    26    1
   101    27    28    1
   102    96    97    1
   103   175   166   am
   104    35    34    1
   105    35    36    1
   106   163   160    1
   107   104   107   am
   108   186   189    1
   109   158   157    1
   110   117   114    1
   111    97    98    1
   112    38    36   ar
   113   160   159    1
   114    34    31    1
   115    36    37   ar
   116   166   167    2
   117   166   165    1
   118    30    31    1
   119    28    29    1
   120   107   108    1
   121   157   154    1
   122   113   114    1
   123   164   165    1
   124   114   115    1
   125   159   155   am
   126    99    98    2
   127   191   190   ar
   128   189   190    1
   129   155   156    2
   130   155   154    1
   131    31    32    1
   132   108   109    1
   133   108   111    1
   134   165   168    1
   135   190   192   ar
   136   112   111    1
   137   141   142    1
   138   141   140    1
   139   154   153    1
   140   110   109    2
   141   128   126   ar
   142   128   127   ar
   143    32    33    2
   144   115   116    2
   145   115   119   am
   146   168   169    1
   147   126   124   ar
   148   127   125   ar
   149   140   139    1
   150   119   120    1
   151   146   145    2
   152   124   125   ar
   153   124   123    1
   154   169   170    1
   155   139   136    1
   156   173   172    1
   157   120   123    1
   158   120   121    1
   159   145   144    1
   160   170   171    1
   161   209   210    1
   162   209   202   am
   163   201   200    1
   164   201   202    1
   165   201   204    1
   166   210   211    1
   167   202   203    2
   168   136   135    1
   169   136   137    1
   170   205   204    1
   171   205   206    1
   172   147   144    1
   173   147   148    1
   174   172   171    2
   175   172   174    1
   176    39    40    1
   177   121   122    2
   178    45    47   ar
   179    45    44   ar
   180   144   143    1
   181    47    48   ar
   182   135   131   am
   183   138   137    2
   184   133   134    1
   185   133   130    1
   186   207   206    1
   187   207   208    1
   188   148   149   ar
   189   148   150   ar
   190   211   212    2
   191   149   151   ar
   192   131   132    2
   193   131   130    1
   194    40    43    1
   195    40    41    1
   196    48    46   ar
   197    44    43    1
   198    44    46   ar
   199   130   129    1
   200   150   152   ar
   201    42    41    2
   202   151   152   ar
