@<TRIPOS>MOLECULE
tmp/4lmhD09.pdb
 139 130 0 0 0
SMALL
GASTEIGER

@<TRIPOS>ATOM
      1  N        100.5840  203.6710  -37.2960 N.3   610  LEU610     -0.1245
      2  CA       101.5690  202.6540  -36.9210 C.3   610  LEU610      0.1561
      3  C        102.8020  202.6510  -37.8220 C.2   610  LEU610      0.2260
      4  O        102.8390  203.3310  -38.8500 O.2   610  LEU610     -0.2867
      5  CB       100.9310  201.2640  -36.9180 C.3   610  LEU610      0.0270
      6  CG        99.6520  201.0990  -36.0980 C.3   610  LEU610      0.0019
      7  CD1       99.1420  199.6700  -36.1950 C.3   610  LEU610      0.0001
      8  CD2       99.8940  201.4820  -34.6490 C.3   610  LEU610      0.0001
      9  N        104.7940  198.3490  -32.6990 N.3   635  ASP635     -0.1225
     10  CA       103.3460  198.4720  -32.8170 C.3   635  ASP635      0.1805
     11  C        102.6240  197.5550  -31.8280 C.2   635  ASP635      0.2597
     12  O        101.6320  197.9530  -31.2190 O.2   635  ASP635     -0.2718
     13  CB       102.8880  198.1830  -34.2490 C.3   635  ASP635      0.1424
     14  CG       103.5010  199.1340  -35.2660 C.2   635  ASP635      0.3668
     15  OD1      103.7420  200.3210  -34.9320 O.co2 635  ASP635     -0.2456
     16  OD2      103.7430  198.6820  -36.4070 O.co2 635  ASP635     -0.2456
     17  N        103.1340  196.3370  -31.6640 N.am  636  ALA636     -0.1979
     18  CA       102.5250  195.3630  -30.7620 C.3   636  ALA636      0.1597
     19  C        102.4800  195.8600  -29.3140 C.2   636  ALA636      0.2287
     20  O        101.4660  195.7050  -28.6240 O.2   636  ALA636     -0.2864
     21  CB       103.2520  194.0250  -30.8490 C.3   636  ALA636      0.0319
     22  N         99.7420  198.0710  -28.7470 N.3   639  CYS639     -0.1235
     23  CA        98.4970  197.3250  -28.5970 C.3   639  CYS639      0.1677
     24  C         98.3520  196.6570  -27.2230 C.2   639  CYS639      0.2270
     25  O         97.2630  196.6470  -26.6450 O.2   639  CYS639     -0.2867
     26  CB        98.3660  196.2810  -29.7070 C.3   639  CYS639      0.0956
     27  SG        98.2790  196.9840  -31.3740 S.3   639  CYS639     -0.0801
     28  N         95.6570  195.5020  -24.5820 N.3   643  HIS643     -0.1241
     29  CA        95.2970  194.1420  -24.9830 C.3   643  HIS643      0.1621
     30  C         96.0540  193.0100  -24.2880 C.2   643  HIS643      0.2264
     31  O         95.7440  191.8410  -24.5080 O.2   643  HIS643     -0.2867
     32  CB        95.4240  193.9830  -26.5000 C.3   643  HIS643      0.0745
     33  CG        94.3250  194.6480  -27.2720 C.ar  643  HIS643      0.0817
     34  ND1       93.1560  194.0050  -27.6020 N.ar  643  HIS643     -0.2268
     35  CD2       94.2300  195.8980  -27.7880 C.ar  643  HIS643      0.1154
     36  CE1       92.3770  194.8300  -28.2850 C.ar  643  HIS643      0.1986
     37  NE2       93.0080  195.9830  -28.4110 N.ar  643  HIS643     -0.2212
     38  N         94.9130  188.8650  -23.9290 N.3   647  LEU647     -0.1231
     39  CA        95.4290  188.4920  -25.2410 C.3   647  LEU647      0.1693
     40  C         95.2090  187.0010  -25.4950 C.2   647  LEU647      0.2592
     41  O         95.6620  186.1560  -24.7200 O.2   647  LEU647     -0.2718
     42  CB        96.9170  188.8360  -25.3570 C.3   647  LEU647      0.0284
     43  CG        97.4200  189.0220  -26.7920 C.3   647  LEU647      0.0019
     44  CD1       96.7280  190.2110  -27.4280 C.3   647  LEU647      0.0001
     45  CD2       98.9280  189.1920  -26.8490 C.3   647  LEU647      0.0001
     46  N         94.5050  186.6810  -26.5770 N.am  648  SER648     -0.1952
     47  CA        94.2000  185.2900  -26.9030 C.3   648  SER648      0.1924
     48  C         95.3090  184.6500  -27.7310 C.2   648  SER648      0.2314
     49  O         96.0980  185.3500  -28.3750 O.2   648  SER648     -0.2863
     50  CB        92.8660  185.1880  -27.6460 C.3   648  SER648      0.2116
     51  OG        92.9390  185.8090  -28.9160 O.3   648  SER648     -0.2180
     52  N         95.1490  185.8210  -31.0960 N.3   651  ALA651     -0.1245
     53  CA        95.7300  187.1550  -31.2220 C.3   651  ALA651      0.1562
     54  C         97.2580  187.1030  -31.2500 C.2   651  ALA651      0.2260
     55  O         97.8900  187.7990  -32.0500 O.2   651  ALA651     -0.2867
     56  CB        95.2530  188.0570  -30.1060 C.3   651  ALA651      0.0290
     57  N         98.3330  185.8530  -34.4950 N.3   654  HIS654     -0.1226
     58  CA        98.1380  186.9310  -35.4580 C.3   654  HIS654      0.1752
     59  C         99.3000  187.9270  -35.4670 C.2   654  HIS654      0.2595
     60  O         99.7990  188.2980  -36.5290 O.2   654  HIS654     -0.2718
     61  CB        96.8210  187.6590  -35.1790 C.3   654  HIS654      0.0759
     62  CG        96.6090  188.8710  -36.0290 C.ar  654  HIS654      0.0818
     63  ND1       96.4760  188.8070  -37.4010 N.ar  654  HIS654     -0.2268
     64  CD2       96.5100  190.1830  -35.7040 C.ar  654  HIS654      0.1154
     65  CE1       96.3010  190.0220  -37.8820 C.ar  654  HIS654      0.1986
     66  NE2       96.3190  190.8780  -36.8710 N.ar  654  HIS654     -0.2212
     67  N         99.7300  188.3540  -34.2820 N.am  655  ILE655     -0.1980
     68  CA       100.8170  189.3230  -34.1660 C.3   655  ILE655      0.1595
     69  C        102.1490  188.7620  -34.6750 C.2   655  ILE655      0.2287
     70  O        102.8540  189.4160  -35.4520 O.2   655  ILE655     -0.2864
     71  CB       100.9630  189.8350  -32.7140 C.3   655  ILE655      0.0276
     72  CG1       99.6950  190.5820  -32.2980 C.3   655  ILE655      0.0022
     73  CG2      102.1850  190.7370  -32.5710 C.3   655  ILE655      0.0022
     74  CD1       99.6850  191.0190  -30.8610 C.3   655  ILE655      0.0001
     75  N        102.5100  188.4800  -38.4310 N.3   658  ASN658     -0.1240
     76  CA       102.7070  189.7460  -39.1250 C.3   658  ASN658      0.1653
     77  C        103.9400  190.5330  -38.6800 C.2   658  ASN658      0.2266
     78  O        104.0260  191.7420  -38.8960 O.2   658  ASN658     -0.2867
     79  CB       101.4510  190.6000  -39.0320 C.3   658  ASN658      0.1155
     80  CG       100.2660  189.9420  -39.6930 C.2   658  ASN658      0.2627
     81  OD1      100.1540  189.9320  -40.9200 O.2   658  ASN658     -0.2716
     82  ND2       99.3740  189.3800  -38.8870 N.am  658  ASN658     -0.0877
     83  N        105.4720  190.6970  -35.5290 N.3   660  GLY660     -0.1225
     84  CA       105.5930  191.1550  -34.1580 C.3   660  GLY660      0.1811
     85  C        106.3140  190.1660  -33.2630 C.2   660  GLY660      0.2280
     86  O        106.3860  188.9740  -33.5710 O.2   660  GLY660     -0.2866
     87  N        107.7170  194.0490  -38.3020 N.3   676  GLU676     -0.1231
     88  CA       106.3100  194.4280  -38.2140 C.3   676  GLU676      0.1699
     89  C        105.7490  195.0860  -39.4750 C.2   676  GLU676      0.2593
     90  O        106.3340  196.0230  -40.0220 O.2   676  GLU676     -0.2718
     91  CB       106.0760  195.3530  -37.0180 C.3   676  GLU676      0.0402
     92  CG       106.0560  194.6540  -35.6850 C.3   676  GLU676      0.1161
     93  CD       105.7240  195.5990  -34.5450 C.2   676  GLU676      0.3649
     94  OE1      106.0620  196.8010  -34.6440 O.co2 676  GLU676     -0.2457
     95  OE2      105.1160  195.1430  -33.5510 O.co2 676  GLU676     -0.2457
     96  N        104.5990  194.5910  -39.9180 N.am  677  SER677     -0.1938
     97  CA       103.8490  195.2300  -40.9840 C.3   677  SER677      0.2055
     98  C        102.3980  195.3340  -40.5420 C.2   677  SER677      0.2643
     99  O        101.5310  194.6280  -41.0440 O.2   677  SER677     -0.2714
    100  CB       103.9590  194.4360  -42.2860 C.3   677  SER677      0.2130
    101  OG       103.6270  195.2530  -43.3960 O.3   677  SER677     -0.2179
    102  N        102.1450  196.2120  -39.5820 N.am  678  CYS678     -0.1967
    103  CA       100.8120  196.3700  -39.0260 C.3   678  CYS678      0.1712
    104  C        100.0730  197.5210  -39.6960 C.2   678  CYS678      0.2296
    105  O         98.8570  197.4670  -39.8900 O.2   678  CYS678     -0.2864
    106  CB       100.9110  196.6260  -37.5250 C.3   678  CYS678      0.0983
    107  SG       102.1240  195.5820  -36.6770 S.3   678  CYS678     -0.0798
    108  N         99.8380  198.4760  -42.6070 N.3   680  THR680     -0.1203
    109  CA        99.2490  198.2050  -43.9110 C.3   680  THR680      0.1994
    110  C         97.7540  197.8850  -43.7970 C.2   680  THR680      0.2618
    111  O         96.9570  198.2940  -44.6440 O.2   680  THR680     -0.2717
    112  CB       100.0170  197.0900  -44.6660 C.3   680  THR680      0.1784
    113  OG1       99.2710  196.6860  -45.8210 O.3   680  THR680     -0.2211
    114  CG2      100.2500  195.8830  -43.7630 C.3   680  THR680      0.0376
    115  N         97.3770  197.1730  -42.7380 N.am  681  CYS681     -0.1955
    116  CA        95.9720  196.8450  -42.4980 C.3   681  CYS681      0.1843
    117  C         95.3510  197.7550  -41.4460 C.2   681  CYS681      0.2625
    118  O         94.2670  198.2990  -41.6420 O.2   681  CYS681     -0.2714
    119  CB        95.8180  195.3870  -42.0610 C.3   681  CYS681      0.0997
    120  SG        96.0930  194.1780  -43.3590 S.3   681  CYS681     -0.0797
    121  N         96.0460  197.9120  -40.3250 N.am  682  HIS682     -0.1973
    122  CA        95.5280  198.6970  -39.2140 C.3   682  HIS682      0.1656
    123  C         95.8140  200.1830  -39.4010 C.2   682  HIS682      0.2291
    124  O         96.6650  200.7540  -38.7200 O.2   682  HIS682     -0.2864
    125  CB        96.1100  198.2030  -37.8890 C.3   682  HIS682      0.0771
    126  CG        95.6660  196.8230  -37.5110 C.ar  682  HIS682      0.0820
    127  ND1       94.4030  196.5550  -37.0380 N.ar  682  HIS682     -0.2267
    128  CD2       96.3220  195.6370  -37.5340 C.ar  682  HIS682      0.1154
    129  CE1       94.2930  195.2620  -36.7830 C.ar  682  HIS682      0.1986
    130  NE2       95.4460  194.6840  -37.0750 N.ar  682  HIS682     -0.2212
    131  N         90.6530  202.2840  -39.8360 N.3   686  GLN686     -0.1245
    132  CA        90.1010  200.9870  -39.4540 C.3   686  GLN686      0.1566
    133  C         90.2440  200.7300  -37.9490 C.2   686  GLN686      0.2260
    134  O         89.4160  200.0430  -37.3410 O.2   686  GLN686     -0.2867
    135  CB        90.7160  199.8560  -40.2990 C.3   686  GLN686      0.0367
    136  CG        91.9550  199.1970  -39.6720 C.3   686  GLN686      0.0905
    137  CD        91.6200  198.0190  -38.7610 C.2   686  GLN686      0.2608
    138  OE1       92.2410  197.8170  -37.7060 O.2   686  GLN686     -0.2717
    139  NE2       90.6440  197.2200  -39.1810 N.am  686  GLN686     -0.0878
@<TRIPOS>BOND
     1   113   112    1
     2   112   109    1
     3   112   114    1
     4   111   110    2
     5   109   110    1
     6   109   108    1
     7   110   115   am
     8   101   100    1
     9   120   119    1
    10   115   116    1
    11   116   119    1
    12   116   117    1
    13   100    97    1
    14   118   117    2
    15   117   121   am
    16    99    98    2
    17    97    98    1
    18    97    96    1
    19    81    80    2
    20    98   102   am
    21   121   122    1
    22   135   136    1
    23   135   132    1
    24    90    89    2
    25    96    89   am
    26   105   104    2
    27   131   132    1
    28   104   103    1
    29    80    79    1
    30    80    82   am
    31   136   137    1
    32   102   103    1
    33    89    88    1
    34   132   133    1
    35   123   122    1
    36   123   124    2
    37   122   125    1
    38   139   137   am
    39    76    79    1
    40    76    77    1
    41    76    75    1
    42   103   106    1
    43    78    77    2
    44     4     3    2
    45   137   138    2
    46    87    88    1
    47    88    91    1
    48   133   134    2
    49   125   126    1
    50    65    63   ar
    51    65    66   ar
    52     3     2    1
    53   128   126   ar
    54   128   130   ar
    55   106   107    1
    56   126   127   ar
    57    63    62   ar
    58     1     2    1
    59   130   129   ar
    60   127   129   ar
    61    91    92    1
    62     2     5    1
    63     5     6    1
    64    66    64   ar
    65    60    59    2
    66    16    14   ar
    67     7     6    1
    68     6     8    1
    69    62    64   ar
    70    62    61    1
    71    92    93    1
    72    83    84    1
    73    59    58    1
    74    59    67   am
    75    58    61    1
    76    58    57    1
    77    70    69    2
    78    14    15   ar
    79    14    13    1
    80    69    68    1
    81    94    93   ar
    82    93    95   ar
    83    67    68    1
    84    13    10    1
    85    68    71    1
    86    84    85    1
    87    86    85    2
    88    10     9    1
    89    10    11    1
    90    71    73    1
    91    71    72    1
    92    72    74    1
    93    55    54    2
    94    11    17   am
    95    11    12    2
    96    17    18    1
    97    27    26    1
    98    54    53    1
    99    53    52    1
   100    53    56    1
   101    21    18    1
   102    18    19    1
   103    26    23    1
   104    19    20    2
   105    51    50    1
   106    22    23    1
   107    23    24    1
   108    37    36   ar
   109    37    35   ar
   110    49    48    2
   111    36    34   ar
   112    35    33   ar
   113    48    47    1
   114    50    47    1
   115    34    33   ar
   116    44    43    1
   117    33    32    1
   118    24    25    2
   119    47    46    1
   120    45    43    1
   121    43    42    1
   122    46    40   am
   123    32    29    1
   124    40    39    1
   125    40    41    2
   126    42    39    1
   127    39    38    1
   128    29    28    1
   129    29    30    1
   130    31    30    2
