@<TRIPOS>MOLECULE
tmp/4lmhD06.pdb
 178 173 0 0 0
SMALL
GASTEIGER

@<TRIPOS>ATOM
      1  N        115.8880  218.5140  -16.5010 N.3   400  TYR400     -0.1241
      2  CA       116.1110  217.2270  -17.1560 C.3   400  TYR400      0.1605
      3  C        116.7000  217.3950  -18.5550 C.2   400  TYR400      0.2264
      4  O        116.2420  218.2280  -19.3410 O.2   400  TYR400     -0.2867
      5  CB       114.8120  216.4120  -17.1970 C.3   400  TYR400      0.0534
      6  CG       114.3180  216.0320  -15.8210 C.ar  400  TYR400     -0.0201
      7  CD1      114.7000  214.8320  -15.2330 C.ar  400  TYR400     -0.0009
      8  CD2      113.4880  216.8810  -15.0980 C.ar  400  TYR400     -0.0009
      9  CE1      114.2580  214.4810  -13.9660 C.ar  400  TYR400      0.0417
     10  CE2      113.0430  216.5390  -13.8320 C.ar  400  TYR400      0.0417
     11  CZ       113.4340  215.3410  -13.2710 C.ar  400  TYR400      0.1957
     12  OH       112.9960  215.0000  -12.0120 O.3   400  TYR400     -0.2866
     13  N        115.7040  208.6270  -16.5070 N.3   418  TYR418     -0.1241
     14  CA       115.2690  209.9900  -16.1910 C.3   418  TYR418      0.1605
     15  C        116.0810  210.5260  -15.0020 C.2   418  TYR418      0.2264
     16  O        116.4770  211.6910  -14.9840 O.2   418  TYR418     -0.2867
     17  CB       113.7600  210.0370  -15.8790 C.3   418  TYR418      0.0534
     18  CG       113.4310  209.4790  -14.5150 C.ar  418  TYR418     -0.0201
     19  CD1      113.3000  208.1120  -14.3150 C.ar  418  TYR418     -0.0009
     20  CD2      113.2920  210.3180  -13.4170 C.ar  418  TYR418     -0.0009
     21  CE1      113.0270  207.5990  -13.0620 C.ar  418  TYR418      0.0417
     22  CE2      113.0270  209.8130  -12.1640 C.ar  418  TYR418      0.0417
     23  CZ       112.8970  208.4550  -11.9920 C.ar  418  TYR418      0.1957
     24  OH       112.6260  207.9500  -10.7430 O.3   418  TYR418     -0.2866
     25  N        114.5060  220.3390  -20.1030 N.3   463  TYR463     -0.1241
     26  CA       113.1560  220.4310  -19.5520 C.3   463  TYR463      0.1605
     27  C        113.2020  220.7960  -18.0730 C.2   463  TYR463      0.2264
     28  O        113.9140  220.1670  -17.2850 O.2   463  TYR463     -0.2867
     29  CB       112.4120  219.1050  -19.7430 C.3   463  TYR463      0.0534
     30  CG       111.0360  219.0410  -19.1060 C.ar  463  TYR463     -0.0201
     31  CD1      110.0650  219.9920  -19.3950 C.ar  463  TYR463     -0.0009
     32  CD2      110.7010  218.0100  -18.2360 C.ar  463  TYR463     -0.0009
     33  CE1      108.8010  219.9270  -18.8200 C.ar  463  TYR463      0.0417
     34  CE2      109.4400  217.9350  -17.6590 C.ar  463  TYR463      0.0417
     35  CZ       108.4940  218.8940  -17.9550 C.ar  463  TYR463      0.1957
     36  OH       107.2420  218.8220  -17.3820 O.3   463  TYR463     -0.2866
     37  N         97.9880  217.6920  -14.1050 N.3   532  ILE532     -0.1231
     38  CA        97.4340  216.3460  -14.2750 C.3   532  ILE532      0.1692
     39  C         97.7360  215.3870  -13.1190 C.2   532  ILE532      0.2592
     40  O         96.8230  214.7690  -12.5710 O.2   532  ILE532     -0.2718
     41  CB        97.8800  215.7090  -15.6120 C.3   532  ILE532      0.0266
     42  CG1       97.5530  216.6440  -16.7780 C.3   532  ILE532      0.0019
     43  CG2       97.2040  214.3560  -15.8330 C.3   532  ILE532      0.0020
     44  CD1       97.9830  216.1070  -18.1310 C.3   532  ILE532      0.0001
     45  N         99.0080  215.2490  -12.7560 N.am  533  VAL533     -0.1966
     46  CA        99.3760  214.3510  -11.6600 C.3   533  VAL533      0.1727
     47  C        100.6960  214.7220  -10.9570 C.2   533  VAL533      0.2616
     48  O        100.7330  214.8440   -9.7330 O.2   533  VAL533     -0.2715
     49  CB        99.3730  212.8730  -12.1210 C.3   533  VAL533      0.0290
     50  CG1      100.1230  212.7250  -13.4280 C.3   533  VAL533      0.0023
     51  CG2       99.9560  211.9680  -11.0500 C.3   533  VAL533      0.0023
     52  N        101.7680  214.8910  -11.7260 N.am  534  HIS534     -0.1959
     53  CA       103.0380  215.3910  -11.1910 C.3   534  HIS534      0.1787
     54  C        103.9550  215.8610  -12.3130 C.2   534  HIS534      0.2620
     55  O        103.7170  215.5400  -13.4810 O.2   534  HIS534     -0.2715
     56  CB       103.7430  214.3560  -10.3020 C.3   534  HIS534      0.0785
     57  CG       104.1690  213.1160  -11.0150 C.ar  534  HIS534      0.0821
     58  ND1      104.7970  212.0660  -10.3780 N.ar  534  HIS534     -0.2267
     59  CD2      104.0650  212.7400  -12.3170 C.ar  534  HIS534      0.1154
     60  CE1      105.0580  211.1090  -11.2410 C.ar  534  HIS534      0.1986
     61  NE2      104.6180  211.4950  -12.4340 N.ar  534  HIS534     -0.2212
     62  N        104.9940  216.6120  -11.9510 N.am  535  TYR535     -0.1960
     63  CA       105.8890  217.2290  -12.9290 C.3   535  TYR535      0.1771
     64  C        105.0670  217.9060  -14.0120 C.2   535  TYR535      0.2619
     65  O        105.2330  217.6450  -15.2060 O.2   535  TYR535     -0.2715
     66  CB       106.8580  216.2000  -13.5160 C.3   535  TYR535      0.0574
     67  CG       107.7800  215.6170  -12.4760 C.ar  535  TYR535     -0.0198
     68  CD1      108.8830  216.3300  -12.0200 C.ar  535  TYR535     -0.0009
     69  CD2      107.5350  214.3660  -11.9260 C.ar  535  TYR535     -0.0009
     70  CE1      109.7270  215.8050  -11.0520 C.ar  535  TYR535      0.0417
     71  CE2      108.3670  213.8330  -10.9600 C.ar  535  TYR535      0.0417
     72  CZ       109.4630  214.5550  -10.5270 C.ar  535  TYR535      0.1957
     73  OH       110.2980  214.0280   -9.5670 O.3   535  TYR535     -0.2866
     74  N        104.1690  218.7780  -13.5710 N.am  536  ASP536     -0.1971
     75  CA       103.1140  219.2880  -14.4330 C.3   536  ASP536      0.1709
     76  C        103.4750  220.5710  -15.1720 C.2   536  ASP536      0.2293
     77  O        102.6180  221.4280  -15.3980 O.2   536  ASP536     -0.2864
     78  CB       101.8170  219.4530  -13.6390 C.3   536  ASP536      0.1436
     79  CG       101.2350  218.1210  -13.2000 C.2   536  ASP536      0.3671
     80  OD1      101.0590  217.2370  -14.0660 O.co2 536  ASP536     -0.2456
     81  OD2      100.9670  217.9530  -11.9920 O.co2 536  ASP536     -0.2456
     82  N        103.5170  221.5660  -18.2990 N.3   538  GLY538     -0.1210
     83  CA       102.9890  221.0950  -19.5670 C.3   538  GLY538      0.1956
     84  C        102.8040  219.5890  -19.5710 C.2   538  GLY538      0.2612
     85  O        102.7450  218.9570  -18.5140 O.2   538  GLY538     -0.2717
     86  N        102.7080  219.0160  -20.7660 N.am  539  VAL539     -0.1965
     87  CA       102.5800  217.5720  -20.9210 C.3   539  VAL539      0.1727
     88  C        103.8120  217.0250  -21.6320 C.2   539  VAL539      0.2616
     89  O        103.8290  216.8770  -22.8550 O.2   539  VAL539     -0.2715
     90  CB       101.3160  217.1970  -21.7160 C.3   539  VAL539      0.0290
     91  CG1      101.1260  215.6860  -21.7350 C.3   539  VAL539      0.0023
     92  CG2      100.0890  217.8870  -21.1270 C.3   539  VAL539      0.0023
     93  N        104.8440  216.7380  -20.8460 N.am  540  ASN540     -0.1958
     94  CA       106.1260  216.2760  -21.3560 C.3   540  ASN540      0.1819
     95  C        106.4810  214.9590  -20.6760 C.2   540  ASN540      0.2621
     96  O        107.6560  214.6580  -20.4530 O.2   540  ASN540     -0.2715
     97  CB       107.2040  217.3280  -21.0600 C.3   540  ASN540      0.1195
     98  CG       108.3670  217.2790  -22.0340 C.2   540  ASN540      0.2630
     99  OD1      108.1780  217.2030  -23.2500 O.2   540  ASN540     -0.2716
    100  ND2      109.5830  217.3290  -21.4990 N.am  540  ASN540     -0.0877
    101  N        105.4490  214.1820  -20.3450 N.am  541  CYS541     -0.1968
    102  CA       105.5910  212.9400  -19.5840 C.3   541  CYS541      0.1712
    103  C        106.5170  211.9300  -20.2530 C.2   541  CYS541      0.2296
    104  O        107.1450  211.1070  -19.5840 O.2   541  CYS541     -0.2864
    105  CB       104.2200  212.2940  -19.3820 C.3   541  CYS541      0.0983
    106  SG       102.8750  213.4840  -19.1850 S.3   541  CYS541     -0.0798
    107  N        109.2840  212.2370  -21.4500 N.3   543  ALA543     -0.1231
    108  CA       110.6990  212.4490  -21.1720 C.3   543  ALA543      0.1694
    109  C        111.1920  211.4540  -20.1240 C.2   543  ALA543      0.2592
    110  O        112.3630  211.0600  -20.1320 O.2   543  ALA543     -0.2718
    111  CB       110.9470  213.8760  -20.7150 C.3   543  ALA543      0.0304
    112  N        110.2900  211.0490  -19.2310 N.am  544  CYS544     -0.1956
    113  CA       110.6140  210.1000  -18.1660 C.3   544  CYS544      0.1843
    114  C        109.9790  208.7340  -18.3920 C.2   544  CYS544      0.2625
    115  O        110.6000  207.7040  -18.1400 O.2   544  CYS544     -0.2714
    116  CB       110.1550  210.6290  -16.8020 C.3   544  CYS544      0.0997
    117  SG       110.8540  212.2120  -16.3220 S.3   544  CYS544     -0.0797
    118  N        108.7300  208.7300  -18.8450 N.am  545  HIS545     -0.1973
    119  CA       107.9800  207.4850  -18.9820 C.3   545  HIS545      0.1656
    120  C        108.2200  206.8190  -20.3400 C.2   545  HIS545      0.2291
    121  O        107.3280  206.7630  -21.1920 O.2   545  HIS545     -0.2864
    122  CB       106.4850  207.7210  -18.7350 C.3   545  HIS545      0.0771
    123  CG       106.1450  207.9750  -17.2960 C.ar  545  HIS545      0.0820
    124  ND1      105.9890  206.9630  -16.3810 N.ar  545  HIS545     -0.2267
    125  CD2      105.9330  209.1340  -16.6200 C.ar  545  HIS545      0.1154
    126  CE1      105.6920  207.4790  -15.1970 C.ar  545  HIS545      0.1986
    127  NE2      105.6540  208.7940  -15.3190 N.ar  545  HIS545     -0.2212
    128  N        110.9810  201.6330  -19.8390 N.3   549  LYS549     -0.1245
    129  CA       111.1280  201.9530  -18.4180 C.3   549  LYS549      0.1561
    130  C        110.8190  200.7270  -17.5520 C.2   549  LYS549      0.2260
    131  O        110.0820  199.8290  -17.9710 O.2   549  LYS549     -0.2867
    132  CB       110.2090  203.1220  -18.0520 C.3   549  LYS549      0.0271
    133  CG       110.4280  203.7330  -16.6760 C.3   549  LYS549      0.0035
    134  CD       109.5170  204.9490  -16.4930 C.3   549  LYS549      0.0206
    135  CE       109.5050  205.4560  -15.0610 C.3   549  LYS549      0.1093
    136  NZ       108.8680  204.4870  -14.1350 N.3   549  LYS549     -0.1314
    137  N        106.5270  198.0150  -12.7580 N.3   552  LYS552     -0.1245
    138  CA       105.9910  198.3200  -11.4350 C.3   552  LYS552      0.1561
    139  C        105.1670  197.1350  -10.9370 C.2   552  LYS552      0.2260
    140  O        104.5490  196.4240  -11.7290 O.2   552  LYS552     -0.2867
    141  CB       105.1180  199.5800  -11.4800 C.3   552  LYS552      0.0271
    142  CG       104.7090  200.1110  -10.1120 C.3   552  LYS552      0.0035
    143  CD       103.8550  201.3690  -10.2150 C.3   552  LYS552      0.0206
    144  CE       102.4870  201.0690  -10.8130 C.3   552  LYS552      0.1093
    145  NZ       101.6640  200.1600   -9.9570 N.3   552  LYS552     -0.1314
    146  N        105.4080  201.0120  -17.0980 N.3   564  THR564     -0.1218
    147  CA       105.2870  202.3560  -16.5370 C.3   564  THR564      0.1862
    148  C        105.4970  203.3990  -17.6270 C.2   564  THR564      0.2287
    149  O        105.9140  204.5290  -17.3530 O.2   564  THR564     -0.2866
    150  CB       106.3080  202.6060  -15.4150 C.3   564  THR564      0.1770
    151  OG1      107.6360  202.4210  -15.9260 O.3   564  THR564     -0.2211
    152  CG2      106.0690  201.6620  -14.2400 C.3   564  THR564      0.0375
    153  N        104.4970  205.9990  -20.8090 N.3   566  PHE566     -0.1241
    154  CA       103.4930  207.0460  -20.9720 C.3   566  PHE566      0.1605
    155  C        102.1880  206.4410  -21.5000 C.2   566  PHE566      0.2264
    156  O        101.1180  206.6490  -20.9130 O.2   566  PHE566     -0.2867
    157  CB       104.0070  208.1420  -21.9150 C.3   566  PHE566      0.0534
    158  CG       103.1820  209.4040  -21.9000 C.ar  566  PHE566     -0.0203
    159  CD1      102.1770  209.5920  -20.9580 C.ar  566  PHE566     -0.0042
    160  CD2      103.4090  210.4010  -22.8380 C.ar  566  PHE566     -0.0042
    161  CE1      101.4120  210.7520  -20.9530 C.ar  566  PHE566     -0.0003
    162  CE2      102.6480  211.5680  -22.8360 C.ar  566  PHE566     -0.0003
    163  CZ       101.6480  211.7430  -21.8950 C.ar  566  PHE566     -0.0000
    164  N        100.4380  204.5850  -18.7580 N.3   569  LYS569     -0.1245
    165  CA        99.8330  205.4950  -17.7890 C.3   569  LYS569      0.1561
    166  C         98.5210  206.1020  -18.3010 C.2   569  LYS569      0.2260
    167  O         97.5450  206.1840  -17.5580 O.2   569  LYS569     -0.2867
    168  CB       100.8190  206.5900  -17.3590 C.3   569  LYS569      0.0271
    169  CG       102.0830  206.0700  -16.6710 C.3   569  LYS569      0.0035
    170  CD       101.7680  205.3980  -15.3370 C.3   569  LYS569      0.0206
    171  CE       103.0390  204.9480  -14.6300 C.3   569  LYS569      0.1093
    172  NZ       102.7610  204.2100  -13.3620 N.3   569  LYS569     -0.1314
    173  N         94.7750  204.2200  -17.2220 N.3   573  SER573     -0.1217
    174  CA        94.1920  205.0550  -16.1720 C.3   573  SER573      0.1889
    175  C         92.6710  204.8630  -16.0630 C.2   573  SER573      0.2288
    176  O         91.9520  204.8970  -17.0680 O.2   573  SER573     -0.2866
    177  CB        94.5330  206.5260  -16.4240 C.3   573  SER573      0.2089
    178  OG        94.4440  207.2910  -15.2340 O.3   573  SER573     -0.2183
@<TRIPOS>BOND
     1    99    98    2
     2    89    88    2
     3   160   162   ar
     4   160   158   ar
     5   162   163   ar
     6    98   100   am
     7    98    97    1
     8   157   158    1
     9   157   154    1
    10   158   159   ar
    11   163   161   ar
    12    91    90    1
    13    90    92    1
    14    90    87    1
    15    88    87    1
    16    88    93   am
    17   155   154    1
    18   155   156    2
    19   107   108    1
    20    94    97    1
    21    94    93    1
    22    94    95    1
    23   121   120    2
    24   108   111    1
    25   108   109    1
    26   154   153    1
    27   159   161   ar
    28    87    86    1
    29    86    84   am
    30    95    96    2
    31    95   101   am
    32   101   102    1
    33   120   119    1
    34   103   104    2
    35   103   102    1
    36   110   109    2
    37   109   112   am
    38    25    26    1
    39   128   129    1
    40    29    26    1
    41    29    30    1
    42   102   105    1
    43    84    83    1
    44    84    85    2
    45    83    82    1
    46    26    27    1
    47    31    30   ar
    48    31    33   ar
    49   105   106    1
    50     4     3    2
    51   112   113    1
    52    30    32   ar
    53   119   118    1
    54   119   122    1
    55   118   114   am
    56    33    35   ar
    57   164   165    1
    58   122   123    1
    59     3     2    1
    60   129   132    1
    61   129   130    1
    62   114   113    1
    63   114   115    2
    64   166   165    1
    65   166   167    2
    66    32    34   ar
    67   113   116    1
    68    44    42    1
    69    27    28    2
    70   132   133    1
    71   131   130    2
    72    35    34   ar
    73    35    36    1
    74   165   168    1
    75   148   149    2
    76   148   147    1
    77   168   169    1
    78   123   125   ar
    79   123   124   ar
    80   173   174    1
    81     5     2    1
    82     5     6    1
    83     2     1    1
    84   146   147    1
    85   176   175    2
    86   116   117    1
    87    42    41    1
    88   133   134    1
    89   169   170    1
    90   125   127   ar
    91   147   150    1
    92    13    14    1
    93   134   135    1
    94   177   174    1
    95   177   178    1
    96   124   126   ar
    97    14    17    1
    98    14    15    1
    99   174   175    1
   100   151   150    1
   101    17    18    1
   102    43    41    1
   103     6     7   ar
   104     6     8   ar
   105    41    38    1
   106   150   152    1
   107    77    76    2
   108   170   171    1
   109   127   126   ar
   110     7     9   ar
   111    65    64    2
   112    76    75    1
   113     8    10   ar
   114   135   136    1
   115    15    16    2
   116   171   172    1
   117    18    19   ar
   118    18    20   ar
   119    75    78    1
   120    75    74    1
   121    19    21   ar
   122    38    37    1
   123    38    39    1
   124    80    79   ar
   125    64    74   am
   126    64    63    1
   127     9    11   ar
   128    10    11   ar
   129    78    79    1
   130    66    63    1
   131    66    67    1
   132    55    54    2
   133    50    49    1
   134    20    22   ar
   135    11    12    1
   136    79    81   ar
   137    39    45   am
   138    39    40    2
   139    21    23   ar
   140    63    62    1
   141   137   138    1
   142    45    46    1
   143    67    68   ar
   144    67    69   ar
   145    61    59   ar
   146    61    60   ar
   147    59    57   ar
   148    54    62   am
   149    54    53    1
   150    22    23   ar
   151    49    46    1
   152    49    51    1
   153    68    70   ar
   154    23    24    1
   155    69    71   ar
   156   140   139    2
   157    52    53    1
   158    52    47   am
   159    46    47    1
   160   141   138    1
   161   141   142    1
   162   138   139    1
   163    60    58   ar
   164    53    56    1
   165    70    72   ar
   166    57    58   ar
   167    57    56    1
   168    71    72   ar
   169    47    48    2
   170   144   143    1
   171   144   145    1
   172    72    73    1
   173   143   142    1
