@<TRIPOS>MOLECULE
tmp/4lmhD04.pdb
 182 180 0 0 0
SMALL
GASTEIGER

@<TRIPOS>ATOM
      1  N         81.5130  218.4170    7.9880 N.3   243  PHE243     -0.1241
      2  CA        82.1050  218.2940    9.3170 C.3   243  PHE243      0.1605
      3  C         81.0240  217.9910   10.3570 C.2   243  PHE243      0.2264
      4  O         79.9290  218.5430   10.2810 O.2   243  PHE243     -0.2867
      5  CB        82.8880  219.5700    9.6640 C.3   243  PHE243      0.0534
      6  CG        84.0550  219.8360    8.7370 C.ar  243  PHE243     -0.0203
      7  CD1       83.8780  220.5490    7.5560 C.ar  243  PHE243     -0.0042
      8  CD2       85.3250  219.3600    9.0410 C.ar  243  PHE243     -0.0042
      9  CE1       84.9480  220.7860    6.6960 C.ar  243  PHE243     -0.0003
     10  CE2       86.4030  219.5950    8.1910 C.ar  243  PHE243     -0.0003
     11  CZ        86.2130  220.3090    7.0150 C.ar  243  PHE243     -0.0000
     12  N         76.0520  226.7940   -3.5300 N.3   305  CYS305     -0.1221
     13  CA        77.2780  226.4850   -2.8090 C.3   305  CYS305      0.1808
     14  C         77.1470  225.1660   -2.0760 C.2   305  CYS305      0.2601
     15  O         78.0560  224.3330   -2.1150 O.2   305  CYS305     -0.2717
     16  CB        77.5950  227.5900   -1.8010 C.3   305  CYS305      0.0970
     17  SG        77.3030  229.2510   -2.4290 S.3   305  CYS305     -0.0800
     18  N         76.0100  224.9900   -1.4060 N.am  306  ILE306     -0.1979
     19  CA        75.7510  223.8080   -0.5850 C.3   306  ILE306      0.1595
     20  C         75.8850  222.5130   -1.3970 C.2   306  ILE306      0.2287
     21  O         76.3590  221.4920   -0.8840 O.2   306  ILE306     -0.2864
     22  CB        74.3680  223.9100    0.1060 C.3   306  ILE306      0.0276
     23  CG1       74.3620  225.1010    1.0740 C.3   306  ILE306      0.0022
     24  CG2       74.0170  222.6230    0.8420 C.3   306  ILE306      0.0022
     25  CD1       73.0170  225.3730    1.7220 C.3   306  ILE306      0.0001
     26  N         79.6670  222.2690   -1.2220 N.3   309  HIS309     -0.1226
     27  CA        80.3060  222.4350    0.0800 C.3   309  HIS309      0.1752
     28  C         79.5270  221.8620    1.2830 C.2   309  HIS309      0.2597
     29  O         80.0720  221.7840    2.3900 O.2   309  HIS309     -0.2718
     30  CB        80.6340  223.9160    0.3130 C.3   309  HIS309      0.0759
     31  CG        81.6820  224.4630   -0.6090 C.ar  309  HIS309      0.0818
     32  ND1       82.9920  224.0260   -0.6000 N.ar  309  HIS309     -0.2268
     33  CD2       81.6250  225.4390   -1.5510 C.ar  309  HIS309      0.1154
     34  CE1       83.6880  224.6950   -1.4970 C.ar  309  HIS309      0.1986
     35  NE2       82.8790  225.5630   -2.0920 N.ar  309  HIS309     -0.2212
     36  N         78.2780  221.4460    1.0520 N.am  310  THR310     -0.1939
     37  CA        77.3130  221.0770    2.1140 C.3   310  THR310      0.2028
     38  C         76.8790  222.2760    2.9640 C.2   310  THR310      0.2642
     39  O         77.2170  223.4210    2.6610 O.2   310  THR310     -0.2714
     40  CB        77.7800  219.9060    3.0380 C.3   310  THR310      0.1808
     41  OG1       78.7610  220.3720    3.9750 O.3   310  THR310     -0.2208
     42  CG2       78.3420  218.7580    2.2220 C.3   310  THR310      0.0379
     43  N         76.1130  222.0110    4.0170 N.am  311  GLU311     -0.1976
     44  CA        75.6150  223.0810    4.8730 C.3   311  GLU311      0.1602
     45  C         76.6100  223.4450    5.9650 C.2   311  GLU311      0.2287
     46  O         76.4970  224.4960    6.5880 O.2   311  GLU311     -0.2864
     47  CB        74.2700  222.7030    5.4890 C.3   311  GLU311      0.0415
     48  CG        73.1450  222.6070    4.4830 C.3   311  GLU311      0.1163
     49  CD        71.8340  222.1870    5.1140 C.2   311  GLU311      0.3649
     50  OE1       71.8080  221.1320    5.7860 O.co2 311  GLU311     -0.2457
     51  OE2       70.8320  222.9160    4.9410 O.co2 311  GLU311     -0.2457
     52  N         80.4780  223.7200    5.7510 N.3   313  PRO313     -0.2102
     53  CA        81.6630  223.6540    4.8850 C.3   313  PRO313      0.1504
     54  C         83.0020  223.6370    5.6280 C.2   313  PRO313      0.2576
     55  O         84.0000  223.2120    5.0450 O.2   313  PRO313     -0.2718
     56  CB        81.5420  224.9210    4.0320 C.3   313  PRO313      0.0282
     57  CG        80.7620  225.8720    4.8840 C.3   313  PRO313      0.0208
     58  CD        79.8200  225.0380    5.7010 C.3   313  PRO313      0.0893
     59  N         83.0330  224.1030    6.8720 N.am  314  SER314     -0.1953
     60  CA        84.2580  224.0450    7.6720 C.3   314  SER314      0.1924
     61  C         83.9200  223.6400    9.0930 C.2   314  SER314      0.2314
     62  O         82.7480  223.5620    9.4560 O.2   314  SER314     -0.2863
     63  CB        84.9820  225.3900    7.6870 C.3   314  SER314      0.2116
     64  OG        84.4380  226.2430    8.6810 O.3   314  SER314     -0.2180
     65  N         82.0230  226.7090   10.8580 N.3   317  HIS317     -0.1226
     66  CA        80.7540  227.2410   10.3710 C.3   317  HIS317      0.1752
     67  C         79.6010  226.8540   11.2960 C.2   317  HIS317      0.2597
     68  O         79.6120  225.7870   11.9090 O.2   317  HIS317     -0.2718
     69  CB        80.4740  226.7500    8.9510 C.3   317  HIS317      0.0759
     70  CG        81.0940  227.5970    7.8860 C.ar  317  HIS317      0.0818
     71  ND1       82.4190  227.4970    7.5320 N.ar  317  HIS317     -0.2268
     72  CD2       80.5630  228.5640    7.0960 C.ar  317  HIS317      0.1154
     73  CE1       82.6820  228.3620    6.5660 C.ar  317  HIS317      0.1986
     74  NE2       81.5720  229.0200    6.2850 N.ar  317  HIS317     -0.2212
     75  N         78.6060  227.7270   11.3920 N.am  318  SER318     -0.1938
     76  CA        77.4530  227.4630   12.2420 C.3   318  SER318      0.2055
     77  C         76.1700  227.9460   11.5830 C.2   318  SER318      0.2644
     78  O         75.0800  227.4810   11.9100 O.2   318  SER318     -0.2714
     79  CB        77.6370  228.1200   13.6100 C.3   318  SER318      0.2130
     80  OG        78.3980  229.3120   13.5020 O.3   318  SER318     -0.2179
     81  N         76.3060  228.8830   10.6530 N.am  319  SER319     -0.1935
     82  CA        75.1560  229.3980    9.9260 C.3   319  SER319      0.2055
     83  C         75.1200  228.8450    8.5060 C.2   319  SER319      0.2644
     84  O         76.1570  228.4970    7.9400 O.2   319  SER319     -0.2714
     85  CB        75.1850  230.9240    9.8930 C.3   319  SER319      0.2130
     86  OG        74.1520  231.4220    9.0620 O.3   319  SER319     -0.2179
     87  N         73.9220  228.7740    7.9320 N.am  320  THR320     -0.1936
     88  CA        73.7490  228.2140    6.5950 C.3   320  THR320      0.2028
     89  C         73.4010  229.2580    5.5380 C.2   320  THR320      0.2642
     90  O         73.1680  228.9090    4.3820 O.2   320  THR320     -0.2714
     91  CB        72.6720  227.1060    6.5740 C.3   320  THR320      0.1808
     92  OG1       71.4230  227.6350    7.0370 O.3   320  THR320     -0.2208
     93  CG2       73.0870  225.9350    7.4590 C.3   320  THR320      0.0379
     94  N         73.3660  230.5320    5.9250 N.am  321  ASP321     -0.1957
     95  CA        73.0140  231.5980    4.9850 C.3   321  ASP321      0.1840
     96  C         74.2530  232.1330    4.2760 C.2   321  ASP321      0.2622
     97  O         74.7660  233.2030    4.6120 O.2   321  ASP321     -0.2715
     98  CB        72.2660  232.7310    5.6950 C.3   321  ASP321      0.1450
     99  CG        71.7070  233.7650    4.7270 C.2   321  ASP321      0.3671
    100  OD1       71.7200  233.5210    3.5010 O.co2 321  ASP321     -0.2456
    101  OD2       71.2430  234.8240    5.1990 O.co2 321  ASP321     -0.2456
    102  N         74.7100  231.3830    3.2800 N.am  322  CYS322     -0.1968
    103  CA        75.9930  231.6290    2.6300 C.3   322  CYS322      0.1712
    104  C         76.1390  233.0480    2.0830 C.2   322  CYS322      0.2296
    105  O         77.1610  233.7000    2.3080 O.2   322  CYS322     -0.2864
    106  CB        76.2240  230.6000    1.5190 C.3   322  CYS322      0.0983
    107  SG        75.7720  228.9010    1.9770 S.3   322  CYS322     -0.0798
    108  N         74.8360  235.6970    3.0350 N.3   324  ALA324     -0.1231
    109  CA        74.8680  236.7110    4.0880 C.3   324  ALA324      0.1694
    110  C         76.3050  237.1000    4.4440 C.2   324  ALA324      0.2592
    111  O         76.5720  238.2360    4.8400 O.2   324  ALA324     -0.2718
    112  CB        74.1320  236.2230    5.3210 C.3   324  ALA324      0.0304
    113  N         77.2250  236.1490    4.3000 N.am  325  CYS325     -0.1956
    114  CA        78.6270  236.3700    4.6330 C.3   325  CYS325      0.1843
    115  C         79.5070  236.4000    3.3940 C.2   325  CYS325      0.2625
    116  O         80.3750  237.2600    3.2540 O.2   325  CYS325     -0.2714
    117  CB        79.1260  235.2730    5.5640 C.3   325  CYS325      0.0997
    118  SG        78.4770  235.3640    7.2330 S.3   325  CYS325     -0.0797
    119  N         79.2840  235.4400    2.5050 N.am  326  HIS326     -0.1973
    120  CA        80.1040  235.3000    1.3130 C.3   326  HIS326      0.1656
    121  C         79.4740  236.0340    0.1360 C.2   326  HIS326      0.2291
    122  O         78.8020  235.4250   -0.6950 O.2   326  HIS326     -0.2864
    123  CB        80.2930  233.8200    0.9570 C.3   326  HIS326      0.0771
    124  CG        81.1300  233.0570    1.9360 C.ar  326  HIS326      0.0820
    125  ND1       82.4920  233.2360    2.0520 N.ar  326  HIS326     -0.2267
    126  CD2       80.8000  232.0990    2.8380 C.ar  326  HIS326      0.1154
    127  CE1       82.9640  232.4300    2.9840 C.ar  326  HIS326      0.1986
    128  NE2       81.9570  231.7250    3.4760 N.ar  326  HIS326     -0.2212
    129  N         81.4040  239.4650    4.9420 N.3   332  TYR332     -0.1227
    130  CA        81.6150  239.2680    6.3680 C.3   332  TYR332      0.1736
    131  C         83.0940  239.4380    6.6810 C.2   332  TYR332      0.2596
    132  O         83.9440  239.2110    5.8150 O.2   332  TYR332     -0.2718
    133  CB        81.1970  237.8650    6.7520 C.3   332  TYR332      0.0548
    134  CG        81.2570  237.5760    8.2240 C.ar  332  TYR332     -0.0200
    135  CD1       80.2590  238.0250    9.0720 C.ar  332  TYR332     -0.0009
    136  CD2       82.2930  236.8210    8.7640 C.ar  332  TYR332     -0.0009
    137  CE1       80.2940  237.7420   10.4170 C.ar  332  TYR332      0.0417
    138  CE2       82.3340  236.5360   10.1070 C.ar  332  TYR332      0.0417
    139  CZ        81.3340  236.9980   10.9260 C.ar  332  TYR332      0.1957
    140  OH        81.3820  236.7120   12.2660 O.3   332  TYR332     -0.2866
    141  N         83.3990  239.8150    7.9200 N.am  333  GLY333     -0.1942
    142  CA        84.7680  240.0880    8.3170 C.3   333  GLY333      0.2014
    143  C         85.7020  238.9050    8.1180 C.2   333  GLY333      0.2639
    144  O         85.5200  237.8450    8.7290 O.2   333  GLY333     -0.2714
    145  N         86.7060  239.0840    7.2620 N.am  334  GLY334     -0.1939
    146  CA        87.7430  238.0830    7.0970 C.3   334  GLY334      0.2014
    147  C         87.6520  237.2320    5.8440 C.2   334  GLY334      0.2639
    148  O         88.6360  236.5950    5.4570 O.2   334  GLY334     -0.2714
    149  N         86.4840  237.2080    5.2080 N.am  335  THR335     -0.1950
    150  CA        86.3020  236.4080    3.9970 C.3   335  THR335      0.1897
    151  C         85.8980  237.2750    2.8060 C.2   335  THR335      0.2313
    152  O         86.0880  238.4900    2.8270 O.2   335  THR335     -0.2863
    153  CB        85.2740  235.2760    4.2060 C.3   335  THR335      0.1794
    154  OG1       85.2090  234.4630    3.0290 O.3   335  THR335     -0.2208
    155  CG2       83.8900  235.8480    4.5140 C.3   335  THR335      0.0378
    156  N         87.3220  234.2310   -3.4660 N.3   341  ARG341     -0.1245
    157  CA        87.9680  233.1270   -2.7670 C.3   341  ARG341      0.1563
    158  C         88.3490  231.9940   -3.7120 C.2   341  ARG341      0.2260
    159  O         89.4490  231.4460   -3.6130 O.2   341  ARG341     -0.2867
    160  CB        87.0880  232.6230   -1.6280 C.3   341  ARG341      0.0307
    161  CG        86.9050  233.6550   -0.5300 C.3   341  ARG341      0.0489
    162  CD        88.2160  233.9520    0.1910 C.3   341  ARG341      0.2205
    163  NE        88.5390  232.9080    1.1610 N.pl3 341  ARG341     -0.0865
    164  CZ        89.4400  231.9510    0.9690 C.cat 341  ARG341      0.5346
    165  NH1       90.1370  231.9040   -0.1570 N.pl3 341  ARG341      0.1354
    166  NH2       89.6530  231.0440    1.9100 N.pl3 341  ARG341      0.1354
    167  N         92.3710  232.6750    2.7350 N.3   474  GLY474     -0.1210
    168  CA        91.8320  232.3670    4.0490 C.3   474  GLY474      0.1956
    169  C         91.4470  233.6120    4.8250 C.2   474  GLY474      0.2611
    170  O         91.3640  234.7020    4.2540 O.2   474  GLY474     -0.2717
    171  N         91.2210  233.4530    6.1280 N.am  475  TYR475     -0.1976
    172  CA        90.8070  234.5700    6.9770 C.3   475  TYR475      0.1639
    173  C         91.8030  235.7250    6.9730 C.2   475  TYR475      0.2290
    174  O         92.9460  235.5780    7.4120 O.2   475  TYR475     -0.2864
    175  CB        90.5740  234.1080    8.4180 C.3   475  TYR475      0.0560
    176  CG        89.9890  235.1810    9.3140 C.ar  475  TYR475     -0.0198
    177  CD1       88.6150  235.3710    9.3930 C.ar  475  TYR475     -0.0009
    178  CD2       90.8090  236.0000   10.0820 C.ar  475  TYR475     -0.0009
    179  CE1       88.0720  236.3500   10.2110 C.ar  475  TYR475      0.0417
    180  CE2       90.2750  236.9840   10.9000 C.ar  475  TYR475      0.0417
    181  CZ        88.9050  237.1530   10.9590 C.ar  475  TYR475      0.1957
    182  OH        88.3660  238.1240   11.7700 O.3   475  TYR475     -0.2866
@<TRIPOS>BOND
     1   158   159    2
     2   158   157    1
     3    12    13    1
     4   156   157    1
     5    13    14    1
     6    13    16    1
     7   157   160    1
     8    17    16    1
     9    15    14    2
    10    35    33   ar
    11    35    34   ar
    12    14    18   am
    13   160   161    1
    14    33    31   ar
    15    34    32   ar
    16    18    19    1
    17    20    21    2
    18    20    19    1
    19    26    27    1
    20   122   121    2
    21    31    32   ar
    22    31    30    1
    23    19    22    1
    24   161   162    1
    25   165   164    1
    26    27    30    1
    27    27    28    1
    28    22    24    1
    29    22    23    1
    30   121   120    1
    31   162   163    1
    32   123   120    1
    33   123   124    1
    34   164   163    2
    35   164   166    1
    36    36    28   am
    37    36    37    1
    38    23    25    1
    39    28    29    2
    40   120   119    1
    41   106   107    1
    42   106   103    1
    43   124   125   ar
    44   124   126   ar
    45   125   127   ar
    46   104   105    2
    47   104   103    1
    48    37    38    1
    49    37    40    1
    50    42    40    1
    51   119   115   am
    52   103   102    1
    53    39    38    2
    54   167   168    1
    55   151   152    2
    56   151   150    1
    57   126   128   ar
    58    38    43   am
    59   127   128   ar
    60   154   153    1
    61   108   109    1
    62    40    41    1
    63   116   115    2
    64   102    96   am
    65   115   114    1
    66   100    99   ar
    67   150   153    1
    68   150   149    1
    69    43    44    1
    70    56    57    1
    71    56    53    1
    72   168   169    1
    73   109   110    1
    74   109   112    1
    75   153   155    1
    76   170   169    2
    77    96    97    2
    78    96    95    1
    79   113   110   am
    80   113   114    1
    81    90    89    2
    82   110   111    2
    83    48    49    1
    84    48    47    1
    85   114   117    1
    86    99   101   ar
    87    99    98    1
    88   169   171   am
    89    44    47    1
    90    44    45    1
    91    57    58    1
    92    53    54    1
    93    53    52    1
    94    51    49   ar
    95   129   130    1
    96    95    98    1
    97    95    94    1
    98    55    54    2
    99    49    50   ar
   100   149   147   am
   101   148   147    2
   102    89    94   am
   103    89    88    1
   104   117   118    1
   105    54    59   am
   106    58    52    1
   107   132   131    2
   108   147   146    1
   109    45    46    2
   110   171   172    1
   111    74    73   ar
   112    74    72   ar
   113   130   131    1
   114   130   133    1
   115    73    71   ar
   116    91    88    1
   117    91    92    1
   118    91    93    1
   119    88    87    1
   120   131   141   am
   121     9    11   ar
   122     9     7   ar
   123   133   134    1
   124    59    60    1
   125   173   172    1
   126   173   174    2
   127   172   175    1
   128    11    10   ar
   129    72    70   ar
   130   146   145    1
   131   145   143   am
   132    71    70   ar
   133     7     6   ar
   134    60    63    1
   135    60    61    1
   136    63    64    1
   137    70    69    1
   138   141   142    1
   139    87    83   am
   140    84    83    2
   141     1     2    1
   142   143   142    1
   143   143   144    2
   144    10     8   ar
   145   134   136   ar
   146   134   135   ar
   147   175   176    1
   148    83    82    1
   149     6     8   ar
   150     6     5    1
   151   136   138   ar
   152    69    66    1
   153    86    85    1
   154   135   137   ar
   155    61    62    2
   156   176   177   ar
   157   176   178   ar
   158     2     5    1
   159     2     3    1
   160   177   179   ar
   161    85    82    1
   162    82    81    1
   163   178   180   ar
   164   138   139   ar
   165   179   181   ar
   166     4     3    2
   167    66    65    1
   168    66    67    1
   169   137   139   ar
   170    81    77   am
   171   180   181   ar
   172   139   140    1
   173   181   182    1
   174    67    75   am
   175    67    68    2
   176    75    76    1
   177    77    78    2
   178    77    76    1
   179    76    79    1
   180    80    79    1
