@<TRIPOS>MOLECULE
tmp/4lmhD05.pdb
 198 188 0 0 0
SMALL
GASTEIGER

@<TRIPOS>ATOM
      1  N         83.3720  218.9170  -23.5920 N.3   188  THR188     -0.1203
      2  CA        84.8270  218.8940  -23.4810 C.3   188  THR188      0.1994
      3  C         85.2870  217.6300  -22.7480 C.2   188  THR188      0.2618
      4  O         86.2900  217.0150  -23.1200 O.2   188  THR188     -0.2717
      5  CB        85.3700  220.1670  -22.7840 C.3   188  THR188      0.1784
      6  OG1       85.0680  221.3140  -23.5880 O.3   188  THR188     -0.2211
      7  CG2       86.8810  220.0860  -22.5840 C.3   188  THR188      0.0376
      8  N         84.5310  217.2340  -21.7260 N.am  189  CYS189     -0.1969
      9  CA        84.8180  216.0150  -20.9730 C.3   189  CYS189      0.1712
     10  C         83.8990  214.8630  -21.3670 C.2   189  CYS189      0.2296
     11  O         84.2550  213.6930  -21.2180 O.2   189  CYS189     -0.2864
     12  CB        84.6760  216.2710  -19.4710 C.3   189  CYS189      0.0983
     13  SG        85.7930  217.5270  -18.8160 S.3   189  CYS189     -0.0798
     14  N         85.1950  210.9400   -9.8410 N.3   270  HIS270     -0.1226
     15  CA        86.4790  211.6020   -9.6780 C.3   270  HIS270      0.1752
     16  C         86.6700  212.6900  -10.7320 C.2   270  HIS270      0.2596
     17  O         87.1550  212.4280  -11.8360 O.2   270  HIS270     -0.2718
     18  CB        87.6200  210.5830   -9.7120 C.3   270  HIS270      0.0759
     19  CG        87.5150  209.5360   -8.6460 C.ar  270  HIS270      0.0818
     20  ND1       87.8480  209.7770   -7.3300 N.ar  270  HIS270     -0.2268
     21  CD2       87.0970  208.2490   -8.6980 C.ar  270  HIS270      0.1154
     22  CE1       87.6490  208.6800   -6.6190 C.ar  270  HIS270      0.1986
     23  NE2       87.1950  207.7380   -7.4260 N.ar  270  HIS270     -0.2212
     24  N         86.2620  213.9060  -10.3730 N.am  271  TYR271     -0.1963
     25  CA        86.4140  215.0830  -11.2190 C.3   271  TYR271      0.1756
     26  C         87.8740  215.2550  -11.6280 C.2   271  TYR271      0.2461
     27  O         88.7600  215.2910  -10.7720 O.2   271  TYR271     -0.2730
     28  CB        85.9480  216.3180  -10.4540 C.3   271  TYR271      0.0574
     29  CG        85.5740  217.4840  -11.3290 C.ar  271  TYR271     -0.0198
     30  CD1       84.5930  217.3540  -12.2990 C.ar  271  TYR271     -0.0009
     31  CD2       86.1840  218.7220  -11.1750 C.ar  271  TYR271     -0.0009
     32  CE1       84.2330  218.4180  -13.1020 C.ar  271  TYR271      0.0417
     33  CE2       85.8290  219.7950  -11.9760 C.ar  271  TYR271      0.0417
     34  CZ        84.8520  219.6360  -12.9390 C.ar  271  TYR271      0.1957
     35  OH        84.4830  220.6920  -13.7430 O.3   271  TYR271     -0.2866
     36  N         88.1290  215.3610  -12.9400 N.am  272  PRO272     -0.2727
     37  CA        89.4970  215.3670  -13.4740 C.3   272  PRO272      0.1402
     38  C         90.2140  216.7120  -13.3870 C.2   272  PRO272      0.2269
     39  O         91.4190  216.7500  -13.6300 O.2   272  PRO272     -0.2865
     40  CB        89.2950  214.9940  -14.9430 C.3   272  PRO272      0.0296
     41  CG        87.9330  215.5280  -15.2670 C.3   272  PRO272      0.0237
     42  CD        87.1160  215.3280  -14.0110 C.3   272  PRO272      0.0939
     43  N         92.2340  219.8300  -12.0710 N.3   274  LYS274     -0.1245
     44  CA        93.1150  220.2970  -11.0070 C.3   274  LYS274      0.1561
     45  C         93.6200  221.6840  -11.3700 C.2   274  LYS274      0.2260
     46  O         94.3120  221.8460  -12.3770 O.2   274  LYS274     -0.2867
     47  CB        94.3040  219.3510  -10.8000 C.3   274  LYS274      0.0271
     48  CG        93.9520  217.9700  -10.2550 C.3   274  LYS274      0.0035
     49  CD        95.2090  217.2220   -9.8040 C.3   274  LYS274      0.0206
     50  CE        94.9360  215.7480   -9.5080 C.3   274  LYS274      0.1093
     51  NZ        94.7450  214.9390  -10.7510 N.3   274  LYS274     -0.1314
     52  N         99.7460  212.6870  -29.5270 N.3   519  ILE519     -0.1245
     53  CA        98.6220  213.2080  -28.7500 C.3   519  ILE519      0.1561
     54  C         98.4990  214.7290  -28.8350 C.2   519  ILE519      0.2260
     55  O         99.4880  215.4410  -29.0420 O.2   519  ILE519     -0.2867
     56  CB        98.7250  212.8260  -27.2630 C.3   519  ILE519      0.0252
     57  CG1       99.9680  213.4640  -26.6430 C.3   519  ILE519      0.0019
     58  CG2       98.7260  211.3080  -27.0890 C.3   519  ILE519      0.0019
     59  CD1      100.1200  213.1960  -25.1610 C.3   519  ILE519      0.0001
     60  N         93.8280  218.5370  -25.5180 N.3   523  LYS523     -0.1231
     61  CA        92.7800  217.6120  -25.1000 C.3   523  LYS523      0.1693
     62  C         92.9710  217.1630  -23.6490 C.2   523  LYS523      0.2592
     63  O         92.0040  217.1170  -22.8890 O.2   523  LYS523     -0.2718
     64  CB        92.6880  216.4040  -26.0420 C.3   523  LYS523      0.0285
     65  CG        92.4000  216.7710  -27.4920 C.3   523  LYS523      0.0035
     66  CD        92.2940  215.5410  -28.3870 C.3   523  LYS523      0.0206
     67  CE        91.8750  215.9400  -29.7980 C.3   523  LYS523      0.1093
     68  NZ        91.8300  214.7870  -30.7360 N.3   523  LYS523     -0.1314
     69  N         94.2040  216.8320  -23.2680 N.am  524  CYS524     -0.1970
     70  CA        94.4970  216.4990  -21.8750 C.3   524  CYS524      0.1712
     71  C         94.0120  217.6400  -20.9980 C.2   524  CYS524      0.2296
     72  O         93.2600  217.4360  -20.0450 O.2   524  CYS524     -0.2864
     73  CB        96.0020  216.3090  -21.6530 C.3   524  CYS524      0.0983
     74  SG        96.8400  215.2040  -22.8280 S.3   524  CYS524     -0.0798
     75  N         90.2190  218.4720  -20.0010 N.3   527  CYS527     -0.1221
     76  CA        89.6150  217.7530  -18.8890 C.3   527  CYS527      0.1808
     77  C         90.3440  218.0240  -17.5860 C.2   527  CYS527      0.2601
     78  O         89.7210  218.1510  -16.5350 O.2   527  CYS527     -0.2717
     79  CB        89.6070  216.2480  -19.1700 C.3   527  CYS527      0.0970
     80  SG        88.6160  215.7580  -20.5950 S.3   527  CYS527     -0.0800
     81  N         91.6680  218.1150  -17.6610 N.am  528  HIS528     -0.1975
     82  CA        92.4930  218.1580  -16.4570 C.3   528  HIS528      0.1656
     83  C         92.7750  219.5640  -15.9480 C.2   528  HIS528      0.2291
     84  O         93.1390  219.7400  -14.7820 O.2   528  HIS528     -0.2864
     85  CB        93.7990  217.3910  -16.6780 C.3   528  HIS528      0.0771
     86  CG        93.6230  215.9030  -16.6850 C.ar  528  HIS528      0.0820
     87  ND1       93.6360  215.1500  -15.5350 N.ar  528  HIS528     -0.2267
     88  CD2       93.4220  215.0350  -17.7080 C.ar  528  HIS528      0.1154
     89  CE1       93.4560  213.8750  -15.8420 C.ar  528  HIS528      0.1986
     90  NE2       93.3240  213.7810  -17.1530 N.ar  528  HIS528     -0.2212
     91  N         97.9880  217.6920  -14.1050 N.3   532  ILE532     -0.1231
     92  CA        97.4340  216.3460  -14.2750 C.3   532  ILE532      0.1692
     93  C         97.7360  215.3870  -13.1190 C.2   532  ILE532      0.2591
     94  O         96.8230  214.7690  -12.5710 O.2   532  ILE532     -0.2718
     95  CB        97.8800  215.7090  -15.6120 C.3   532  ILE532      0.0266
     96  CG1       97.5530  216.6440  -16.7780 C.3   532  ILE532      0.0019
     97  CG2       97.2040  214.3560  -15.8330 C.3   532  ILE532      0.0020
     98  CD1       97.9830  216.1070  -18.1310 C.3   532  ILE532      0.0001
     99  N         99.0080  215.2490  -12.7560 N.am  533  VAL533     -0.1980
    100  CA        99.3760  214.3510  -11.6600 C.3   533  VAL533      0.1595
    101  C        100.6960  214.7220  -10.9570 C.2   533  VAL533      0.2287
    102  O        100.7330  214.8440   -9.7330 O.2   533  VAL533     -0.2864
    103  CB        99.3730  212.8730  -12.1210 C.3   533  VAL533      0.0276
    104  CG1      100.1230  212.7250  -13.4280 C.3   533  VAL533      0.0022
    105  CG2       99.9560  211.9680  -11.0500 C.3   533  VAL533      0.0022
    106  N        102.7080  219.0160  -20.7660 N.3   539  VAL539     -0.1245
    107  CA       102.5800  217.5720  -20.9210 C.3   539  VAL539      0.1561
    108  C        103.8120  217.0250  -21.6320 C.2   539  VAL539      0.2260
    109  O        103.8290  216.8770  -22.8550 O.2   539  VAL539     -0.2867
    110  CB       101.3160  217.1970  -21.7160 C.3   539  VAL539      0.0252
    111  CG1      101.1260  215.6860  -21.7350 C.3   539  VAL539      0.0019
    112  CG2      100.0890  217.8870  -21.1270 C.3   539  VAL539      0.0019
    113  N        105.4490  214.1820  -20.3450 N.3   541  CYS541     -0.1235
    114  CA       105.5910  212.9400  -19.5840 C.3   541  CYS541      0.1677
    115  C        106.5170  211.9300  -20.2530 C.2   541  CYS541      0.2270
    116  O        107.1450  211.1070  -19.5840 O.2   541  CYS541     -0.2867
    117  CB       104.2200  212.2940  -19.3820 C.3   541  CYS541      0.0956
    118  SG       102.8750  213.4840  -19.1850 S.3   541  CYS541     -0.0801
    119  N        104.4970  205.9990  -20.8090 N.3   566  PHE566     -0.1241
    120  CA       103.4930  207.0460  -20.9720 C.3   566  PHE566      0.1605
    121  C        102.1880  206.4410  -21.5000 C.2   566  PHE566      0.2264
    122  O        101.1180  206.6490  -20.9130 O.2   566  PHE566     -0.2867
    123  CB       104.0070  208.1420  -21.9150 C.3   566  PHE566      0.0534
    124  CG       103.1820  209.4040  -21.9000 C.ar  566  PHE566     -0.0203
    125  CD1      102.1770  209.5920  -20.9580 C.ar  566  PHE566     -0.0042
    126  CD2      103.4090  210.4010  -22.8380 C.ar  566  PHE566     -0.0042
    127  CE1      101.4120  210.7520  -20.9530 C.ar  566  PHE566     -0.0003
    128  CE2      102.6480  211.5680  -22.8360 C.ar  566  PHE566     -0.0003
    129  CZ       101.6480  211.7430  -21.8950 C.ar  566  PHE566     -0.0000
    130  N        100.4380  204.5850  -18.7580 N.3   569  LYS569     -0.1231
    131  CA        99.8330  205.4950  -17.7890 C.3   569  LYS569      0.1693
    132  C         98.5210  206.1020  -18.3010 C.2   569  LYS569      0.2591
    133  O         97.5450  206.1840  -17.5580 O.2   569  LYS569     -0.2718
    134  CB       100.8190  206.5900  -17.3590 C.3   569  LYS569      0.0285
    135  CG       102.0830  206.0700  -16.6710 C.3   569  LYS569      0.0035
    136  CD       101.7680  205.3980  -15.3370 C.3   569  LYS569      0.0206
    137  CE       103.0390  204.9480  -14.6300 C.3   569  LYS569      0.1093
    138  NZ       102.7610  204.2100  -13.3620 N.3   569  LYS569     -0.1314
    139  N         98.4880  206.4870  -19.5730 N.am  570  ALA570     -0.1980
    140  CA        97.2840  207.0850  -20.1470 C.3   570  ALA570      0.1597
    141  C         96.2020  206.0570  -20.4770 C.2   570  ALA570      0.2287
    142  O         95.0600  206.1940  -20.0310 O.2   570  ALA570     -0.2864
    143  CB        97.6250  207.9120  -21.3780 C.3   570  ALA570      0.0319
    144  N         94.7750  204.2200  -17.2220 N.3   573  SER573     -0.1217
    145  CA        94.1920  205.0550  -16.1720 C.3   573  SER573      0.1889
    146  C         92.6710  204.8630  -16.0630 C.2   573  SER573      0.2288
    147  O         91.9520  204.8970  -17.0680 O.2   573  SER573     -0.2866
    148  CB        94.5330  206.5260  -16.4240 C.3   573  SER573      0.2089
    149  OG        94.4440  207.2910  -15.2340 O.3   573  SER573     -0.2183
    150  N         90.0170  206.5120  -14.9490 N.3   575  GLY575     -0.1210
    151  CA        89.0710  207.5410  -15.3430 C.3   575  GLY575      0.1956
    152  C         89.0100  207.8060  -16.8320 C.2   575  GLY575      0.2611
    153  O         88.2180  208.6320  -17.2950 O.2   575  GLY575     -0.2717
    154  N         89.8530  207.1070  -17.5840 N.am  576  HIS576     -0.1975
    155  CA        89.8340  207.2000  -19.0390 C.3   576  HIS576      0.1656
    156  C         88.9390  206.1170  -19.6460 C.2   576  HIS576      0.2291
    157  O         88.8190  206.0060  -20.8670 O.2   576  HIS576     -0.2864
    158  CB        91.2570  207.1280  -19.6010 C.3   576  HIS576      0.0771
    159  CG        92.1120  208.2860  -19.2130 C.ar  576  HIS576      0.0820
    160  ND1       93.4950  208.2450  -19.2280 N.ar  576  HIS576     -0.2267
    161  CD2       91.7950  209.5370  -18.7880 C.ar  576  HIS576      0.1154
    162  CE1       93.9810  209.3990  -18.8450 C.ar  576  HIS576      0.1986
    163  NE2       92.9620  210.2110  -18.5650 N.ar  576  HIS576     -0.2212
    164  N         85.2820  204.9710  -18.2190 N.3   578  LEU578     -0.1245
    165  CA        84.1900  204.9500  -17.2470 C.3   578  LEU578      0.1561
    166  C         83.0040  204.0960  -17.6970 C.2   578  LEU578      0.2260
    167  O         81.8460  204.4910  -17.5380 O.2   578  LEU578     -0.2867
    168  CB        83.7360  206.3770  -16.9260 C.3   578  LEU578      0.0270
    169  CG        84.8460  207.2560  -16.3410 C.3   578  LEU578      0.0019
    170  CD1       84.3780  208.6910  -16.1330 C.3   578  LEU578      0.0001
    171  CD2       85.3520  206.6530  -15.0370 C.3   578  LEU578      0.0001
    172  N         81.3340  208.4360  -19.5960 N.3   587  THR587     -0.1203
    173  CA        81.6840  209.8280  -19.8790 C.3   587  THR587      0.1994
    174  C         82.9940  209.9240  -20.6570 C.2   587  THR587      0.2617
    175  O         83.1110  210.7040  -21.6060 O.2   587  THR587     -0.2717
    176  CB        81.7730  210.6690  -18.5910 C.3   587  THR587      0.1784
    177  OG1       80.4570  210.8550  -18.0570 O.3   587  THR587     -0.2211
    178  CG2       82.3990  212.0320  -18.8740 C.3   587  THR587      0.0376
    179  N         83.9740  209.1240  -20.2480 N.am  588  VAL588     -0.1979
    180  CA        85.2120  208.9750  -21.0040 C.3   588  VAL588      0.1595
    181  C         85.3820  207.5140  -21.4190 C.2   588  VAL588      0.2287
    182  O         85.2550  206.6070  -20.5950 O.2   588  VAL588     -0.2864
    183  CB        86.4440  209.4190  -20.1920 C.3   588  VAL588      0.0276
    184  CG1       87.6960  209.3580  -21.0580 C.3   588  VAL588      0.0022
    185  CG2       86.2440  210.8210  -19.6450 C.3   588  VAL588      0.0022
    186  N         89.8480  210.9210  -28.4340 N.3   595  THR595     -0.1203
    187  CA        89.7380  211.5610  -27.1330 C.3   595  THR595      0.1994
    188  C         91.0640  212.2010  -26.7220 C.2   595  THR595      0.2618
    189  O         91.0830  213.2910  -26.1540 O.2   595  THR595     -0.2717
    190  CB        89.3190  210.5490  -26.0560 C.3   595  THR595      0.1784
    191  OG1       88.1210  209.8830  -26.4710 O.3   595  THR595     -0.2211
    192  CG2       89.0770  211.2420  -24.7300 C.3   595  THR595      0.0376
    193  N         92.1710  211.5240  -27.0170 N.am  596  CYS596     -0.1969
    194  CA        93.4950  212.0290  -26.6550 C.3   596  CYS596      0.1712
    195  C         94.3950  212.2960  -27.8610 C.2   596  CYS596      0.2296
    196  O         95.1530  213.2680  -27.8810 O.2   596  CYS596     -0.2864
    197  CB        94.1970  211.0550  -25.7040 C.3   596  CYS596      0.0983
    198  SG        93.3390  210.7870  -24.1440 S.3   596  CYS596     -0.0798
@<TRIPOS>BOND
     1    68    67    1
     2    67    66    1
     3    52    53    1
     4    55    54    2
     5    54    53    1
     6    53    56    1
     7   186   187    1
     8    66    65    1
     9   196   195    2
    10   195   194    1
    11    65    64    1
    12    56    58    1
    13    56    57    1
    14   187   188    1
    15   187   190    1
    16   193   188   am
    17   193   194    1
    18   188   189    2
    19   194   197    1
    20    57    59    1
    21   191   190    1
    22   190   192    1
    23    64    61    1
    24   197   198    1
    25    60    61    1
    26    61    62    1
    27    62    69   am
    28    62    63    2
    29     1     2    1
    30     6     5    1
    31     2     5    1
    32     2     3    1
    33    69    70    1
    34     4     3    2
    35   109   108    2
    36   126   128   ar
    37   126   124   ar
    38   128   129   ar
    39    74    73    1
    40     5     7    1
    41     3     8   am
    42   123   124    1
    43   123   120    1
    44   124   125   ar
    45   129   127   ar
    46    70    73    1
    47    70    71    1
    48   111   110    1
    49     8     9    1
    50   110   112    1
    51   110   107    1
    52   108   107    1
    53   175   174    2
    54   121   120    1
    55   121   122    2
    56   181   180    1
    57   181   182    2
    58   143   140    1
    59    10    11    2
    60    10     9    1
    61   184   183    1
    62   180   179    1
    63   180   183    1
    64    71    72    2
    65     9    12    1
    66   120   119    1
    67   125   127   ar
    68   107   106    1
    69   157   156    2
    70   174   179   am
    71   174   173    1
    72    80    79    1
    73   141   140    1
    74   141   142    2
    75   113   114    1
    76   115   116    2
    77   115   114    1
    78   183   185    1
    79   140   139    1
    80    75    76    1
    81   173   172    1
    82   173   176    1
    83   156   155    1
    84   158   159    1
    85   158   155    1
    86   114   117    1
    87   139   132   am
    88    12    13    1
    89   117   118    1
    90   160   159   ar
    91   160   162   ar
    92   159   161   ar
    93    79    76    1
    94   155   154    1
    95    76    77    1
    96   178   176    1
    97   162   163   ar
    98   161   163   ar
    99   130   131    1
   100   176   177    1
   101   132   131    1
   102   132   133    2
   103   164   165    1
   104    98    96    1
   105   131   134    1
   106    88    90   ar
   107    88    86   ar
   108   166   167    2
   109   166   165    1
   110    81    77   am
   111    81    82    1
   112    77    78    2
   113   154   152   am
   114   134   135    1
   115   153   152    2
   116   165   168    1
   117   144   145    1
   118    90    89   ar
   119   147   146    2
   120   168   169    1
   121   152   151    1
   122    96    95    1
   123    86    85    1
   124    86    87   ar
   125    85    82    1
   126   135   136    1
   127    82    83    1
   128   148   145    1
   129   148   149    1
   130   169   170    1
   131   169   171    1
   132   145   146    1
   133    83    84    2
   134    89    87   ar
   135    97    95    1
   136    95    92    1
   137   151   150    1
   138   136   137    1
   139    41    40    1
   140    41    42    1
   141    40    37    1
   142   137   138    1
   143    92    91    1
   144    92    93    1
   145    42    36    1
   146    35    34    1
   147    39    38    2
   148    37    38    1
   149    37    36    1
   150   104   103    1
   151    93    99   am
   152    93    94    2
   153    32    34   ar
   154    32    30   ar
   155    36    26   am
   156    34    33   ar
   157    99   100    1
   158    46    45    2
   159    30    29   ar
   160   103   100    1
   161   103   105    1
   162    43    44    1
   163    33    31   ar
   164    17    16    2
   165   100   101    1
   166    26    25    1
   167    26    27    2
   168    45    44    1
   169    29    31   ar
   170    29    28    1
   171    25    28    1
   172    25    24    1
   173    44    47    1
   174   101   102    2
   175    47    48    1
   176    51    50    1
   177    16    24   am
   178    16    15    1
   179    48    49    1
   180    14    15    1
   181    49    50    1
   182    18    15    1
   183    18    19    1
   184    21    19   ar
   185    21    23   ar
   186    19    20   ar
   187    23    22   ar
   188    20    22   ar
