@<TRIPOS>MOLECULE
tmp/4lmiB00.pdb
 143 136 0 0 0
SMALL
GASTEIGER

@<TRIPOS>ATOM
      1  N         30.2780    7.1370   75.4600 N.3    19  LEU19      -0.1245
      2  CA        31.5910    6.5770   75.7950 C.3    19  LEU19       0.1561
      3  C         31.7520    5.1740   75.2130 C.2    19  LEU19       0.2260
      4  O         32.7300    4.8910   74.5180 O.2    19  LEU19      -0.2867
      5  CB        31.8180    6.5550   77.3080 C.3    19  LEU19       0.0270
      6  CG        33.1780    6.0140   77.7820 C.3    19  LEU19       0.0019
      7  CD1       34.3420    6.7610   77.1390 C.3    19  LEU19       0.0001
      8  CD2       33.2720    6.0620   79.3010 C.3    19  LEU19       0.0001
      9  N         38.3850   14.7030   86.3180 N.3    37  TYR37      -0.1241
     10  CA        38.3560   13.2450   86.4150 C.3    37  TYR37       0.1605
     11  C         39.3400   12.7730   87.4740 C.2    37  TYR37       0.2264
     12  O         40.4840   13.2250   87.5090 O.2    37  TYR37      -0.2867
     13  CB        38.7500   12.6490   85.0610 C.3    37  TYR37       0.0534
     14  CG        38.8930   11.1410   85.0040 C.ar   37  TYR37      -0.0201
     15  CD1       37.7710   10.3150   85.0030 C.ar   37  TYR37      -0.0009
     16  CD2       40.1490   10.5420   84.8940 C.ar   37  TYR37      -0.0009
     17  CE1       37.8910    8.9400   84.9140 C.ar   37  TYR37       0.0417
     18  CE2       40.2810    9.1610   84.8110 C.ar   37  TYR37       0.0417
     19  CZ        39.1490    8.3680   84.8210 C.ar   37  TYR37       0.1957
     20  OH        39.2640    7.0040   84.7350 O.3    37  TYR37      -0.2866
     21  N         40.8390    9.0960   89.4090 N.3    39  LEU39      -0.1245
     22  CA        40.9400    7.6710   89.6780 C.3    39  LEU39       0.1561
     23  C         41.5670    7.5360   91.0600 C.2    39  LEU39       0.2260
     24  O         42.7970    7.4810   91.1690 O.2    39  LEU39      -0.2867
     25  CB        41.8480    7.0000   88.6450 C.3    39  LEU39       0.0270
     26  CG        41.2880    6.5300   87.3080 C.3    39  LEU39       0.0019
     27  CD1       42.4220    6.3220   86.3090 C.3    39  LEU39       0.0001
     28  CD2       40.4860    5.2470   87.4890 C.3    39  LEU39       0.0001
     29  N         44.4950    5.0310   92.0140 N.3    42  THR42      -0.1218
     30  CA        45.8220    5.2430   91.4440 C.3    42  THR42       0.1862
     31  C         46.3830    6.6280   91.7470 C.2    42  THR42       0.2287
     32  O         47.4650    6.9730   91.2680 O.2    42  THR42      -0.2866
     33  CB        45.7960    5.1070   89.9090 C.3    42  THR42       0.1770
     34  OG1       44.8760    6.0620   89.3640 O.3    42  THR42      -0.2211
     35  CG2       45.3840    3.7140   89.4870 C.3    42  THR42       0.0375
     36  N         45.3510    9.4440   90.4690 N.3    44  GLU44      -0.1245
     37  CA        45.4500   10.1670   89.2080 C.3    44  GLU44       0.1567
     38  C         44.2970   11.1370   89.0620 C.2    44  GLU44       0.2260
     39  O         43.1710   10.8470   89.4810 O.2    44  GLU44      -0.2867
     40  CB        45.4280    9.2070   88.0250 C.3    44  GLU44       0.0388
     41  CG        46.7250    8.4600   87.8000 C.3    44  GLU44       0.1160
     42  CD        46.5810    7.4040   86.7310 C.2    44  GLU44       0.3649
     43  OE1       47.3290    7.4670   85.7380 O.co2  44  GLU44      -0.2457
     44  OE2       45.7130    6.5160   86.8780 O.co2  44  GLU44      -0.2457
     45  N         42.6100   11.2790   76.7810 N.3    55  PHE55      -0.1227
     46  CA        42.8010   10.0880   77.6180 C.3    55  PHE55       0.1736
     47  C         41.9130    8.9400   77.1480 C.2    55  PHE55       0.2595
     48  O         42.3780    7.8070   77.0010 O.2    55  PHE55      -0.2718
     49  CB        42.5380   10.4330   79.0970 C.3    55  PHE55       0.0547
     50  CG        42.3080    9.2390   79.9910 C.ar   55  PHE55      -0.0202
     51  CD1       43.3680    8.4360   80.3980 C.ar   55  PHE55      -0.0042
     52  CD2       41.0310    8.9450   80.4630 C.ar   55  PHE55      -0.0042
     53  CE1       43.1550    7.3490   81.2340 C.ar   55  PHE55      -0.0003
     54  CE2       40.8130    7.8590   81.3040 C.ar   55  PHE55      -0.0003
     55  CZ        41.8780    7.0580   81.6860 C.ar   55  PHE55      -0.0000
     56  N         40.6410    9.2450   76.9000 N.am   56  ASN56      -0.1974
     57  CA        39.7020    8.2530   76.3940 C.3    56  ASN56       0.1688
     58  C         40.0140    7.7830   74.9700 C.2    56  ASN56       0.2292
     59  O         39.9030    6.5930   74.6680 O.2    56  ASN56      -0.2864
     60  CB        38.2700    8.7800   76.5040 C.3    56  ASN56       0.1181
     61  CG        37.7860    8.8210   77.9380 C.2    56  ASN56       0.2629
     62  OD1       37.4940    7.7810   78.5340 O.2    56  ASN56      -0.2716
     63  ND2       37.7160   10.0190   78.5080 N.am   56  ASN56      -0.0877
     64  N         43.2200    5.4860   74.7100 N.3    59  TYR59      -0.1241
     65  CA        43.1710    4.2540   75.4940 C.3    59  TYR59       0.1605
     66  C         43.2670    2.9970   74.6260 C.2    59  TYR59       0.2264
     67  O         42.4430    2.7950   73.7270 O.2    59  TYR59      -0.2867
     68  CB        41.9310    4.2000   76.3890 C.3    59  TYR59       0.0534
     69  CG        42.1260    3.2680   77.5560 C.ar   59  TYR59      -0.0201
     70  CD1       41.8510    1.9070   77.4380 C.ar   59  TYR59      -0.0009
     71  CD2       42.6240    3.7400   78.7720 C.ar   59  TYR59      -0.0009
     72  CE1       42.0510    1.0420   78.5010 C.ar   59  TYR59       0.0417
     73  CE2       42.8220    2.8840   79.8440 C.ar   59  TYR59       0.0417
     74  CZ        42.5350    1.5380   79.7020 C.ar   59  TYR59       0.1957
     75  OH        42.7280    0.6790   80.7550 O.3    59  TYR59      -0.2866
     76  N         37.7790   -2.6450   74.5970 N.3    63  TRP63      -0.1241
     77  CA        36.9640   -2.7500   75.8060 C.3    63  TRP63       0.1605
     78  C         35.5050   -2.5250   75.5310 C.2    63  TRP63       0.2264
     79  O         35.1350   -1.9120   74.5290 O.2    63  TRP63      -0.2867
     80  CB        37.4570   -1.7650   76.8630 C.3    63  TRP63       0.0550
     81  CG        37.5210   -0.3510   76.3490 C.ar   63  TRP63       0.0003
     82  CD1       38.6220    0.3100   75.8100 C.ar   63  TRP63       0.0946
     83  CD2       36.4210    0.6230   76.2860 C.ar   63  TRP63       0.0152
     84  NE1       38.2900    1.5880   75.4390 N.ar   63  TRP63      -0.2442
     85  CE2       36.9850    1.8390   75.6950 C.ar   63  TRP63       0.0810
     86  CE3       35.0760    0.6080   76.6440 C.ar   63  TRP63       0.0012
     87  CZ2       36.2200    2.9760   75.4830 C.ar   63  TRP63       0.0191
     88  CZ3       34.3160    1.7630   76.4290 C.ar   63  TRP63       0.0001
     89  CH2       34.8770    2.9160   75.8630 C.ar   63  TRP63       0.0015
     90  N         31.6240   -1.8530   77.7900 N.3    65  LEU65      -0.1245
     91  CA        30.9100   -1.6920   79.0530 C.3    65  LEU65       0.1561
     92  C         29.4060   -1.8740   78.8970 C.2    65  LEU65       0.2260
     93  O         28.8400   -1.6240   77.8320 O.2    65  LEU65      -0.2867
     94  CB        31.2520   -0.3540   79.7340 C.3    65  LEU65       0.0270
     95  CG        31.0100    0.9800   79.0320 C.3    65  LEU65       0.0019
     96  CD1       29.5950    1.4800   79.2840 C.3    65  LEU65       0.0001
     97  CD2       32.0210    2.0050   79.5280 C.3    65  LEU65       0.0001
     98  N         32.6140   -4.2520   82.8380 N.3    83  LEU83      -0.1245
     99  CA        33.6150   -3.9460   81.8340 C.3    83  LEU83       0.1561
    100  C         34.3410   -5.2140   81.4060 C.2    83  LEU83       0.2260
    101  O         34.7720   -6.0050   82.2470 O.2    83  LEU83      -0.2867
    102  CB        34.6220   -2.9320   82.3820 C.3    83  LEU83       0.0270
    103  CG        35.7880   -2.5110   81.4820 C.3    83  LEU83       0.0019
    104  CD1       35.3210   -1.6380   80.3300 C.3    83  LEU83       0.0001
    105  CD2       36.8590   -1.7930   82.2850 C.3    83  LEU83       0.0001
    106  N         37.6620   -5.6700   79.6950 N.3    85  LEU85      -0.1245
    107  CA        38.8680   -4.9230   79.3540 C.3    85  LEU85       0.1561
    108  C         39.9190   -5.9050   78.8690 C.2    85  LEU85       0.2260
    109  O         40.6210   -6.5280   79.6760 O.2    85  LEU85      -0.2867
    110  CB        39.3750   -4.1330   80.5690 C.3    85  LEU85       0.0270
    111  CG        40.5850   -3.1980   80.4270 C.3    85  LEU85       0.0019
    112  CD1       40.2190   -1.9330   79.6610 C.3    85  LEU85       0.0001
    113  CD2       41.1520   -2.8450   81.7950 C.3    85  LEU85       0.0001
    114  N         35.7920   -7.0100   84.5700 N.3    90  LEU90      -0.1245
    115  CA        35.9580   -5.9950   85.6030 C.3    90  LEU90       0.1561
    116  C         34.6210   -5.3580   85.9400 C.2    90  LEU90       0.2260
    117  O         33.6580   -5.4820   85.1860 O.2    90  LEU90      -0.2867
    118  CB        36.8920   -4.9000   85.0910 C.3    90  LEU90       0.0270
    119  CG        38.3920   -5.0620   85.2970 C.3    90  LEU90       0.0019
    120  CD1       39.1200   -4.8180   83.9900 C.3    90  LEU90       0.0001
    121  CD2       38.8790   -4.1160   86.3830 C.3    90  LEU90       0.0001
    122  N         36.0980    7.6390   89.0840 N.3   108  ASP108     -0.1239
    123  CA        36.0750    6.2410   88.6470 C.3   108  ASP108      0.1674
    124  C         36.6610    5.3430   89.7190 C.2   108  ASP108      0.2266
    125  O         37.7390    5.6360   90.2490 O.2   108  ASP108     -0.2867
    126  CB        36.9670    6.0670   87.4080 C.3   108  ASP108      0.1410
    127  CG        36.2250    6.2230   86.0810 C.2   108  ASP108      0.3668
    128  OD1       35.1460    6.8490   86.0180 O.co2 108  ASP108     -0.2456
    129  OD2       36.7690    5.7230   85.0670 O.co2 108  ASP108     -0.2456
    130  N         37.5250    1.0930   89.9660 N.3   110  TRP110     -0.1241
    131  CA        37.5910   -0.1580   89.2110 C.3   110  TRP110      0.1605
    132  C         37.9400   -1.3040   90.1150 C.2   110  TRP110      0.2264
    133  O         39.0840   -1.7590   90.1230 O.2   110  TRP110     -0.2867
    134  CB        38.5670   -0.0230   88.0430 C.3   110  TRP110      0.0550
    135  CG        38.0780    1.0210   87.0770 C.ar  110  TRP110      0.0003
    136  CD1       38.4900    2.3470   86.9670 C.ar  110  TRP110      0.0946
    137  CD2       36.9980    0.8720   86.0970 C.ar  110  TRP110      0.0152
    138  NE1       37.7740    3.0010   85.9930 N.ar  110  TRP110     -0.2442
    139  CE2       36.8620    2.1750   85.4340 C.ar  110  TRP110      0.0810
    140  CE3       36.1710   -0.1750   85.7040 C.ar  110  TRP110      0.0012
    141  CZ2       35.9340    2.3920   84.4230 C.ar  110  TRP110      0.0191
    142  CZ3       35.2350    0.0590   84.6900 C.ar  110  TRP110      0.0001
    143  CH2       35.1220    1.3130   84.0660 C.ar  110  TRP110      0.0015
@<TRIPOS>BOND
     1    67    66    2
     2     4     3    2
     3    79    78    2
     4    76    77    1
     5    66    65    1
     6    59    58    2
     7    64    65    1
     8    58    57    1
     9     3     2    1
    10    84    85   ar
    11    84    82   ar
    12     1     2    1
    13    87    85   ar
    14    87    89   ar
    15    65    68    1
    16    78    77    1
    17    85    83   ar
    18     2     5    1
    19    77    80    1
    20    82    81   ar
    21    89    88   ar
    22    83    81   ar
    23    83    86   ar
    24    81    80    1
    25    68    69    1
    26    57    60    1
    27    57    56    1
    28    88    86   ar
    29    60    61    1
    30    45    46    1
    31    56    47   am
    32    48    47    2
    33     7     6    1
    34    47    46    1
    35     5     6    1
    36    70    69   ar
    37    70    72   ar
    38    69    71   ar
    39    46    49    1
    40     6     8    1
    41    90    91    1
    42    93    92    2
    43    61    63   am
    44    61    62    2
    45    72    74   ar
    46    71    73   ar
    47   108   107    1
    48   108   109    2
    49    92    91    1
    50    95    96    1
    51    95    97    1
    52    95    94    1
    53    91    94    1
    54    49    50    1
    55   107   106    1
    56   107   110    1
    57   112   111    1
    58    74    73   ar
    59    74    75    1
    60    50    51   ar
    61    50    52   ar
    62   104   103    1
    63    51    53   ar
    64   111   110    1
    65   111   113    1
    66    52    54   ar
    67    53    55   ar
    68    54    55   ar
    69   100    99    1
    70   100   101    2
    71   103   105    1
    72   103   102    1
    73    99   102    1
    74    99    98    1
    75   120   119    1
    76   143   141   ar
    77   143   142   ar
    78   141   139   ar
    79   114   115    1
    80   142   140   ar
    81    20    19    1
    82    18    19   ar
    83    18    16   ar
    84    19    17   ar
    85    16    14   ar
    86    17    15   ar
    87    15    14   ar
    88    14    13    1
    89    13    10    1
    90   129   127   ar
    91   118   119    1
    92   118   115    1
    93   117   116    2
    94   119   121    1
    95   139   138   ar
    96   139   137   ar
    97   115   116    1
    98   140   137   ar
    99    43    42   ar
   100   138   136   ar
   101   128   127   ar
   102   127   126    1
   103   137   135   ar
   104    27    26    1
   105     9    10    1
   106    10    11    1
   107    42    44   ar
   108    42    41    1
   109   136   135   ar
   110   135   134    1
   111    26    28    1
   112    26    25    1
   113   126   123    1
   114    11    12    2
   115    41    40    1
   116    40    37    1
   117   134   131    1
   118    25    22    1
   119   123   122    1
   120   123   124    1
   121    38    37    1
   122    38    39    2
   123    37    36    1
   124   131   130    1
   125   131   132    1
   126    34    33    1
   127    21    22    1
   128    35    33    1
   129    22    23    1
   130   124   125    2
   131    33    30    1
   132   132   133    2
   133    23    24    2
   134    32    31    2
   135    30    31    1
   136    30    29    1
