@<TRIPOS>MOLECULE
tmp/4lmpA00.pdb
 136 130 0 0 0
SMALL
GASTEIGER

@<TRIPOS>ATOM
      1  N         46.1060   46.8290  109.4190 N.3   174  ILE174     -0.1231
      2  CA        46.7430   47.0160  110.7210 C.3   174  ILE174      0.1692
      3  C         45.9520   46.2590  111.7800 C.2   174  ILE174      0.2593
      4  O         44.8380   46.6510  112.1210 O.2   174  ILE174     -0.2718
      5  CB        46.8340   48.5070  111.0940 C.3   174  ILE174      0.0266
      6  CG1       47.4990   49.3030  109.9580 C.3   174  ILE174      0.0019
      7  CG2       47.6360   48.6960  112.3920 C.3   174  ILE174      0.0020
      8  CD1       47.6010   50.8130  110.2280 C.3   174  ILE174      0.0001
      9  N         46.5270   45.1800  112.3040 N.am  175  GLY175     -0.1942
     10  CA        45.8390   44.3430  113.2740 C.3   175  GLY175      0.2014
     11  C         45.4690   42.9950  112.6770 C.2   175  GLY175      0.2639
     12  O         44.8120   42.9300  111.6290 O.2   175  GLY175     -0.2714
     13  N         45.8920   41.9180  113.3330 N.am  176  ALA176     -0.1963
     14  CA        45.6640   40.5690  112.8260 C.3   176  ALA176      0.1728
     15  C         44.7140   39.7990  113.7360 C.2   176  ALA176      0.2616
     16  O         44.7820   38.5690  113.8200 O.2   176  ALA176     -0.2715
     17  CB        46.9770   39.8110  112.6760 C.3   176  ALA176      0.0334
     18  N         43.8290   40.5230  114.4100 N.am  177  GLY177     -0.1955
     19  CA        42.7730   39.8850  115.1820 C.3   177  GLY177      0.1869
     20  C         41.6100   39.4690  114.2970 C.2   177  GLY177      0.2309
     21  O         41.7450   39.4090  113.0710 O.2   177  GLY177     -0.2863
     22  N         49.9510   43.8550  109.4240 N.3   197  LEU197     -0.1231
     23  CA        50.8780   44.2910  110.4710 C.3   197  LEU197      0.1693
     24  C         50.3150   43.9360  111.8380 C.2   197  LEU197      0.2592
     25  O         49.1360   44.1840  112.1150 O.2   197  LEU197     -0.2718
     26  CB        51.0680   45.8140  110.4120 C.3   197  LEU197      0.0284
     27  CG        51.7500   46.4380  109.1990 C.3   197  LEU197      0.0019
     28  CD1       51.3790   47.9190  109.1030 C.3   197  LEU197      0.0001
     29  CD2       53.2300   46.3230  109.3760 C.3   197  LEU197      0.0001
     30  N         51.1440   43.3500  112.6900 N.am  198  ASP198     -0.1960
     31  CA        50.7660   43.1540  114.0890 C.3   198  ASP198      0.1840
     32  C         52.0180   43.0870  114.9460 C.2   198  ASP198      0.2622
     33  O         53.1030   42.7770  114.4450 O.2   198  ASP198     -0.2715
     34  CB        49.9360   41.8760  114.2550 C.3   198  ASP198      0.1450
     35  CG        49.0150   41.9230  115.4730 C.2   198  ASP198      0.3671
     36  OD1       49.5080   42.1760  116.5960 O.co2 198  ASP198     -0.2456
     37  OD2       47.7910   41.7140  115.3090 O.co2 198  ASP198     -0.2456
     38  N         51.8740   43.3770  116.2370 N.am  199  ILE199     -0.1963
     39  CA        52.9790   43.1780  117.1710 C.3   199  ILE199      0.1727
     40  C         52.9610   41.7870  117.7890 C.2   199  ILE199      0.2616
     41  O         53.9130   41.3950  118.4650 O.2   199  ILE199     -0.2715
     42  CB        52.9860   44.2310  118.3040 C.3   199  ILE199      0.0290
     43  CG1       51.6720   44.1780  119.0960 C.3   199  ILE199      0.0022
     44  CG2       53.2400   45.6090  117.7260 C.3   199  ILE199      0.0023
     45  CD1       51.6560   45.0700  120.3480 C.3   199  ILE199      0.0001
     46  N         51.8730   41.0470  117.5740 N.am  200  ASN200     -0.1972
     47  CA        51.7720   39.6540  118.0300 C.3   200  ASN200      0.1688
     48  C         52.2140   38.7360  116.9020 C.2   200  ASN200      0.2292
     49  O         51.4500   38.4910  115.9590 O.2   200  ASN200     -0.2864
     50  CB        50.3250   39.3340  118.4480 C.3   200  ASN200      0.1181
     51  CG        50.1540   37.9390  119.0550 C.2   200  ASN200      0.2629
     52  OD1       50.9480   37.0290  118.8260 O.2   200  ASN200     -0.2716
     53  ND2       49.0860   37.7720  119.8370 N.am  200  ASN200     -0.0877
     54  N         50.0670   35.6500  115.8640 N.3   203  LYS203     -0.1245
     55  CA        48.9710   35.8880  114.9350 C.3   203  LYS203      0.1561
     56  C         49.4600   35.9640  113.4960 C.2   203  LYS203      0.2260
     57  O         48.7730   35.5070  112.5830 O.2   203  LYS203     -0.2867
     58  CB        48.1770   37.1270  115.3410 C.3   203  LYS203      0.0271
     59  CG        47.2830   36.8440  116.5400 C.3   203  LYS203      0.0035
     60  CD        46.4940   38.0650  116.9380 C.3   203  LYS203      0.0206
     61  CE        45.5890   37.7690  118.1320 C.3   203  LYS203      0.1093
     62  NZ        45.6000   38.9140  119.0840 N.3   203  LYS203     -0.1314
     63  N         54.9220   44.8090  113.3630 N.3   220  SER220     -0.1202
     64  CA        54.4820   46.1990  113.3180 C.3   220  SER220      0.2020
     65  C         55.3090   47.1220  114.2130 C.2   220  SER220      0.2619
     66  O         54.8140   47.6190  115.2270 O.2   220  SER220     -0.2717
     67  CB        52.9940   46.3110  113.6760 C.3   220  SER220      0.2103
     68  OG        52.4970   47.5570  113.2220 O.3   220  SER220     -0.2182
     69  N         56.5680   47.3450  113.8450 N.am  221  SER221     -0.1937
     70  CA        57.3670   48.3680  114.5060 C.3   221  SER221      0.2055
     71  C         56.8800   49.6900  113.9490 C.2   221  SER221      0.2642
     72  O         56.1950   49.7170  112.9230 O.2   221  SER221     -0.2714
     73  CB        58.8520   48.1850  114.1900 C.3   221  SER221      0.2130
     74  OG        59.1170   48.4740  112.8250 O.3   221  SER221     -0.2179
     75  N         57.2150   50.7910  114.6100 N.am  222  ALA222     -0.1977
     76  CA        56.8140   52.0950  114.1050 C.3   222  ALA222      0.1597
     77  C         57.4310   52.3440  112.7310 C.2   222  ALA222      0.2287
     78  O         56.7910   52.9200  111.8480 O.2   222  ALA222     -0.2864
     79  CB        57.2010   53.2020  115.0960 C.3   222  ALA222      0.0319
     80  N         55.4140   50.2150  110.0930 N.3   225  LEU225     -0.1245
     81  CA        54.0760   50.7460  109.8430 C.3   225  LEU225      0.1561
     82  C         54.1320   51.9720  108.9380 C.2   225  LEU225      0.2260
     83  O         53.3550   52.0780  107.9840 O.2   225  LEU225     -0.2867
     84  CB        53.3700   51.0540  111.1730 C.3   225  LEU225      0.0270
     85  CG        51.8930   51.4660  111.1110 C.3   225  LEU225      0.0019
     86  CD1       51.1750   51.0280  112.3720 C.3   225  LEU225      0.0001
     87  CD2       51.7560   52.9750  110.9380 C.3   225  LEU225      0.0001
     88  N         42.3730   47.9690  111.9820 N.3   238  ALA238     -0.1231
     89  CA        41.6220   46.8910  112.6100 C.3   238  ALA238      0.1694
     90  C         42.2050   46.5290  113.9630 C.2   238  ALA238      0.2592
     91  O         42.1310   45.3720  114.3790 O.2   238  ALA238     -0.2718
     92  CB        41.5950   45.6680  111.7190 C.3   238  ALA238      0.0304
     93  N         42.8020   47.5140  114.6250 N.am  239  VAL239     -0.1966
     94  CA        43.2990   47.3250  115.9770 C.3   239  VAL239      0.1727
     95  C         42.1950   47.7290  116.9260 C.2   239  VAL239      0.2616
     96  O         42.0620   48.9060  117.2810 O.2   239  VAL239     -0.2715
     97  CB        44.5540   48.1610  116.2560 C.3   239  VAL239      0.0290
     98  CG1       44.9650   48.0430  117.7310 C.3   239  VAL239      0.0023
     99  CG2       45.6920   47.6940  115.3720 C.3   239  VAL239      0.0023
    100  N         41.3860   46.7450  117.3030 N.am  240  LEU240     -0.1963
    101  CA        40.2860   46.9550  118.2280 C.3   240  LEU240      0.1728
    102  C         40.6380   46.3630  119.5840 C.2   240  LEU240      0.2616
    103  O         40.6520   45.1400  119.7590 O.2   240  LEU240     -0.2715
    104  CB        39.0020   46.3270  117.6860 C.3   240  LEU240      0.0311
    105  CG        38.4230   46.9940  116.4400 C.3   240  LEU240      0.0022
    106  CD1       38.9330   46.3220  115.1740 C.3   240  LEU240      0.0001
    107  CD2       36.9040   46.9690  116.5040 C.3   240  LEU240      0.0001
    108  N         40.9380   47.2360  120.5380 N.am  241  VAL241     -0.1964
    109  CA        41.2970   46.7900  121.8760 C.3   241  VAL241      0.1712
    110  C         40.0490   46.7040  122.7570 C.2   241  VAL241      0.2458
    111  O         39.3540   47.7040  122.9710 O.2   241  VAL241     -0.2730
    112  CB        42.4030   47.6800  122.5070 C.3   241  VAL241      0.0289
    113  CG1       43.7240   47.4670  121.7800 C.3   241  VAL241      0.0023
    114  CG2       42.0140   49.1550  122.4660 C.3   241  VAL241      0.0023
    115  N         39.7420   45.4860  123.2330 N.am  242  PRO242     -0.2727
    116  CA        38.6120   45.1940  124.1210 C.3   242  PRO242      0.1402
    117  C         38.6950   46.0540  125.3770 C.2   242  PRO242      0.2269
    118  O         39.6530   45.9420  126.1480 O.2   242  PRO242     -0.2865
    119  CB        38.7500   43.7210  124.4490 C.3   242  PRO242      0.0296
    120  CG        39.3980   43.0760  123.2140 C.3   242  PRO242      0.0237
    121  CD        40.4000   44.1550  122.7710 C.3   242  PRO242      0.0939
    122  N         44.4770   53.0350  120.1870 N.3   247  PRO247     -0.2116
    123  CA        45.6900   53.8350  119.9740 C.3   247  PRO247      0.1372
    124  C         45.6530   54.5050  118.6080 C.2   247  PRO247      0.2244
    125  O         45.1380   53.9040  117.6620 O.2   247  PRO247     -0.2868
    126  CB        46.8100   52.7880  120.0000 C.3   247  PRO247      0.0268
    127  CG        46.1450   51.4990  119.6210 C.3   247  PRO247      0.0207
    128  CD        44.7550   51.5860  120.1910 C.3   247  PRO247      0.0892
    129  N         47.4480   54.9730  115.6670 N.3   249  LEU249     -0.1245
    130  CA        48.6250   54.3790  115.0360 C.3   249  LEU249      0.1561
    131  C         49.0410   55.0800  113.7460 C.2   249  LEU249      0.2260
    132  O         50.1820   54.9640  113.3010 O.2   249  LEU249     -0.2867
    133  CB        48.3570   52.9010  114.7570 C.3   249  LEU249      0.0270
    134  CG        48.0270   52.1010  116.0180 C.3   249  LEU249      0.0019
    135  CD1       47.6260   50.6880  115.6690 C.3   249  LEU249      0.0001
    136  CD2       49.2160   52.0980  116.9760 C.3   249  LEU249      0.0001
@<TRIPOS>BOND
     1    83    82    2
     2    82    81    1
     3    28    27    1
     4    27    29    1
     5    27    26    1
     6     1     2    1
     7    22    23    1
     8    81    80    1
     9    81    84    1
    10     6     8    1
    11     6     5    1
    12    26    23    1
    13    23    24    1
    14     2     5    1
    15     2     3    1
    16    87    85    1
    17     5     7    1
    18    85    84    1
    19    85    86    1
    20    12    11    2
    21    92    89    1
    22     3     4    2
    23     3     9   am
    24    24    25    2
    25    24    30   am
    26    78    77    2
    27    88    89    1
    28     9    10    1
    29    57    56    2
    30    89    90    1
    31    17    14    1
    32    11    10    1
    33    11    13   am
    34    30    31    1
    35    77    76    1
    36    74    73    1
    37    14    13    1
    38    14    15    1
    39    72    71    2
    40    21    20    2
    41    68    67    1
    42   132   131    2
    43    64    63    1
    44    64    67    1
    45    64    65    1
    46    56    55    1
    47    15    16    2
    48    15    18   am
    49   131   130    1
    50    69    65   am
    51    69    70    1
    52    71    70    1
    53    71    75   am
    54    90    91    2
    55    90    93   am
    56    31    34    1
    57    31    32    1
    58    76    75    1
    59    76    79    1
    60    73    70    1
    61    65    66    2
    62    34    35    1
    63    20    19    1
    64    18    19    1
    65    33    32    2
    66    93    94    1
    67   133   130    1
    68   133   134    1
    69    55    58    1
    70    55    54    1
    71    32    38   am
    72   130   129    1
    73   106   105    1
    74    37    35   ar
    75    58    59    1
    76    99    97    1
    77    35    36   ar
    78   135   134    1
    79    49    48    2
    80    94    97    1
    81    94    95    1
    82   134   136    1
    83    38    39    1
    84    97    98    1
    85   105   107    1
    86   105   104    1
    87    59    60    1
    88    48    47    1
    89    95    96    2
    90    95   100   am
    91    60    61    1
    92    39    40    1
    93    39    42    1
    94   100   101    1
    95    46    40   am
    96    46    47    1
    97   125   124    2
    98   104   101    1
    99    44    42    1
   100    40    41    2
   101    47    50    1
   102    61    62    1
   103   101   102    1
   104    42    43    1
   105    50    51    1
   106   124   123    1
   107    52    51    2
   108    51    53   am
   109    43    45    1
   110   102   103    2
   111   102   108   am
   112   127   126    1
   113   127   128    1
   114   123   126    1
   115   123   122    1
   116   122   128    1
   117   108   109    1
   118   113   112    1
   119   109   112    1
   120   109   110    1
   121   114   112    1
   122   110   111    2
   123   110   115   am
   124   121   120    1
   125   121   115    1
   126   120   119    1
   127   115   116    1
   128   116   119    1
   129   116   117    1
   130   117   118    2
