@<TRIPOS>MOLECULE
tmp/4lmsA01.pdb
 82 82 0 0 0
SMALL
GASTEIGER

@<TRIPOS>ATOM
      1  N         18.9710   12.4590   37.8320 N.3    63  GLY63      -0.1210
      2  CA        19.9340   12.8390   36.8020 C.3    63  GLY63       0.1956
      3  C         21.2720   12.1170   36.7840 C.2    63  GLY63       0.2612
      4  O         22.1820   12.5280   36.0670 O.2    63  GLY63      -0.2717
      5  N         21.3790   11.0180   37.5170 N.am   64  LYS64      -0.1965
      6  CA        22.6320   10.2820   37.6120 C.3    64  LYS64       0.1728
      7  C         22.5180    8.8320   37.1960 C.2    64  LYS64       0.2616
      8  O         23.4350    8.3010   36.5640 O.2    64  LYS64      -0.2715
      9  CB        23.1420   10.3230   39.0450 C.3    64  LYS64       0.0311
     10  CG        23.5810   11.7020   39.5190 C.3    64  LYS64       0.0038
     11  CD        24.7680   12.2630   38.7090 C.3    64  LYS64       0.0206
     12  CE        25.3570   13.5320   39.3770 C.3    64  LYS64       0.1093
     13  NZ        26.5290   14.0040   38.6030 N.3    64  LYS64      -0.1314
     14  N         21.4410    8.1610   37.6040 N.am   65  ALA65      -0.1963
     15  CA        21.3630    6.7230   37.4650 C.3    65  ALA65       0.1728
     16  C         20.9970    6.3130   36.0490 C.2    65  ALA65       0.2617
     17  O         20.3810    7.0820   35.2860 O.2    65  ALA65      -0.2715
     18  CB        20.3600    6.1620   38.4590 C.3    65  ALA65       0.0334
     19  N         21.4090    5.1060   35.6930 N.am   66  THR66      -0.1937
     20  CA        21.2020    4.5860   34.3540 C.3    66  THR66       0.2028
     21  C         20.8560    3.1120   34.3880 C.2    66  THR66       0.2642
     22  O         20.9200    2.4840   35.4250 O.2    66  THR66      -0.2714
     23  CB        22.4940    4.7370   33.4750 C.3    66  THR66       0.1808
     24  OG1       23.5100    3.8310   33.9170 O.3    66  THR66      -0.2208
     25  CG2       23.0470    6.1430   33.5310 C.3    66  THR66       0.0379
     26  N         20.5240    2.5760   33.2130 N.am   67  ALA67      -0.1963
     27  CA        20.4900    1.1550   32.9790 C.3    67  ALA67       0.1728
     28  C         21.8840    0.5470   33.1960 C.2    67  ALA67       0.2616
     29  O         22.8780    1.2560   33.3030 O.2    67  ALA67      -0.2715
     30  CB        20.0070    0.8680   31.5600 C.3    67  ALA67       0.0334
     31  N         21.9610   -0.7740   33.2430 N.am   68  ILE68      -0.1963
     32  CA        23.2450   -1.4450   33.4370 C.3    68  ILE68       0.1727
     33  C         24.0610   -1.5150   32.1500 C.2    68  ILE68       0.2616
     34  O         23.5790   -1.9510   31.1080 O.2    68  ILE68      -0.2715
     35  CB        23.0540   -2.8580   34.0330 C.3    68  ILE68       0.0290
     36  CG1       22.3660   -2.7410   35.3880 C.3    68  ILE68       0.0022
     37  CG2       24.4040   -3.5790   34.1370 C.3    68  ILE68       0.0023
     38  CD1       22.0200   -4.0620   36.0100 C.3    68  ILE68       0.0001
     39  N         25.3010   -1.0530   32.2550 N.am   69  ASN69      -0.1958
     40  CA        26.3070   -1.1390   31.2050 C.3    69  ASN69       0.1819
     41  C         26.0090   -0.2930   29.9800 C.2    69  ASN69       0.2621
     42  O         26.0890   -0.7700   28.8600 O.2    69  ASN69      -0.2715
     43  CB        26.5820   -2.5860   30.8020 C.3    69  ASN69       0.1195
     44  CG        27.9370   -2.7500   30.1470 C.2    69  ASN69       0.2630
     45  OD1       28.8920   -1.9900   30.3930 O.2    69  ASN69      -0.2716
     46  ND2       28.0200   -3.7340   29.2840 N.am   69  ASN69      -0.0877
     47  N         25.6850    0.9690   30.2090 N.am   70  VAL70      -0.1964
     48  CA        25.4440    1.9160   29.1380 C.3    70  VAL70       0.1712
     49  C         26.3280    3.1610   29.2930 C.2    70  VAL70       0.2458
     50  O         26.8130    3.4880   30.3770 O.2    70  VAL70      -0.2730
     51  CB        23.9510    2.2970   29.0580 C.3    70  VAL70       0.0289
     52  CG1       23.1050    1.0420   28.9680 C.3    70  VAL70       0.0023
     53  CG2       23.5230    3.1740   30.2280 C.3    70  VAL70       0.0023
     54  N         26.5790    3.8510   28.1860 N.am   71  PRO71      -0.2716
     55  CA        27.4160    5.0500   28.2690 C.3    71  PRO71       0.1536
     56  C         26.8150    6.0990   29.1850 C.2    71  PRO71       0.2598
     57  O         25.5970    6.2570   29.2880 O.2    71  PRO71      -0.2715
     58  CB        27.4540    5.5480   26.8290 C.3    71  PRO71       0.0310
     59  CG        27.1670    4.3210   26.0050 C.3    71  PRO71       0.0237
     60  CD        26.2230    3.4860   26.8030 C.3    71  PRO71       0.0939
     61  N         27.7020    6.8380   29.8370 N.am   72  ILE72      -0.1964
     62  CA        27.3200    7.9000   30.7540 C.3    72  ILE72       0.1727
     63  C         27.5150    9.2460   30.0620 C.2    72  ILE72       0.2616
     64  O         28.6080    9.5790   29.6340 O.2    72  ILE72      -0.2715
     65  CB        28.1950    7.8870   32.0170 C.3    72  ILE72       0.0290
     66  CG1       28.1080    6.5330   32.7360 C.3    72  ILE72       0.0022
     67  CG2       27.8200    9.0630   32.9330 C.3    72  ILE72       0.0023
     68  CD1       26.7260    6.1480   33.2070 C.3    72  ILE72       0.0001
     69  N         26.4440   10.0160   29.9390 N.am   73  ILE73      -0.1963
     70  CA        26.5000   11.3150   29.2970 C.3    73  ILE73       0.1727
     71  C         25.9930   12.4470   30.1990 C.2    73  ILE73       0.2616
     72  O         25.8420   13.5740   29.7540 O.2    73  ILE73      -0.2715
     73  CB        25.6980   11.2980   27.9610 C.3    73  ILE73       0.0290
     74  CG1       24.1900   11.0770   28.1990 C.3    73  ILE73       0.0022
     75  CG2       26.2640   10.2190   27.0400 C.3    73  ILE73       0.0023
     76  CD1       23.3230   11.3550   26.9930 C.3    73  ILE73       0.0001
     77  N         25.6970   12.1440   31.4590 N.am   74  SER74      -0.1950
     78  CA        25.0760   13.1400   32.3110 C.3    74  SER74       0.1924
     79  C         25.9820   14.3480   32.5120 C.2    74  SER74       0.2314
     80  O         27.2080   14.2290   32.5490 O.2    74  SER74      -0.2863
     81  CB        24.6730   12.5560   33.6700 C.3    74  SER74       0.2116
     82  OG        25.8080   12.0990   34.3680 O.3    74  SER74      -0.2180
@<TRIPOS>BOND
     1    59    60    1
     2    59    58    1
     3    60    54    1
     4    58    55    1
     5    76    74    1
     6    75    73    1
     7    73    74    1
     8    73    70    1
     9    54    55    1
    10    54    49   am
    11    55    56    1
    12    42    41    2
    13    52    51    1
    14    51    48    1
    15    51    53    1
    16    48    49    1
    17    48    47    1
    18    56    57    2
    19    56    61   am
    20    46    44   am
    21    49    50    2
    22    70    69    1
    23    70    71    1
    24    64    63    2
    25    72    71    2
    26    61    62    1
    27    69    63   am
    28    41    47   am
    29    41    40    1
    30    63    62    1
    31    44    45    2
    32    44    43    1
    33    71    77   am
    34    62    65    1
    35    43    40    1
    36    34    33    2
    37    40    39    1
    38    77    78    1
    39    30    27    1
    40    65    66    1
    41    65    67    1
    42    33    39   am
    43    33    32    1
    44    78    79    1
    45    78    81    1
    46    79    80    2
    47    66    68    1
    48    27    28    1
    49    27    26    1
    50    28    31   am
    51    28    29    2
    52    26    21   am
    53    31    32    1
    54    32    35    1
    55    23    25    1
    56    23    24    1
    57    23    20    1
    58    81    82    1
    59    35    37    1
    60    35    36    1
    61    20    21    1
    62    20    19    1
    63    21    22    2
    64    17    16    2
    65    36    38    1
    66    19    16   am
    67    16    15    1
    68     4     3    2
    69     8     7    2
    70     3     2    1
    71     3     5   am
    72     2     1    1
    73     7    14   am
    74     7     6    1
    75    15    14    1
    76    15    18    1
    77     5     6    1
    78     6     9    1
    79    13    12    1
    80    11    12    1
    81    11    10    1
    82     9    10    1
