@<TRIPOS>MOLECULE
tmp/4lmsD04.pdb
 111 103 0 0 0
SMALL
GASTEIGER

@<TRIPOS>ATOM
      1  N          3.1370   14.5680   53.6680 N.3     2  LYS2       -0.1245
      2  CA         4.1300   15.6300   53.5470 C.3     2  LYS2        0.1561
      3  C          5.4860   15.1150   53.0550 C.2     2  LYS2        0.2260
      4  O          6.0190   14.1450   53.5940 O.2     2  LYS2       -0.2867
      5  CB         4.3040   16.3190   54.9110 C.3     2  LYS2        0.0271
      6  CG         5.2440   17.5150   54.8950 C.3     2  LYS2        0.0035
      7  CD         5.3070   18.2120   56.2480 C.3     2  LYS2        0.0206
      8  CE         6.2280   19.4240   56.1990 C.3     2  LYS2        0.1093
      9  NZ         6.4840   19.9780   57.5520 N.3     2  LYS2       -0.1314
     10  N          9.4220   15.1170   52.8630 N.3     4  ALA4       -0.1245
     11  CA        10.5630   15.4530   53.6840 C.3     4  ALA4        0.1562
     12  C         11.7960   15.6000   52.8070 C.2     4  ALA4        0.2260
     13  O         12.0340   14.7850   51.9060 O.2     4  ALA4       -0.2867
     14  CB        10.7920   14.3550   54.7350 C.3     4  ALA4        0.0290
     15  N         15.9070   15.8120   53.1430 N.3     6  VAL6       -0.1245
     16  CA        17.0440   15.5290   53.9920 C.3     6  VAL6        0.1561
     17  C         18.3450   15.8700   53.2430 C.2     6  VAL6        0.2260
     18  O         18.7750   15.1440   52.3340 O.2     6  VAL6       -0.2867
     19  CB        17.0760   14.0550   54.4120 C.3     6  VAL6        0.0252
     20  CG1       18.1600   13.8430   55.4220 C.3     6  VAL6        0.0019
     21  CG2       15.7230   13.6110   54.9300 C.3     6  VAL6        0.0019
     22  N         22.1650   11.5350   58.8660 N.3    14  LEU14      -0.1245
     23  CA        21.6020   10.2770   58.3900 C.3    14  LEU14       0.1561
     24  C         22.7350    9.3030   58.0240 C.2    14  LEU14       0.2260
     25  O         22.6460    8.1060   58.3120 O.2    14  LEU14      -0.2867
     26  CB        20.6790   10.5170   57.1940 C.3    14  LEU14       0.0270
     27  CG        20.0960    9.2580   56.5450 C.3    14  LEU14       0.0019
     28  CD1       19.2320    8.4790   57.5050 C.3    14  LEU14       0.0001
     29  CD2       19.3080    9.6630   55.2960 C.3    14  LEU14       0.0001
     30  N         23.9210    7.4270   60.8820 N.3    17  PHE17      -0.1227
     31  CA        22.9320    6.5280   61.4760 C.3    17  PHE17       0.1736
     32  C         22.7800    5.2010   60.7450 C.2    17  PHE17       0.2595
     33  O         22.2770    4.2380   61.3170 O.2    17  PHE17      -0.2718
     34  CB        21.5690    7.2170   61.5540 C.3    17  PHE17       0.0547
     35  CG        21.5340    8.4420   62.4410 C.ar   17  PHE17      -0.0202
     36  CD1       22.4700    8.6550   63.4380 C.ar   17  PHE17      -0.0042
     37  CD2       20.5350    9.3790   62.2660 C.ar   17  PHE17      -0.0042
     38  CE1       22.4050    9.7850   64.2370 C.ar   17  PHE17      -0.0003
     39  CE2       20.4590   10.5020   63.0590 C.ar   17  PHE17      -0.0003
     40  CZ        21.3980   10.7120   64.0450 C.ar   17  PHE17      -0.0000
     41  N         23.1880    5.1500   59.4790 N.am   18  VAL18      -0.1980
     42  CA        23.0730    3.9310   58.6880 C.3    18  VAL18       0.1595
     43  C         24.4640    3.5680   58.1870 C.2    18  VAL18       0.2287
     44  O         25.3160    4.4420   58.0400 O.2    18  VAL18      -0.2864
     45  CB        22.1240    4.1170   57.4670 C.3    18  VAL18       0.0276
     46  CG1       20.7330    4.4800   57.9090 C.3    18  VAL18       0.0022
     47  CG2       22.6670    5.1740   56.5300 C.3    18  VAL18       0.0022
     48  N          8.7500   -0.1550   49.1460 N.3    78  TYR78      -0.1241
     49  CA         9.0300   -0.4630   50.5460 C.3    78  TYR78       0.1605
     50  C         10.3980   -1.1350   50.7020 C.2    78  TYR78       0.2264
     51  O         11.0810   -0.9130   51.7000 O.2    78  TYR78      -0.2867
     52  CB         7.9180   -1.3090   51.1610 C.3    78  TYR78       0.0534
     53  CG         6.7330   -0.4900   51.5980 C.ar   78  TYR78      -0.0201
     54  CD1        6.7350    0.1800   52.8160 C.ar   78  TYR78      -0.0009
     55  CD2        5.6020   -0.3810   50.8140 C.ar   78  TYR78      -0.0009
     56  CE1        5.6480    0.9220   53.2230 C.ar   78  TYR78       0.0417
     57  CE2        4.5060    0.3670   51.2270 C.ar   78  TYR78       0.0417
     58  CZ         4.5280    1.0050   52.4250 C.ar   78  TYR78       0.1957
     59  OH         3.4520    1.7620   52.8350 O.3    78  TYR78      -0.2866
     60  N         12.8810    1.7060   50.4900 N.3    81  TYR81      -0.1241
     61  CA        12.8620    2.4770   51.7170 C.3    81  TYR81       0.1605
     62  C         13.5900    1.7330   52.8360 C.2    81  TYR81       0.2264
     63  O         14.1960    2.3550   53.6970 O.2    81  TYR81      -0.2867
     64  CB        11.4230    2.7830   52.1020 C.3    81  TYR81       0.0534
     65  CG        11.3040    3.6720   53.3210 C.ar   81  TYR81      -0.0201
     66  CD1       11.6700    5.0100   53.2600 C.ar   81  TYR81      -0.0009
     67  CD2       10.8220    3.1760   54.5200 C.ar   81  TYR81      -0.0009
     68  CE1       11.5800    5.8290   54.3510 C.ar   81  TYR81       0.0417
     69  CE2       10.7060    3.9950   55.6180 C.ar   81  TYR81       0.0417
     70  CZ        11.1020    5.3200   55.5350 C.ar   81  TYR81       0.1957
     71  OH        10.9850    6.1110   56.6560 O.3    81  TYR81      -0.2866
     72  N         17.1310    2.4480   52.2360 N.3    84  LEU84      -0.1231
     73  CA        17.4390    3.7850   52.7400 C.3    84  LEU84       0.1693
     74  C         17.5940    3.7890   54.2630 C.2    84  LEU84       0.2592
     75  O         18.4660    4.4710   54.8080 O.2    84  LEU84      -0.2718
     76  CB        16.3400    4.7560   52.3340 C.3    84  LEU84       0.0284
     77  CG        16.5600    6.1970   52.7980 C.3    84  LEU84       0.0019
     78  CD1       17.7490    6.8370   52.1090 C.3    84  LEU84       0.0001
     79  CD2       15.3130    7.0210   52.5590 C.3    84  LEU84       0.0001
     80  N         16.7430    3.0290   54.9440 N.am   85  SER85      -0.1952
     81  CA        16.6290    3.0840   56.3920 C.3    85  SER85       0.1924
     82  C         17.5830    2.1530   57.1140 C.2    85  SER85       0.2314
     83  O         17.8760    2.3570   58.2890 O.2    85  SER85      -0.2863
     84  CB        15.2290    2.6580   56.8270 C.3    85  SER85       0.2116
     85  OG        14.2200    3.5080   56.3260 O.3    85  SER85      -0.2180
     86  N         16.8080   -1.0650   57.6400 N.3    87  ASP87      -0.1239
     87  CA        16.0270   -2.1060   58.2740 C.3    87  ASP87       0.1674
     88  C         14.6970   -2.2660   57.5640 C.2    87  ASP87       0.2266
     89  O         14.2930   -1.4200   56.7670 O.2    87  ASP87      -0.2867
     90  CB        15.8070   -1.8210   59.7680 C.3    87  ASP87       0.1410
     91  CG        14.8620   -0.6480   60.0160 C.2    87  ASP87       0.3668
     92  OD1       13.6360   -0.8530   59.9710 O.co2  87  ASP87      -0.2456
     93  OD2       15.3360    0.4780   60.2830 O.co2  87  ASP87      -0.2456
     94  N          9.2540   -1.0950   58.5440 N.3    90  VAL90      -0.1245
     95  CA         8.1030   -0.4970   57.8810 C.3    90  VAL90       0.1561
     96  C          7.5830   -1.4410   56.7970 C.2    90  VAL90       0.2260
     97  O          6.3810   -1.6470   56.6680 O.2    90  VAL90      -0.2867
     98  CB         8.4440    0.9040   57.3360 C.3    90  VAL90       0.0252
     99  CG1        7.3470    1.4380   56.4280 C.3    90  VAL90       0.0019
    100  CG2        8.7070    1.8770   58.5040 C.3    90  VAL90       0.0019
    101  N          3.7110   -2.0900   57.4340 N.3    94  ARG94      -0.1245
    102  CA         2.8400   -1.3580   56.5330 C.3    94  ARG94       0.1563
    103  C          2.5940   -2.1360   55.2320 C.2    94  ARG94       0.2260
    104  O          1.4690   -2.1970   54.7300 O.2    94  ARG94      -0.2867
    105  CB         3.4660   -0.0030   56.1980 C.3    94  ARG94       0.0307
    106  CG         3.3390    1.0450   57.2830 C.3    94  ARG94       0.0489
    107  CD         1.8770    1.4110   57.4100 C.3    94  ARG94       0.2205
    108  NE         1.6500    2.6970   58.0400 N.pl3  94  ARG94      -0.0865
    109  CZ         0.4690    3.3060   58.0700 C.cat  94  ARG94       0.5346
    110  NH1       -0.5850    2.7440   57.4890 N.pl3  94  ARG94       0.1354
    111  NH2        0.3420    4.4800   58.6840 N.pl3  94  ARG94       0.1354
@<TRIPOS>BOND
     1    48    49    1
     2    60    61    1
     3    49    50    1
     4    49    52    1
     5    50    51    2
     6    55    57   ar
     7    55    53   ar
     8    52    53    1
     9    57    58   ar
    10    53    54   ar
    11    61    64    1
    12    61    62    1
    13    13    12    2
    14    64    65    1
    15    78    77    1
    16    72    73    1
    17    76    73    1
    18    76    77    1
    19    18    17    2
    20    58    59    1
    21    58    56   ar
    22    79    77    1
    23    73    74    1
    24    12    11    1
    25    54    56   ar
    26    62    63    2
    27    10    11    1
    28     3     2    1
    29     3     4    2
    30    15    16    1
    31    17    16    1
    32    66    65   ar
    33    66    68   ar
    34    65    67   ar
    35     2     1    1
    36     2     5    1
    37    11    14    1
    38    16    19    1
    39    74    75    2
    40    74    80   am
    41    68    70   ar
    42    19    21    1
    43    19    20    1
    44    67    69   ar
    45   104   103    2
    46     6     5    1
    47     6     7    1
    48    80    81    1
    49   103   102    1
    50    29    27    1
    51    70    69   ar
    52    70    71    1
    53   105   102    1
    54   105   106    1
    55     8     7    1
    56     8     9    1
    57    85    84    1
    58    81    84    1
    59    81    82    1
    60    99    98    1
    61    47    45    1
    62   102   101    1
    63    27    26    1
    64    27    28    1
    65    97    96    2
    66    89    88    2
    67    96    95    1
    68    82    83    2
    69    26    23    1
    70   106   107    1
    71    98    95    1
    72    98   100    1
    73   107   108    1
    74    45    46    1
    75    45    42    1
    76   110   109    1
    77    88    87    1
    78    86    87    1
    79    95    94    1
    80    24    25    2
    81    24    23    1
    82    44    43    2
    83   108   109    2
    84   109   111    1
    85    43    42    1
    86    87    90    1
    87    23    22    1
    88    42    41    1
    89    41    32   am
    90    90    91    1
    91    92    91   ar
    92    91    93   ar
    93    32    33    2
    94    32    31    1
    95    30    31    1
    96    31    34    1
    97    34    35    1
    98    37    35   ar
    99    37    39   ar
   100    35    36   ar
   101    39    40   ar
   102    36    38   ar
   103    40    38   ar
