@<TRIPOS>MOLECULE
tmp/4lmsA00.pdb
 125 122 0 0 0
SMALL
GASTEIGER

@<TRIPOS>ATOM
      1  N          3.5470  -12.8460   17.1870 N.3    13  PHE13      -0.1227
      2  CA         3.0920  -14.0460   17.8850 C.3    13  PHE13       0.1736
      3  C          3.7490  -15.3040   17.3350 C.2    13  PHE13       0.2595
      4  O          3.3480  -15.8200   16.2930 O.2    13  PHE13      -0.2718
      5  CB         1.5670  -14.1790   17.7940 C.3    13  PHE13       0.0547
      6  CG         0.8130  -13.0280   18.3940 C.ar   13  PHE13      -0.0202
      7  CD1        0.5650  -12.9880   19.7500 C.ar   13  PHE13      -0.0042
      8  CD2        0.3930  -11.9660   17.6140 C.ar   13  PHE13      -0.0042
      9  CE1       -0.1140  -11.9280   20.3140 C.ar   13  PHE13      -0.0003
     10  CE2       -0.3170  -10.9080   18.1810 C.ar   13  PHE13      -0.0003
     11  CZ        -0.5600  -10.8960   19.5390 C.ar   13  PHE13      -0.0000
     12  N          4.8040  -15.7550   18.0070 N.am   14  ASP14      -0.1960
     13  CA         5.4020  -17.0480   17.6880 C.3    14  ASP14       0.1840
     14  C          4.7610  -18.0540   18.6330 C.2    14  ASP14       0.2621
     15  O          5.2170  -18.2390   19.7430 O.2    14  ASP14      -0.2715
     16  CB         6.9100  -17.0340   17.8660 C.3    14  ASP14       0.1450
     17  CG         7.5410  -18.3510   17.4930 C.2    14  ASP14       0.3671
     18  OD1        6.8250  -19.2590   16.9860 O.co2  14  ASP14      -0.2456
     19  OD2        8.7520  -18.4860   17.7340 O.co2  14  ASP14      -0.2456
     20  N          3.6560  -18.6390   18.1970 N.am   15  ALA15      -0.1977
     21  CA         2.8710  -19.5110   19.0380 C.3    15  ALA15       0.1597
     22  C          3.1950  -20.9840   18.8190 C.2    15  ALA15       0.2287
     23  O          2.4160  -21.8490   19.2040 O.2    15  ALA15      -0.2864
     24  CB         1.3870  -19.2570   18.8210 C.3    15  ALA15       0.0319
     25  N          2.4600  -23.1930   21.8820 N.3    18  CYS18      -0.1221
     26  CA         1.4390  -22.5290   22.6850 C.3    18  CYS18       0.1808
     27  C          0.1340  -23.2870   22.5240 C.2    18  CYS18       0.2601
     28  O         -0.4320  -23.3560   21.4300 O.2    18  CYS18      -0.2717
     29  CB         1.2540  -21.0650   22.2560 C.3    18  CYS18       0.0970
     30  SG        -0.1870  -20.2580   23.0230 S.3    18  CYS18      -0.0800
     31  N         -0.3470  -23.8570   23.6200 N.am   19  ASP19      -0.1959
     32  CA        -1.4720  -24.7580   23.5530 C.3    19  ASP19       0.1840
     33  C         -2.8340  -24.0690   23.5260 C.2    19  ASP19       0.2621
     34  O         -3.8680  -24.7450   23.5050 O.2    19  ASP19      -0.2715
     35  CB        -1.4110  -25.7200   24.7280 C.3    19  ASP19       0.1450
     36  CG        -2.2880  -26.9200   24.5360 C.2    19  ASP19       0.3671
     37  OD1       -2.5580  -27.3040   23.3740 O.co2  19  ASP19      -0.2456
     38  OD2       -2.7100  -27.4750   25.5680 O.co2  19  ASP19      -0.2456
     39  N         -2.8380  -22.7410   23.4970 N.am   20  ALA20      -0.1977
     40  CA        -4.0610  -21.9610   23.3690 C.3    20  ALA20       0.1597
     41  C         -4.2560  -21.6060   21.9030 C.2    20  ALA20       0.2287
     42  O         -3.3250  -21.1370   21.2480 O.2    20  ALA20      -0.2864
     43  CB        -3.9690  -20.6860   24.2220 C.3    20  ALA20       0.0319
     44  N         -5.6720  -19.5910   18.6480 N.3    22  ASN22      -0.1225
     45  CA        -6.1430  -18.2830   18.1870 C.3    22  ASN22       0.1785
     46  C         -6.3060  -18.2830   16.6870 C.2    22  ASN22       0.2597
     47  O         -5.4470  -18.7980   15.9890 O.2    22  ASN22      -0.2718
     48  CB        -5.1500  -17.1890   18.5540 C.3    22  ASN22       0.1169
     49  CG        -5.2600  -16.7960   20.0020 C.2    22  ASN22       0.2627
     50  OD1       -6.1710  -16.0630   20.3790 O.2    22  ASN22      -0.2716
     51  ND2       -4.3630  -17.3080   20.8320 N.am   22  ASN22      -0.0877
     52  N         -7.3930  -17.6860   16.2020 N.am   23  ALA23      -0.1966
     53  CA        -7.7390  -17.7360   14.7780 C.3    23  ALA23       0.1728
     54  C         -8.2760  -16.3990   14.2390 C.2    23  ALA23       0.2616
     55  O         -9.2630  -16.3520   13.4970 O.2    23  ALA23      -0.2715
     56  CB        -8.7530  -18.8410   14.5480 C.3    23  ALA23       0.0334
     57  N         -7.6150  -15.3110   14.6070 N.am   24  GLN24      -0.1963
     58  CA        -7.9640  -13.9910   14.0950 C.3    24  GLN24       0.1733
     59  C         -7.5760  -13.8700   12.6210 C.2    24  GLN24       0.2616
     60  O         -8.2530  -13.1990   11.8600 O.2    24  GLN24      -0.2715
     61  CB        -7.2750  -12.8900   14.9100 C.3    24  GLN24       0.0408
     62  CG        -7.6770  -12.8330   16.3850 C.3    24  GLN24       0.0908
     63  CD        -7.0200  -13.9180   17.2270 C.2    24  GLN24       0.2608
     64  OE1       -6.0100  -14.5070   16.8390 O.2    24  GLN24      -0.2717
     65  NE2       -7.5990  -14.1910   18.3800 N.am   24  GLN24      -0.0878
     66  N         -6.4680  -14.5030   12.2460 N.am   25  TYR25      -0.1974
     67  CA        -6.0570  -14.5930   10.8530 C.3    25  TYR25       0.1639
     68  C         -7.0850  -15.4370   10.1190 C.2    25  TYR25       0.2290
     69  O         -7.4090  -16.5350   10.5660 O.2    25  TYR25      -0.2864
     70  CB        -4.6770  -15.2420   10.7700 C.3    25  TYR25       0.0560
     71  CG        -4.2810  -15.6990    9.3870 C.ar   25  TYR25      -0.0198
     72  CD1       -4.0580  -14.7810    8.3700 C.ar   25  TYR25      -0.0009
     73  CD2       -4.1190  -17.0470    9.1010 C.ar   25  TYR25      -0.0009
     74  CE1       -3.7000  -15.1990    7.0990 C.ar   25  TYR25       0.0417
     75  CE2       -3.7490  -17.4690    7.8360 C.ar   25  TYR25       0.0417
     76  CZ        -3.5320  -16.5300    6.8360 C.ar   25  TYR25       0.1957
     77  OH        -3.1600  -16.9150    5.5630 O.3    25  TYR25      -0.2866
     78  N          4.0730  -21.8030    9.9980 N.3    34  ASN34      -0.1225
     79  CA         3.4210  -20.4890    9.8890 C.3    34  ASN34       0.1785
     80  C          1.9580  -20.5130   10.3460 C.2    34  ASN34       0.2597
     81  O          1.4000  -19.4640   10.6660 O.2    34  ASN34      -0.2718
     82  CB         3.5120  -19.8820    8.4820 C.3    34  ASN34       0.1169
     83  CG         4.9280  -19.5470    8.0770 C.2    34  ASN34       0.2627
     84  OD1        5.4430  -18.4920    8.4250 O.2    34  ASN34      -0.2716
     85  ND2        5.5660  -20.4450    7.3440 N.am   34  ASN34      -0.0877
     86  N          1.3330  -21.6940   10.3880 N.am   35  ASP35      -0.1960
     87  CA        -0.0190  -21.7800   10.9460 C.3    35  ASP35       0.1840
     88  C         -0.0620  -21.5330   12.4620 C.2    35  ASP35       0.2622
     89  O         -1.1450  -21.3300   13.0400 O.2    35  ASP35      -0.2715
     90  CB        -0.6740  -23.1260   10.5860 C.3    35  ASP35       0.1450
     91  CG        -0.9380  -23.2490    9.1040 C.2    35  ASP35       0.3671
     92  OD1       -1.2210  -22.1880    8.4970 O.co2  35  ASP35      -0.2456
     93  OD2       -0.8650  -24.3760    8.5440 O.co2  35  ASP35      -0.2456
     94  N          1.1100  -21.5480   13.1020 N.am   36  ASP36      -0.1957
     95  CA         1.2470  -21.2700   14.5360 C.3    36  ASP36       0.1840
     96  C          1.9640  -19.9410   14.7470 C.2    36  ASP36       0.2622
     97  O          2.4780  -19.6720   15.8290 O.2    36  ASP36      -0.2715
     98  CB         2.0640  -22.3640   15.2150 C.3    36  ASP36       0.1450
     99  CG         1.3250  -23.6730   15.3140 C.2    36  ASP36       0.3671
    100  OD1        0.0860  -23.6850   15.1980 O.co2  36  ASP36      -0.2456
    101  OD2        1.9970  -24.6950   15.5360 O.co2  36  ASP36      -0.2456
    102  N          2.0150  -19.1030   13.7130 N.am   37  GLN37      -0.1963
    103  CA         2.7220  -17.8360   13.8140 C.3    37  GLN37       0.1733
    104  C          1.8750  -16.7330   13.2030 C.2    37  GLN37       0.2616
    105  O          1.1940  -16.9530   12.2070 O.2    37  GLN37      -0.2715
    106  CB         4.0900  -17.9320   13.1260 C.3    37  GLN37       0.0408
    107  CG         4.9700  -19.0060   13.7350 C.3    37  GLN37       0.0908
    108  CD         6.2100  -19.3310   12.9410 C.2    37  GLN37       0.2608
    109  OE1        6.2050  -19.3920   11.7040 O.2    37  GLN37      -0.2717
    110  NE2        7.2900  -19.5900   13.6630 N.am   37  GLN37      -0.0878
    111  N          1.9270  -15.5400   13.7900 N.am   38  CYS38      -0.1968
    112  CA         1.1220  -14.4420   13.2590 C.3    38  CYS38       0.1712
    113  C          1.7390  -13.1000   13.5770 C.2    38  CYS38       0.2296
    114  O          2.2650  -12.8940   14.6650 O.2    38  CYS38      -0.2864
    115  CB        -0.2870  -14.4930   13.8440 C.3    38  CYS38       0.0983
    116  SG        -1.5410  -13.5040   12.9820 S.3    38  CYS38      -0.0798
    117  N          0.4910   -9.1590   13.7990 N.3    40  LYS40      -0.1245
    118  CA        -0.6630   -8.2780   13.8560 C.3    40  LYS40       0.1561
    119  C         -0.1940   -6.8390   13.7060 C.2    40  LYS40       0.2260
    120  O          0.7350   -6.4170   14.3770 O.2    40  LYS40      -0.2867
    121  CB        -1.3730   -8.4480   15.2000 C.3    40  LYS40       0.0271
    122  CG        -2.5470   -7.5240   15.3950 C.3    40  LYS40       0.0035
    123  CD        -3.1330   -7.7030   16.7750 C.3    40  LYS40       0.0206
    124  CE        -4.1910   -6.6580   17.0970 C.3    40  LYS40       0.1093
    125  NZ        -4.7740   -6.8060   18.4820 N.3    40  LYS40      -0.1314
@<TRIPOS>BOND
     1    77    76    1
     2    76    74   ar
     3    76    75   ar
     4    74    72   ar
     5    85    83   am
     6    75    73   ar
     7    83    84    2
     8    83    82    1
     9    72    71   ar
    10    82    79    1
    11    92    91   ar
    12    93    91   ar
    13    73    71   ar
    14    91    90    1
    15    71    70    1
    16    79    78    1
    17    79    80    1
    18    68    69    2
    19    68    67    1
    20    80    86   am
    21    80    81    2
    22    86    87    1
    23    90    87    1
    24    70    67    1
    25    67    66    1
    26    87    88    1
    27   109   108    2
    28    60    59    2
    29   105   104    2
    30    66    59   am
    31    88    89    2
    32    88    94   am
    33    59    58    1
    34   108   110   am
    35   108   107    1
    36   116   115    1
    37    94    95    1
    38   106   107    1
    39   106   103    1
    40   104   111   am
    41   104   103    1
    42   112   113    1
    43   112   111    1
    44   112   115    1
    45    55    54    2
    46   113   114    2
    47   119   118    1
    48   119   120    2
    49   102   103    1
    50   102    96   am
    51   117   118    1
    52   118   121    1
    53    58    57    1
    54    58    61    1
    55    54    57   am
    56    54    53    1
    57    95    96    1
    58    95    98    1
    59    56    53    1
    60    96    97    2
    61    53    52    1
    62    61    62    1
    63   100    99   ar
    64   121   122    1
    65    98    99    1
    66    99   101   ar
    67   122   123    1
    68    47    46    2
    69    52    46   am
    70     4     3    2
    71    62    63    1
    72    46    45    1
    73   123   124    1
    74    64    63    2
    75    18    17   ar
    76   124   125    1
    77     1     2    1
    78    63    65   am
    79     3     2    1
    80     3    12   am
    81    17    19   ar
    82    17    16    1
    83     8    10   ar
    84     8     6   ar
    85    13    16    1
    86    13    12    1
    87    13    14    1
    88     5     2    1
    89     5     6    1
    90    10    11   ar
    91    45    48    1
    92    45    44    1
    93    20    14   am
    94    20    21    1
    95     6     7   ar
    96    48    49    1
    97    14    15    2
    98    22    21    1
    99    22    23    2
   100    24    21    1
   101    11     9   ar
   102     7     9   ar
   103    49    50    2
   104    49    51   am
   105    42    41    2
   106    28    27    2
   107    25    26    1
   108    41    40    1
   109    29    26    1
   110    29    30    1
   111    27    26    1
   112    27    31   am
   113    40    39    1
   114    40    43    1
   115    37    36   ar
   116    39    33   am
   117    34    33    2
   118    33    32    1
   119    32    31    1
   120    32    35    1
   121    36    35    1
   122    36    38   ar
