@<TRIPOS>MOLECULE
tmp/4lmsC01.pdb
 124 120 0 0 0
SMALL
GASTEIGER

@<TRIPOS>ATOM
      1  N         19.0480   13.0830   45.1100 N.3    13  PHE13      -0.1241
      2  CA        19.6520   14.1860   44.3610 C.3    13  PHE13       0.1605
      3  C         21.1280   14.3310   44.7380 C.2    13  PHE13       0.2264
      4  O         21.4710   14.9270   45.7590 O.2    13  PHE13      -0.2867
      5  CB        18.9550   15.5220   44.6580 C.3    13  PHE13       0.0534
      6  CG        17.4940   15.5780   44.2720 C.ar   13  PHE13      -0.0203
      7  CD1       17.1120   16.0350   43.0320 C.ar   13  PHE13      -0.0042
      8  CD2       16.5110   15.1760   45.1540 C.ar   13  PHE13      -0.0042
      9  CE1       15.7690   16.1080   42.6790 C.ar   13  PHE13      -0.0003
     10  CE2       15.1750   15.2490   44.8100 C.ar   13  PHE13      -0.0003
     11  CZ        14.8070   15.7150   43.5600 C.ar   13  PHE13      -0.0000
     12  N         23.5110   16.5580   43.5730 N.3    15  ALA15      -0.1245
     13  CA        23.4840   17.7730   42.7760 C.3    15  ALA15       0.1562
     14  C         24.7890   18.5530   42.8970 C.2    15  ALA15       0.2260
     15  O         24.8570   19.7480   42.6890 O.2    15  ALA15      -0.2867
     16  CB        22.2860   18.6190   43.1410 C.3    15  ALA15       0.0290
     17  N         25.7300   21.4280   40.3590 N.3    18  CYS18      -0.1221
     18  CA        24.5540   22.0940   39.7820 C.3    18  CYS18       0.1808
     19  C         24.4900   23.5090   40.3020 C.2    18  CYS18       0.2601
     20  O         24.4160   23.7300   41.5070 O.2    18  CYS18      -0.2717
     21  CB        23.2870   21.3300   40.1200 C.3    18  CYS18       0.0970
     22  SG        21.8050   21.9910   39.3430 S.3    18  CYS18      -0.0800
     23  N         24.5350   24.4710   39.3860 N.am   19  LYS19      -0.1965
     24  CA        24.5020   25.8860   39.7380 C.3    19  LYS19       0.1728
     25  C         23.1390   26.5130   39.5340 C.2    19  LYS19       0.2616
     26  O         22.9110   27.6450   39.9780 O.2    19  LYS19      -0.2715
     27  CB        25.4850   26.6670   38.8630 C.3    19  LYS19       0.0311
     28  CG        26.8790   26.0790   38.7890 C.3    19  LYS19       0.0038
     29  CD        27.5470   25.9850   40.1430 C.3    19  LYS19       0.0206
     30  CE        28.8570   25.1860   40.0150 C.3    19  LYS19       0.1093
     31  NZ        29.5230   24.9010   41.3240 N.3    19  LYS19      -0.1314
     32  N         22.2470   25.8320   38.8300 N.am   20  ASP20      -0.1957
     33  CA        21.0380   26.5220   38.3380 C.3    20  ASP20       0.1840
     34  C         19.7670   26.2700   39.1180 C.2    20  ASP20       0.2622
     35  O         18.7630   26.9830   38.9360 O.2    20  ASP20      -0.2715
     36  CB        20.7930   26.2290   36.8420 C.3    20  ASP20       0.1450
     37  CG        21.7760   26.9380   35.9340 C.2    20  ASP20       0.3671
     38  OD1       22.5880   27.7570   36.4320 O.co2  20  ASP20      -0.2456
     39  OD2       21.7220   26.6780   34.7100 O.co2  20  ASP20      -0.2456
     40  N         19.7880   25.2580   39.9810 N.am   21  HIS21      -0.1973
     41  CA        18.6880   25.0340   40.9100 C.3    21  HIS21       0.1656
     42  C         19.0800   25.5570   42.2890 C.2    21  HIS21       0.2291
     43  O         20.1040   25.1740   42.8470 O.2    21  HIS21      -0.2864
     44  CB        18.3530   23.5520   41.0160 C.3    21  HIS21       0.0771
     45  CG        17.3380   23.2470   42.0700 C.ar   21  HIS21       0.0820
     46  ND1       15.9820   23.2910   41.8370 N.ar   21  HIS21      -0.2267
     47  CD2       17.4800   22.9430   43.3750 C.ar   21  HIS21       0.1154
     48  CE1       15.3360   23.0120   42.9550 C.ar   21  HIS21       0.1986
     49  NE2       16.2230   22.7900   43.8980 N.ar   21  HIS21      -0.2212
     50  N         19.1120   25.5830   45.9900 N.3    23  ASN23      -0.1240
     51  CA        18.9220   24.5720   47.0200 C.3    23  ASN23       0.1653
     52  C         18.1610   25.0920   48.2440 C.2    23  ASN23       0.2266
     53  O         18.7510   25.3610   49.2920 O.2    23  ASN23      -0.2867
     54  CB        20.2940   24.0360   47.4290 C.3    23  ASN23       0.1155
     55  CG        20.9370   23.2420   46.3170 C.2    23  ASN23       0.2627
     56  OD1       20.2430   22.7250   45.4570 O.2    23  ASN23      -0.2716
     57  ND2       22.2540   23.1070   46.3460 N.am   23  ASN23      -0.0877
     58  N         14.8890   23.7040   49.2070 N.3    25  GLU25      -0.1231
     59  CA        13.8440   22.7980   49.6740 C.3    25  GLU25       0.1699
     60  C         14.1760   22.2600   51.0600 C.2    25  GLU25       0.2592
     61  O         13.3080   22.1010   51.9070 O.2    25  GLU25      -0.2718
     62  CB        13.6640   21.6330   48.7080 C.3    25  GLU25       0.0402
     63  CG        13.0050   22.0300   47.3750 C.3    25  GLU25       0.1161
     64  CD        13.9690   22.6300   46.3970 C.2    25  GLU25       0.3649
     65  OE1       15.1980   22.4420   46.5590 O.co2  25  GLU25      -0.2457
     66  OE2       13.5190   23.2960   45.4550 O.co2  25  GLU25      -0.2457
     67  N         15.4550   21.9710   51.2590 N.am   26  TYR26      -0.1976
     68  CA        15.9420   21.5540   52.5460 C.3    26  TYR26       0.1639
     69  C         16.0530   22.7920   53.4230 C.2    26  TYR26       0.2290
     70  O         16.7300   23.7680   53.0640 O.2    26  TYR26      -0.2864
     71  CB        17.3050   20.9090   52.3870 C.3    26  TYR26       0.0560
     72  CG        17.9950   20.7500   53.7130 C.ar   26  TYR26      -0.0198
     73  CD1       17.4630   19.9170   54.6840 C.ar   26  TYR26      -0.0009
     74  CD2       19.1950   21.3840   53.9730 C.ar   26  TYR26      -0.0009
     75  CE1       18.0730   19.7600   55.8850 C.ar   26  TYR26       0.0417
     76  CE2       19.8210   21.2390   55.1740 C.ar   26  TYR26       0.0417
     77  CZ        19.2690   20.4150   56.1250 C.ar   26  TYR26       0.1957
     78  OH        19.9090   20.2410   57.3220 O.3    26  TYR26      -0.2866
     79  N         27.3170   16.9610   51.3790 N.3    36  ASN36      -0.1225
     80  CA        26.0250   17.0340   52.0360 C.3    36  ASN36       0.1785
     81  C         25.2240   18.2900   51.6860 C.2    36  ASN36       0.2597
     82  O         24.0050   18.2220   51.5890 O.2    36  ASN36      -0.2718
     83  CB        26.1920   16.8730   53.5460 C.3    36  ASN36       0.1169
     84  CG        26.6850   15.4970   53.9130 C.2    36  ASN36       0.2627
     85  OD1       25.9840   14.5140   53.6670 O.2    36  ASN36      -0.2716
     86  ND2       27.9060   15.3990   54.4280 N.am   36  ASN36      -0.0877
     87  N         25.8850   19.4300   51.4850 N.am   37  ASP37      -0.1960
     88  CA        25.1480   20.6570   51.1690 C.3    37  ASP37       0.1840
     89  C         24.6220   20.7390   49.7290 C.2    37  ASP37       0.2622
     90  O         23.7200   21.5470   49.4300 O.2    37  ASP37      -0.2715
     91  CB        26.0100   21.8890   51.5280 C.3    37  ASP37       0.1450
     92  CG        26.2700   21.9810   53.0290 C.2    37  ASP37       0.3671
     93  OD1       25.4280   21.4670   53.8040 O.co2  37  ASP37      -0.2456
     94  OD2       27.3140   22.5590   53.4290 O.co2  37  ASP37      -0.2456
     95  N         25.1750   19.9070   48.8430 N.am   38  GLU38      -0.1963
     96  CA        24.7230   19.8330   47.4520 C.3    38  GLU38       0.1733
     97  C         24.1490   18.4530   47.1400 C.2    38  GLU38       0.2616
     98  O         24.0320   18.0690   45.9750 O.2    38  GLU38      -0.2715
     99  CB        25.8620   20.2290   46.4940 C.3    38  GLU38       0.0429
    100  CG        26.2730   21.6860   46.6660 C.3    38  GLU38       0.1163
    101  CD        27.4110   22.0990   45.7800 C.2    38  GLU38       0.3649
    102  OE1       27.8840   21.2810   44.9780 O.co2  38  GLU38      -0.2457
    103  OE2       27.8660   23.2640   45.9030 O.co2  38  GLU38      -0.2457
    104  N         23.7470   17.7260   48.1900 N.am   39  CYS39      -0.1954
    105  CA        23.0310   16.4410   48.0660 C.3    39  CYS39       0.1843
    106  C         21.7790   16.4690   48.9060 C.2    39  CYS39       0.2625
    107  O         21.7720   17.1030   49.9590 O.2    39  CYS39      -0.2714
    108  CB        23.9500   15.2870   48.4940 C.3    39  CYS39       0.0997
    109  SG        25.2750   14.9820   47.2800 S.3    39  CYS39      -0.0797
    110  N         20.7190   15.8170   48.4410 N.am   40  CYS40      -0.1968
    111  CA        19.4530   15.8050   49.1750 C.3    40  CYS40       0.1712
    112  C         18.6720   14.5480   48.8630 C.2    40  CYS40       0.2296
    113  O         18.6920   14.0640   47.7410 O.2    40  CYS40      -0.2864
    114  CB        18.6130   17.0200   48.7940 C.3    40  CYS40       0.0983
    115  SG        17.2150   17.4330   49.8870 S.3    40  CYS40      -0.0798
    116  N         14.7370   13.1290   49.0780 N.3    42  LYS42      -0.1245
    117  CA        13.3340   13.4720   49.2320 C.3    42  LYS42       0.1561
    118  C         12.5650   12.1780   49.5120 C.2    42  LYS42       0.2260
    119  O         12.7950   11.1680   48.8510 O.2    42  LYS42      -0.2867
    120  CB        12.8130   14.1730   47.9750 C.3    42  LYS42       0.0271
    121  CG        11.3570   14.5740   48.0460 C.3    42  LYS42       0.0035
    122  CD        10.8970   15.1960   46.7270 C.3    42  LYS42       0.0206
    123  CE         9.4750   15.6980   46.8670 C.3    42  LYS42       0.1093
    124  NZ         8.9910   16.4060   45.6510 N.3    42  LYS42      -0.1314
@<TRIPOS>BOND
     1    39    37   ar
     2    37    38   ar
     3    37    36    1
     4    36    33    1
     5    33    32    1
     6    33    34    1
     7    28    27    1
     8    28    29    1
     9    32    25   am
    10    27    24    1
    11    35    34    2
    12    34    40   am
    13    22    21    1
    14    23    24    1
    15    23    19   am
    16    25    24    1
    17    25    26    2
    18    18    21    1
    19    18    19    1
    20    18    17    1
    21    40    41    1
    22    30    29    1
    23    30    31    1
    24    19    20    2
    25    41    44    1
    26    41    42    1
    27    44    45    1
    28    46    45   ar
    29    46    48   ar
    30    45    47   ar
    31    42    43    2
    32     9     7   ar
    33     9    11   ar
    34    15    14    2
    35    13    14    1
    36    13    16    1
    37    13    12    1
    38    48    49   ar
    39     7     6   ar
    40    47    49   ar
    41    11    10   ar
    42     6     5    1
    43     6     8   ar
    44     2     5    1
    45     2     3    1
    46     2     1    1
    47     3     4    2
    48    10     8   ar
    49   102   101   ar
    50    66    64   ar
    51    56    55    2
    52   124   123    1
    53   101   103   ar
    54   101   100    1
    55    98    97    2
    56    50    51    1
    57    55    57   am
    58    55    54    1
    59    64    65   ar
    60    64    63    1
    61    99   100    1
    62    99    96    1
    63   122   123    1
    64   122   121    1
    65    51    54    1
    66    51    52    1
    67    97    96    1
    68    97   104   am
    69   109   108    1
    70    63    62    1
    71    96    95    1
    72   113   112    2
    73   120   121    1
    74   120   117    1
    75   105   104    1
    76   105   108    1
    77   105   106    1
    78    52    53    2
    79   110   106   am
    80   110   111    1
    81    62    59    1
    82   114   111    1
    83   114   115    1
    84    95    89   am
    85   119   118    2
    86   112   111    1
    87   106   107    2
    88   116   117    1
    89    58    59    1
    90   117   118    1
    91    90    89    2
    92    59    60    1
    93    89    88    1
    94    60    67   am
    95    60    61    2
    96    88    87    1
    97    88    91    1
    98    67    68    1
    99    79    80    1
   100    87    81   am
   101    91    92    1
   102    82    81    2
   103    81    80    1
   104    80    83    1
   105    71    68    1
   106    71    72    1
   107    68    69    1
   108    92    94   ar
   109    92    93   ar
   110    70    69    2
   111    83    84    1
   112    85    84    2
   113    72    74   ar
   114    72    73   ar
   115    84    86   am
   116    74    76   ar
   117    73    75   ar
   118    76    77   ar
   119    75    77   ar
   120    77    78    1
