@<TRIPOS>MOLECULE
tmp/4lmtA00.pdb
 123 123 0 0 0
SMALL
GASTEIGER

@<TRIPOS>ATOM
      1  N         61.8920  -20.2330   15.1670 N.3     1  GLU1       -0.1231
      2  CA        62.6880  -21.0220   14.2320 C.3     1  GLU1        0.1699
      3  C         61.9010  -22.2180   13.6940 C.2     1  GLU1        0.2592
      4  O         60.9250  -22.6790   14.3040 O.2     1  GLU1       -0.2718
      5  CB        63.9950  -21.4920   14.8850 C.3     1  GLU1        0.0402
      6  CG        65.0860  -21.9160   13.9010 C.3     1  GLU1        0.1161
      7  CD        65.8040  -23.1820   14.3410 C.2     1  GLU1        0.3649
      8  OE1       66.9030  -23.4610   13.8160 O.co2   1  GLU1       -0.2457
      9  OE2       65.2600  -23.9050   15.2030 O.co2   1  GLU1       -0.2457
     10  N         62.3440  -22.7280   12.5480 N.am    2  PHE2       -0.1976
     11  CA        61.5980  -23.7350   11.8070 C.3     2  PHE2        0.1639
     12  C         62.4500  -24.9630   11.5030 C.2     2  PHE2        0.2290
     13  O         63.5470  -24.8420   10.9690 O.2     2  PHE2       -0.2864
     14  CB        61.1090  -23.1350   10.4850 C.3     2  PHE2        0.0560
     15  CG        60.0320  -22.0950   10.6400 C.ar    2  PHE2       -0.0200
     16  CD1       60.3410  -20.8030   11.0290 C.ar    2  PHE2       -0.0042
     17  CD2       58.7050  -22.4150   10.3870 C.ar    2  PHE2       -0.0042
     18  CE1       59.3450  -19.8510   11.1680 C.ar    2  PHE2       -0.0003
     19  CE2       57.7050  -21.4640   10.5190 C.ar    2  PHE2       -0.0003
     20  CZ        58.0270  -20.1800   10.8950 C.ar    2  PHE2       -0.0000
     21  N         60.2150  -23.0650    5.9260 N.3     6  PRO6       -0.2102
     22  CA        58.9230  -22.4180    5.7040 C.3     6  PRO6        0.1504
     23  C         58.8570  -21.7460    4.3470 C.2     6  PRO6        0.2576
     24  O         59.8770  -21.6030    3.6740 O.2     6  PRO6       -0.2718
     25  CB        58.9240  -21.3160    6.7650 C.3     6  PRO6        0.0282
     26  CG        60.3450  -20.9310    6.8450 C.3     6  PRO6        0.0208
     27  CD        61.1280  -22.2100    6.7080 C.3     6  PRO6        0.0893
     28  N         57.6680  -21.3090    3.9510 N.am    7  TYR7       -0.1963
     29  CA        57.5710  -20.3770    2.8390 C.3     7  TYR7        0.1771
     30  C         58.0600  -19.0440    3.3760 C.2     7  TYR7        0.2620
     31  O         57.7420  -18.6620    4.5120 O.2     7  TYR7       -0.2715
     32  CB        56.1300  -20.2690    2.3270 C.3     7  TYR7        0.0574
     33  CG        55.6170  -21.5520    1.7360 C.ar    7  TYR7       -0.0198
     34  CD1       54.9600  -22.4850    2.5220 C.ar    7  TYR7       -0.0009
     35  CD2       55.8010  -21.8390    0.3940 C.ar    7  TYR7       -0.0009
     36  CE1       54.4880  -23.6650    1.9800 C.ar    7  TYR7        0.0417
     37  CE2       55.3460  -23.0260   -0.1580 C.ar    7  TYR7        0.0417
     38  CZ        54.6940  -23.9350    0.6440 C.ar    7  TYR7        0.1957
     39  OH        54.2270  -25.1130    0.1150 O.3     7  TYR7       -0.2866
     40  N         58.8770  -18.3550    2.5960 N.am    8  TYR8       -0.1960
     41  CA        59.4450  -17.1120    3.0910 C.3     8  TYR8        0.1771
     42  C         58.5040  -15.9310    2.7840 C.2     8  TYR8        0.2620
     43  O         57.9240  -15.8220    1.6970 O.2     8  TYR8       -0.2715
     44  CB        60.8880  -16.9070    2.5920 C.3     8  TYR8        0.0574
     45  CG        61.8930  -17.8210    3.2880 C.ar    8  TYR8       -0.0198
     46  CD1       62.1140  -19.1200    2.8440 C.ar    8  TYR8       -0.0009
     47  CD2       62.6130  -17.3860    4.3940 C.ar    8  TYR8       -0.0009
     48  CE1       63.0280  -19.9630    3.4890 C.ar    8  TYR8        0.0417
     49  CE2       63.5290  -18.2160    5.0370 C.ar    8  TYR8        0.0417
     50  CZ        63.7300  -19.5050    4.5840 C.ar    8  TYR8        0.1957
     51  OH        64.6390  -20.3230    5.2330 O.3     8  TYR8       -0.2866
     52  N         58.3160  -15.0940    3.7940 N.am    9  SER9       -0.1950
     53  CA        57.4370  -13.9330    3.7200 C.3     9  SER9        0.1924
     54  C         58.3050  -12.7860    3.2510 C.2     9  SER9        0.2314
     55  O         59.4950  -12.7820    3.5430 O.2     9  SER9       -0.2863
     56  CB        56.9120  -13.6390    5.1200 C.3     9  SER9        0.2116
     57  OG        56.4050  -12.3320    5.2360 O.3     9  SER9       -0.2180
     58  N         58.2010   -9.9600    4.4390 N.3    11  PHE11      -0.1227
     59  CA        58.2260   -9.0030    5.5410 C.3    11  PHE11       0.1736
     60  C         58.6230   -9.6040    6.8840 C.2    11  PHE11       0.2596
     61  O         58.5590  -10.8200    7.0820 O.2    11  PHE11      -0.2718
     62  CB        56.8530   -8.3130    5.6720 C.3    11  PHE11       0.0547
     63  CG        56.3720   -7.6730    4.3980 C.ar   11  PHE11      -0.0202
     64  CD1       56.7420   -6.3640    4.0670 C.ar   11  PHE11      -0.0042
     65  CD2       55.5520   -8.3730    3.5290 C.ar   11  PHE11      -0.0042
     66  CE1       56.2960   -5.7730    2.8820 C.ar   11  PHE11      -0.0003
     67  CE2       55.1020   -7.7990    2.3470 C.ar   11  PHE11      -0.0003
     68  CZ        55.4690   -6.4870    2.0250 C.ar   11  PHE11      -0.0000
     69  N         59.0380   -8.7490    7.8190 N.am   12  SER12      -0.1952
     70  CA        59.3550   -9.2330    9.1550 C.3    12  SER12       0.1924
     71  C         58.0560   -9.6080    9.8570 C.2    12  SER12       0.2314
     72  O         56.9710   -9.1730    9.4490 O.2    12  SER12      -0.2863
     73  CB        60.1010   -8.1640    9.9550 C.3    12  SER12       0.2116
     74  OG        59.3650   -6.9590   10.0260 O.3    12  SER12      -0.2180
     75  N         53.2990  -13.9340   10.1850 N.3    67  TYR67      -0.1241
     76  CA        54.0260  -13.5330    8.9840 C.3    67  TYR67       0.1605
     77  C         53.0610  -13.2700    7.8320 C.2    67  TYR67       0.2264
     78  O         52.0680  -13.9880    7.6730 O.2    67  TYR67      -0.2867
     79  CB        54.9910  -14.6400    8.5710 C.3    67  TYR67       0.0534
     80  CG        56.1890  -14.8050    9.4750 C.ar   67  TYR67      -0.0201
     81  CD1       57.2580  -13.9430    9.3930 C.ar   67  TYR67      -0.0009
     82  CD2       56.2420  -15.8230   10.4020 C.ar   67  TYR67      -0.0009
     83  CE1       58.3770  -14.1010   10.2140 C.ar   67  TYR67       0.0417
     84  CE2       57.3470  -15.9940   11.2180 C.ar   67  TYR67       0.0417
     85  CZ        58.4030  -15.1270   11.1250 C.ar   67  TYR67       0.1957
     86  OH        59.4910  -15.3140   11.9510 O.3    67  TYR67      -0.2866
     87  N         51.7440  -13.0840    3.9050 N.3    69  TYR69      -0.1241
     88  CA        51.8490  -13.6910    2.5970 C.3    69  TYR69       0.1605
     89  C         50.8470  -13.0450    1.6630 C.2    69  TYR69       0.2264
     90  O         49.6900  -12.8580    2.0180 O.2    69  TYR69      -0.2867
     91  CB        51.5770  -15.1920    2.7060 C.3    69  TYR69       0.0534
     92  CG        52.6480  -15.9020    3.4980 C.ar   69  TYR69      -0.0201
     93  CD1       53.8530  -16.2360    2.9000 C.ar   69  TYR69      -0.0009
     94  CD2       52.4660  -16.2030    4.8420 C.ar   69  TYR69      -0.0009
     95  CE1       54.8410  -16.8620    3.6010 C.ar   69  TYR69       0.0417
     96  CE2       53.4730  -16.8260    5.5630 C.ar   69  TYR69       0.0417
     97  CZ        54.6540  -17.1560    4.9220 C.ar   69  TYR69       0.1957
     98  OH        55.6710  -17.7920    5.6190 O.3    69  TYR69      -0.2866
     99  N         59.9420  -14.5380   -2.2570 N.3   107  ARG107     -0.1197
    100  CA        61.2440  -13.9830   -1.8720 C.3   107  ARG107      0.1779
    101  C         62.2780  -15.1020   -1.6480 C.2   107  ARG107      0.2305
    102  O         61.8930  -16.2650   -1.5340 O.2   107  ARG107     -0.2863
    103  CB        61.0910  -13.1000   -0.6140 C.2   107  ARG107     -0.0007
    104  CG        62.4050  -12.5250   -0.0530 C.2   107  ARG107      0.0176
    105  CD        62.2460  -11.5820    1.1290 C.3   107  ARG107      0.2464
    106  NE        61.9840  -12.2510    2.4030 N.pl3 107  ARG107     -0.0815
    107  CZ        62.9020  -12.8420    3.1580 C.cat 107  ARG107      0.5349
    108  NH1       64.1770  -12.8780    2.7790 N.pl3 107  ARG107      0.1354
    109  NH2       62.5480  -13.3990    4.3060 N.pl3 107  ARG107      0.1354
    110  N         66.4920   -9.5750    1.2820 N.3   113  GLU113     -0.1231
    111  CA        66.2400   -9.6750    2.7240 C.3   113  GLU113      0.1699
    112  C         64.7660   -9.3050    3.0110 C.2   113  GLU113      0.2592
    113  O         64.0980   -8.7690    2.1360 O.2   113  GLU113     -0.2718
    114  CB        67.1870   -8.7220    3.4540 C.3   113  GLU113      0.0402
    115  CG        67.3790   -8.9720    4.9490 C.3   113  GLU113      0.1161
    116  CD        68.4510  -10.0150    5.2640 C.2   113  GLU113      0.3649
    117  OE1       69.0250   -9.9530    6.3750 O.co2 113  GLU113     -0.2457
    118  OE2       68.7150  -10.8950    4.4120 O.co2 113  GLU113     -0.2457
    119  N         64.2570   -9.6040    4.2090 N.am  114  ALA114     -0.1980
    120  CA        62.8650   -9.2490    4.5540 C.3   114  ALA114      0.1597
    121  C         62.7400   -7.7560    4.7820 C.2   114  ALA114      0.2287
    122  O         63.5560   -7.1610    5.4880 O.2   114  ALA114     -0.2864
    123  CB        62.3980   -9.9760    5.7960 C.3   114  ALA114      0.0319
@<TRIPOS>BOND
     1    99   100    1
     2   100   101    1
     3   100   103    1
     4   101   102    2
     5   103   104    2
     6    37    35   ar
     7    37    38   ar
     8   104   105    1
     9    39    38    1
    10    35    33   ar
    11    38    36   ar
    12   105   106    1
    13   110   111    1
    14    89    90    2
    15    89    88    1
    16    43    42    2
    17    33    32    1
    18    33    34   ar
    19    36    34   ar
    20    68    67   ar
    21    68    66   ar
    22   113   112    2
    23    32    29    1
    24    67    65   ar
    25   106   107    2
    26    44    41    1
    27    44    45    1
    28    40    41    1
    29    40    30   am
    30    88    91    1
    31    88    87    1
    32    91    92    1
    33   111   112    1
    34   111   114    1
    35   108   107    1
    36    42    41    1
    37    42    52   am
    38    29    30    1
    39    29    28    1
    40    46    45   ar
    41    46    48   ar
    42    66    64   ar
    43    93    92   ar
    44    93    95   ar
    45   112   119   am
    46   107   109    1
    47    54    55    2
    48    54    53    1
    49    45    47   ar
    50    30    31    2
    51   114   115    1
    52    48    50   ar
    53    92    94   ar
    54    65    63   ar
    55    95    97   ar
    56    24    23    2
    57    53    52    1
    58    53    56    1
    59    28    23   am
    60    64    63   ar
    61   119   120    1
    62    23    22    1
    63    47    49   ar
    64    63    62    1
    65   118   116   ar
    66    58    59    1
    67   120   121    1
    68   120   123    1
    69    50    49   ar
    70    50    51    1
    71   121   122    2
    72    94    96   ar
    73    97    96   ar
    74    97    98    1
    75   115   116    1
    76    56    57    1
    77   116   117   ar
    78    59    62    1
    79    59    60    1
    80    22    21    1
    81    22    25    1
    82    21    27    1
    83    27    26    1
    84    25    26    1
    85    60    61    2
    86    60    69   am
    87    78    77    2
    88    69    70    1
    89    77    76    1
    90    79    76    1
    91    79    80    1
    92    76    75    1
    93    70    71    1
    94    70    73    1
    95    81    80   ar
    96    81    83   ar
    97    72    71    2
    98    80    82   ar
    99    73    74    1
   100    83    85   ar
   101    17    19   ar
   102    17    15   ar
   103    82    84   ar
   104    14    15    1
   105    14    11    1
   106    19    20   ar
   107    15    16   ar
   108    20    18   ar
   109    13    12    2
   110    16    18   ar
   111    85    84   ar
   112    85    86    1
   113    12    11    1
   114    11    10    1
   115    10     3   am
   116     3     2    1
   117     3     4    2
   118     8     7   ar
   119     6     7    1
   120     6     5    1
   121     2     5    1
   122     2     1    1
   123     7     9   ar
