@<TRIPOS>MOLECULE
tmp/4lmvB00.pdb
 113 109 0 0 0
SMALL
GASTEIGER

@<TRIPOS>ATOM
      1  N        -53.7970  -38.4120    5.2250 N.3     9  ILE9       -0.1245
      2  CA       -54.8840  -37.5620    5.7550 C.3     9  ILE9        0.1561
      3  C        -54.8300  -36.1870    5.1240 C.2     9  ILE9        0.2260
      4  O        -53.7680  -35.5460    5.1750 O.2     9  ILE9       -0.2867
      5  CB       -54.6930  -37.2840    7.2290 C.3     9  ILE9        0.0252
      6  CG1      -54.6000  -38.5650    8.0070 C.3     9  ILE9        0.0019
      7  CG2      -55.7930  -36.4310    7.7440 C.3     9  ILE9        0.0019
      8  CD1      -54.1710  -38.3600    9.4250 C.3     9  ILE9        0.0001
      9  N        -45.9840  -38.1440    9.8510 N.3    23  ASN23      -0.1240
     10  CA       -45.9460  -39.5900    9.7730 C.3    23  ASN23       0.1653
     11  C        -46.1800  -40.0900    8.3660 C.2    23  ASN23       0.2266
     12  O        -45.4480  -40.9540    7.9200 O.2    23  ASN23      -0.2867
     13  CB       -46.9290  -40.1650   10.7200 C.3    23  ASN23       0.1155
     14  CG       -46.6620  -39.7340   12.1120 C.2    23  ASN23       0.2627
     15  OD1      -45.6520  -40.0920   12.7140 O.2    23  ASN23      -0.2716
     16  ND2      -47.5680  -38.9760   12.6560 N.am   23  ASN23      -0.0877
     17  N        -59.5240  -38.2860    9.4640 N.3    45  TYR45      -0.1241
     18  CA       -59.1460  -38.8200   10.7820 C.3    45  TYR45       0.1605
     19  C        -60.1780  -39.7890   11.3560 C.2    45  TYR45       0.2264
     20  O        -59.8490  -40.9300   11.6230 O.2    45  TYR45      -0.2867
     21  CB       -58.8800  -37.6760   11.7510 C.3    45  TYR45       0.0534
     22  CG       -57.4260  -37.3650   12.0100 C.ar   45  TYR45      -0.0201
     23  CD1      -56.6490  -38.2390   12.6810 C.ar   45  TYR45      -0.0009
     24  CD2      -56.8610  -36.1910   11.6130 C.ar   45  TYR45      -0.0009
     25  CE1      -55.3690  -37.9820   12.9240 C.ar   45  TYR45       0.0417
     26  CE2      -55.5780  -35.9360   11.8650 C.ar   45  TYR45       0.0417
     27  CZ       -54.8420  -36.8490   12.5210 C.ar   45  TYR45       0.1957
     28  OH       -53.5500  -36.6640   12.8040 O.3    45  TYR45      -0.2866
     29  N        -60.3860  -43.2780    9.6710 N.3    48  ILE48      -0.1231
     30  CA       -59.1840  -44.1050    9.5340 C.3    48  ILE48       0.1692
     31  C        -59.4200  -45.5100   10.0610 C.2    48  ILE48       0.2591
     32  O        -59.0420  -46.4680    9.4110 O.2    48  ILE48      -0.2718
     33  CB       -57.9460  -43.4530   10.1940 C.3    48  ILE48       0.0266
     34  CG1      -57.4230  -42.3310    9.3000 C.3    48  ILE48       0.0019
     35  CG2      -56.8210  -44.4760   10.4220 C.3    48  ILE48       0.0020
     36  CD1      -56.3610  -41.5090    9.8870 C.3    48  ILE48       0.0001
     37  N        -60.0590  -45.6460   11.2210 N.am   49  GLU49      -0.1979
     38  CA       -60.1700  -46.9660   11.8250 C.3    49  GLU49       0.1602
     39  C        -60.9600  -47.8860   10.9370 C.2    49  GLU49       0.2287
     40  O        -60.6280  -49.0120   10.8010 O.2    49  GLU49      -0.2864
     41  CB       -60.8070  -46.8900   13.1950 C.3    49  GLU49       0.0415
     42  CG       -61.0690  -48.2500   13.8070 C.3    49  GLU49       0.1163
     43  CD       -60.9570  -48.2740   15.3520 C.2    49  GLU49       0.3649
     44  OE1      -61.6740  -49.1270   15.9410 O.co2  49  GLU49      -0.2457
     45  OE2      -60.1470  -47.4920   15.9810 O.co2  49  GLU49      -0.2457
     46  N        -54.6090  -47.9100   22.4590 N.3    63  LYS63      -0.1245
     47  CA       -54.9260  -46.6640   23.1060 C.3    63  LYS63       0.1561
     48  C        -54.7930  -46.9730   24.5780 C.2    63  LYS63       0.2260
     49  O        -54.6610  -48.1290   24.9360 O.2    63  LYS63      -0.2867
     50  CB       -56.3500  -46.2720   22.7590 C.3    63  LYS63       0.0271
     51  CG       -56.5200  -45.7650   21.3160 C.3    63  LYS63       0.0035
     52  CD       -57.9900  -45.7970   20.8360 C.3    63  LYS63       0.0206
     53  CE       -58.1490  -45.3670   19.3630 C.3    63  LYS63       0.1093
     54  NZ       -58.0060  -43.8830   19.0880 N.3    63  LYS63      -0.1314
     55  N        -55.6840  -49.2340   18.4080 N.3    69  HIS69      -0.1226
     56  CA       -55.3680  -47.9600   17.8030 C.3    69  HIS69       0.1752
     57  C        -54.9450  -48.1070   16.3380 C.2    69  HIS69       0.2596
     58  O        -53.8140  -48.5390   16.0720 O.2    69  HIS69      -0.2718
     59  CB       -54.2260  -47.3440   18.5810 C.3    69  HIS69       0.0759
     60  CG       -53.9350  -45.9360   18.1940 C.ar   69  HIS69       0.0818
     61  ND1      -54.9190  -45.0570   17.7690 N.ar   69  HIS69      -0.2268
     62  CD2      -52.7710  -45.2480   18.1670 C.ar   69  HIS69       0.1154
     63  CE1      -54.3690  -43.8850   17.5030 C.ar   69  HIS69       0.1986
     64  NE2      -53.0660  -43.9790   17.7260 N.ar   69  HIS69      -0.2212
     65  N        -55.7970  -47.7330   15.3830 N.am   70  TYR70      -0.1962
     66  CA       -55.3830  -47.8070   13.9840 C.3    70  TYR70       0.1771
     67  C        -54.9210  -46.4460   13.4970 C.2    70  TYR70       0.2620
     68  O        -55.5450  -45.4270   13.8180 O.2    70  TYR70      -0.2715
     69  CB       -56.5150  -48.2780   13.1100 C.3    70  TYR70       0.0574
     70  CG       -57.0170  -49.6420   13.4130 C.ar   70  TYR70      -0.0198
     71  CD1      -56.7300  -50.6960   12.5870 C.ar   70  TYR70      -0.0009
     72  CD2      -57.8230  -49.8690   14.5110 C.ar   70  TYR70      -0.0009
     73  CE1      -57.2260  -51.9710   12.8430 C.ar   70  TYR70       0.0417
     74  CE2      -58.3320  -51.1420   14.7780 C.ar   70  TYR70       0.0417
     75  CZ       -58.0210  -52.1980   13.9330 C.ar   70  TYR70       0.1957
     76  OH       -58.5090  -53.4640   14.1910 O.3    70  TYR70      -0.2866
     77  N        -53.8470  -46.4320   12.6880 N.am   71  THR71      -0.1937
     78  CA       -53.1990  -45.1740   12.2410 C.3    71  THR71       0.2028
     79  C        -52.7780  -45.1990   10.7980 C.2    71  THR71       0.2642
     80  O        -52.7440  -46.2180   10.2030 O.2    71  THR71      -0.2714
     81  CB       -51.9290  -44.9440   12.9660 C.3    71  THR71       0.1808
     82  OG1      -50.9800  -45.9310   12.5420 O.3    71  THR71      -0.2208
     83  CG2      -52.1240  -45.0460   14.4580 C.3    71  THR71       0.0379
     84  N        -52.4810  -44.0520   10.2350 N.am   72  VAL72      -0.1977
     85  CA       -51.7790  -43.9740    8.9680 C.3    72  VAL72       0.1596
     86  C        -50.3660  -43.4310    9.2580 C.2    72  VAL72       0.2287
     87  O        -50.1790  -42.7190   10.2600 O.2    72  VAL72      -0.2864
     88  CB       -52.4430  -43.0190    8.0250 C.3    72  VAL72       0.0276
     89  CG1      -53.7930  -43.5230    7.6540 C.3    72  VAL72       0.0022
     90  CG2      -52.5230  -41.6700    8.6440 C.3    72  VAL72       0.0022
     91  N        -62.4390  -34.0110   15.0380 N.3   148  TYR148     -0.1241
     92  CA       -61.8860  -35.2150   15.6540 C.3   148  TYR148      0.1605
     93  C        -60.5070  -34.9120   16.2040 C.2   148  TYR148      0.2264
     94  O        -60.1960  -35.3040   17.3160 O.2   148  TYR148     -0.2867
     95  CB       -61.7920  -36.3450   14.6410 C.3   148  TYR148      0.0534
     96  CG       -61.1330  -37.6030   15.1600 C.ar  148  TYR148     -0.0201
     97  CD1      -61.8720  -38.6640   15.6500 C.ar  148  TYR148     -0.0009
     98  CD2      -59.7640  -37.7350   15.1330 C.ar  148  TYR148     -0.0009
     99  CE1      -61.2620  -39.7880   16.1010 C.ar  148  TYR148      0.0417
    100  CE2      -59.1390  -38.8720   15.5920 C.ar  148  TYR148      0.0417
    101  CZ       -59.8790  -39.8940   16.0670 C.ar  148  TYR148      0.1957
    102  OH       -59.2070  -41.0210   16.4980 O.3   148  TYR148     -0.2866
    103  N        -57.0340  -34.7770   20.7020 N.3   153  ARG153     -0.1245
    104  CA       -55.7150  -34.3320   21.1420 C.3   153  ARG153      0.1563
    105  C        -55.8440  -33.5160   22.3820 C.2   153  ARG153      0.2260
    106  O        -54.8970  -33.4480   23.1500 O.2   153  ARG153     -0.2867
    107  CB       -54.9990  -33.5310   20.0630 C.3   153  ARG153      0.0307
    108  CG       -54.0570  -34.3340   19.1790 C.3   153  ARG153      0.0489
    109  CD       -54.7600  -35.5230   18.5940 C.3   153  ARG153      0.2205
    110  NE       -53.9740  -36.1650   17.5590 N.pl3 153  ARG153     -0.0865
    111  CZ       -54.3830  -37.2400   16.8920 C.cat 153  ARG153      0.5346
    112  NH1      -55.5760  -37.7730   17.1480 N.pl3 153  ARG153      0.1354
    113  NH2      -53.6040  -37.7890   15.9550 N.pl3 153  ARG153      0.1354
@<TRIPOS>BOND
     1     3     4    2
     2     3     2    1
     3     1     2    1
     4     2     5    1
     5     5     7    1
     6     5     6    1
     7    89    88    1
     8    12    11    2
     9     6     8    1
    10    88    90    1
    11    88    85    1
    12    11    10    1
    13    85    86    1
    14    85    84    1
    15    86    87    2
    16    34    36    1
    17    34    33    1
    18    32    31    2
    19    17    18    1
    20    30    29    1
    21    30    31    1
    22    30    33    1
    23    10     9    1
    24    10    13    1
    25    31    37   am
    26    33    35    1
    27    80    79    2
    28    84    79   am
    29    13    14    1
    30    18    19    1
    31    18    21    1
    32    79    78    1
    33    40    39    2
    34    39    38    1
    35    37    38    1
    36    19    20    2
    37    24    26   ar
    38    24    22   ar
    39    21    22    1
    40    38    41    1
    41    26    27   ar
    42    22    23   ar
    43    14    16   am
    44    14    15    2
    45    78    77    1
    46    78    81    1
    47    27    28    1
    48    27    25   ar
    49    82    81    1
    50    71    73   ar
    51    71    70   ar
    52    23    25   ar
    53    77    67   am
    54    73    75   ar
    55    81    83    1
    56    69    70    1
    57    69    66    1
    58    41    42    1
    59    70    72   ar
    60    67    68    2
    61    67    66    1
    62    42    43    1
    63    75    76    1
    64    75    74   ar
    65    66    65    1
    66    72    74   ar
    67    95    96    1
    68    95    92    1
    69    91    92    1
    70    98    96   ar
    71    98   100   ar
    72    96    97   ar
    73    43    44   ar
    74    43    45   ar
    75    65    57   am
    76   100   101   ar
    77    97    99   ar
    78    92    93    1
    79   113   111    1
    80   101    99   ar
    81   101   102    1
    82    58    57    2
    83    93    94    2
    84    57    56    1
    85   111   112    1
    86   111   110    2
    87    63    64   ar
    88    63    61   ar
    89   110   109    1
    90    64    62   ar
    91    61    60   ar
    92    56    55    1
    93    56    59    1
    94    62    60   ar
    95    60    59    1
    96   109   108    1
    97    54    53    1
    98   108   107    1
    99    53    52    1
   100   107   104    1
   101   103   104    1
   102    52    51    1
   103   104   105    1
   104    51    50    1
   105   105   106    2
   106    46    47    1
   107    50    47    1
   108    47    48    1
   109    48    49    2
