@<TRIPOS>MOLECULE
tmp/4lmxI00.pdb
 131 125 0 0 0
SMALL
GASTEIGER

@<TRIPOS>ATOM
      1  N         46.1010  -42.5770   43.4400 N.3    11  GLU11      -0.1245
      2  CA        47.4710  -42.8880   43.8420 C.3    11  GLU11       0.1567
      3  C         47.4950  -43.2160   45.3260 C.2    11  GLU11       0.2260
      4  O         46.8640  -42.5250   46.1260 O.2    11  GLU11      -0.2867
      5  CB        48.4020  -41.7160   43.5410 C.3    11  GLU11       0.0388
      6  CG        48.4520  -41.3610   42.0580 C.3    11  GLU11       0.1160
      7  CD        49.2490  -40.1010   41.7820 C.2    11  GLU11       0.3649
      8  OE1       50.4420  -40.0530   42.1630 O.co2  11  GLU11      -0.2457
      9  OE2       48.6750  -39.1620   41.1860 O.co2  11  GLU11      -0.2457
     10  N         49.8700  -44.0340   48.7720 N.3    13  PHE13      -0.1241
     11  CA        51.2090  -43.7700   49.3180 C.3    13  PHE13       0.1605
     12  C         51.4660  -44.4610   50.6560 C.2    13  PHE13       0.2264
     13  O         50.6410  -44.4220   51.5780 O.2    13  PHE13      -0.2867
     14  CB        51.4570  -42.2630   49.4660 C.3    13  PHE13       0.0534
     15  CG        51.3300  -41.5020   48.1850 C.ar   13  PHE13      -0.0203
     16  CD1       50.1160  -40.9420   47.8110 C.ar   13  PHE13      -0.0042
     17  CD2       52.4200  -41.3560   47.3440 C.ar   13  PHE13      -0.0042
     18  CE1       50.0020  -40.2410   46.6190 C.ar   13  PHE13      -0.0003
     19  CE2       52.3130  -40.6580   46.1570 C.ar   13  PHE13      -0.0003
     20  CZ        51.1000  -40.1030   45.7890 C.ar   13  PHE13      -0.0000
     21  N         54.6880  -44.2680   53.0590 N.3    15  GLU15      -0.1245
     22  CA        55.9980  -43.6870   53.2810 C.3    15  GLU15       0.1567
     23  C         56.4460  -43.9100   54.7250 C.2    15  GLU15       0.2260
     24  O         57.0780  -43.0560   55.3340 O.2    15  GLU15      -0.2867
     25  CB        55.9890  -42.1990   52.8820 C.3    15  GLU15       0.0388
     26  CG        55.6500  -42.0270   51.3850 C.3    15  GLU15       0.1160
     27  CD        55.7500  -40.6030   50.8520 C.2    15  GLU15       0.3649
     28  OE1       55.9120  -39.6390   51.6310 O.co2  15  GLU15      -0.2457
     29  OE2       55.6570  -40.4490   49.6200 O.co2  15  GLU15      -0.2457
     30  N         58.7640  -45.7120   55.6740 N.3    17  ASP17      -0.1239
     31  CA        60.2270  -45.8040   55.7340 C.3    17  ASP17       0.1674
     32  C         60.8790  -44.4780   56.1260 C.2    17  ASP17       0.2266
     33  O         62.0730  -44.4200   56.4310 O.2    17  ASP17      -0.2867
     34  CB        60.8260  -46.3570   54.4270 C.3    17  ASP17       0.1410
     35  CG        60.5480  -45.4710   53.2030 C.2    17  ASP17       0.3668
     36  OD1       60.0210  -44.3470   53.3440 O.co2  17  ASP17      -0.2456
     37  OD2       60.8740  -45.9090   52.0770 O.co2  17  ASP17      -0.2456
     38  N         61.2550  -41.7810   54.2800 N.3    19  CYS19      -0.1221
     39  CA        61.8160  -40.9990   53.1810 C.3    19  CYS19       0.1808
     40  C         60.7960  -39.9850   52.6900 C.2    19  CYS19       0.2601
     41  O         59.7470  -40.3580   52.1540 O.2    19  CYS19      -0.2717
     42  CB        62.2640  -41.9010   52.0250 C.3    19  CYS19       0.0970
     43  SG        63.1850  -41.0120   50.7120 S.3    19  CYS19      -0.0800
     44  N         61.1110  -38.7020   52.8600 N.am   20  LYS20      -0.1965
     45  CA        60.1790  -37.6440   52.4980 C.3    20  LYS20       0.1728
     46  C         60.7160  -36.7600   51.3820 C.2    20  LYS20       0.2616
     47  O         61.8800  -36.3510   51.3950 O.2    20  LYS20      -0.2715
     48  CB        59.8340  -36.7910   53.7250 C.3    20  LYS20       0.0311
     49  CG        59.2670  -37.6110   54.8710 C.3    20  LYS20       0.0038
     50  CD        58.9680  -36.7600   56.0920 C.3    20  LYS20       0.0206
     51  CE        58.4740  -37.6330   57.2400 C.3    20  LYS20       0.1093
     52  NZ        58.1850  -36.8420   58.4700 N.3    20  LYS20      -0.1314
     53  N         59.8540  -36.4650   50.4180 N.am   21  ALA21      -0.1977
     54  CA        60.1970  -35.5350   49.3530 C.3    21  ALA21       0.1597
     55  C         59.6330  -34.1700   49.6970 C.2    21  ALA21       0.2287
     56  O         58.4830  -34.0560   50.1320 O.2    21  ALA21      -0.2864
     57  CB        59.6460  -36.0130   48.0340 C.3    21  ALA21       0.0319
     58  N         57.8540  -30.7230   49.9230 N.3    23  GLY23      -0.1210
     59  CA        56.6230  -30.1710   49.3960 C.3    23  GLY23       0.1956
     60  C         55.5840  -31.1950   48.9640 C.2    23  GLY23       0.2613
     61  O         54.7320  -30.8950   48.1330 O.2    23  GLY23      -0.2717
     62  N         55.6440  -32.4020   49.5200 N.am   24  THR24      -0.1938
     63  CA        54.6620  -33.4280   49.1530 C.3    24  THR24       0.2028
     64  C         53.6350  -33.6880   50.2480 C.2    24  THR24       0.2642
     65  O         52.7120  -34.4780   50.0590 O.2    24  THR24      -0.2714
     66  CB        55.3300  -34.7570   48.7570 C.3    24  THR24       0.1808
     67  OG1       56.2040  -35.1830   49.8060 O.3    24  THR24      -0.2208
     68  CG2       56.1210  -34.5990   47.4650 C.3    24  THR24       0.0379
     69  N         53.7890  -33.0280   51.3920 N.am   25  GLN25      -0.1963
     70  CA        52.8010  -33.1610   52.4480 C.3    25  GLN25       0.1733
     71  C         51.6030  -32.2920   52.0640 C.2    25  GLN25       0.2616
     72  O         51.7280  -31.0720   51.9180 O.2    25  GLN25      -0.2715
     73  CB        53.3950  -32.7570   53.8020 C.3    25  GLN25       0.0408
     74  CG        52.5060  -33.0630   55.0070 C.3    25  GLN25       0.0908
     75  CD        52.5810  -34.5070   55.4640 C.2    25  GLN25       0.2608
     76  OE1       53.4390  -35.2700   55.0210 O.2    25  GLN25      -0.2717
     77  NE2       51.6730  -34.8900   56.3610 N.am   25  GLN25      -0.0878
     78  N         50.4520  -32.9300   51.8780 N.am   26  LYS26      -0.1963
     79  CA        49.2780  -32.2780   51.3060 C.3    26  LYS26       0.1728
     80  C         48.0900  -32.4830   52.2160 C.2    26  LYS26       0.2616
     81  O         46.9930  -31.9980   51.9460 O.2    26  LYS26      -0.2715
     82  CB        48.9470  -32.8760   49.9360 C.3    26  LYS26       0.0311
     83  CG        50.0310  -32.7340   48.9020 C.3    26  LYS26       0.0038
     84  CD        50.2520  -31.2880   48.5300 C.3    26  LYS26       0.0206
     85  CE        51.2900  -31.1740   47.4340 C.3    26  LYS26       0.1093
     86  NZ        51.4960  -29.7720   46.9890 N.3    26  LYS26      -0.1314
     87  N         48.3080  -33.2270   53.2900 N.am   27  ALA27      -0.1963
     88  CA        47.2430  -33.5260   54.2330 C.3    27  ALA27       0.1728
     89  C         47.8210  -33.6860   55.6260 C.2    27  ALA27       0.2617
     90  O         49.0310  -33.8250   55.7940 O.2    27  ALA27      -0.2715
     91  CB        46.5060  -34.7890   53.8140 C.3    27  ALA27       0.0334
     92  N         46.9470  -33.6710   56.6230 N.am   28  SER28      -0.1936
     93  CA        47.3580  -33.8900   57.9960 C.3    28  SER28       0.2055
     94  C         47.5880  -35.3810   58.2320 C.2    28  SER28       0.2643
     95  O         46.7660  -36.2140   57.8470 O.2    28  SER28      -0.2714
     96  CB        46.2850  -33.3660   58.9460 C.3    28  SER28       0.2130
     97  OG        45.9040  -32.0520   58.5800 O.3    28  SER28      -0.2179
     98  N         48.7150  -35.7120   58.8510 N.am   29  GLY29      -0.1954
     99  CA        49.0190  -37.0870   59.1980 C.3    29  GLY29       0.1869
    100  C         50.5130  -37.3420   59.2570 C.2    29  GLY29       0.2309
    101  O         51.2910  -36.7000   58.5530 O.2    29  GLY29      -0.2863
    102  N         52.4440  -42.1150   57.7150 N.3    32  GLY32      -0.1210
    103  CA        53.0490  -42.5590   56.4740 C.3    32  GLY32       0.1956
    104  C         52.0960  -42.8890   55.3350 C.2    32  GLY32       0.2612
    105  O         52.5490  -43.1510   54.2240 O.2    32  GLY32      -0.2717
    106  N         50.7880  -42.8640   55.6000 N.am   33  PHE33      -0.1962
    107  CA        49.7860  -43.2510   54.6020 C.3    33  PHE33       0.1771
    108  C         49.0440  -42.0760   54.0000 C.2    33  PHE33       0.2619
    109  O         48.7460  -41.1000   54.6820 O.2    33  PHE33      -0.2715
    110  CB        48.7360  -44.1710   55.2200 C.3    33  PHE33       0.0574
    111  CG        49.3080  -45.3720   55.8840 C.ar   33  PHE33      -0.0200
    112  CD1       49.0330  -45.6380   57.2190 C.ar   33  PHE33      -0.0042
    113  CD2       50.1150  -46.2450   55.1720 C.ar   33  PHE33      -0.0042
    114  CE1       49.5540  -46.7520   57.8330 C.ar   33  PHE33      -0.0003
    115  CE2       50.6490  -47.3660   55.7850 C.ar   33  PHE33      -0.0003
    116  CZ        50.3640  -47.6180   57.1190 C.ar   33  PHE33      -0.0000
    117  N         48.7230  -42.1950   52.7180 N.am   34  CYS34      -0.1968
    118  CA        47.9360  -41.1850   52.0350 C.3    34  CYS34       0.1712
    119  C         47.3460  -41.7670   50.7580 C.2    34  CYS34       0.2296
    120  O         47.9370  -42.6470   50.1120 O.2    34  CYS34      -0.2864
    121  CB        48.7970  -39.9600   51.7100 C.3    34  CYS34       0.0983
    122  SG        47.8740  -38.5080   51.1390 S.3    34  CYS34      -0.0798
    123  N         45.5360  -40.2420   47.1390 N.3    36  LYS36      -0.1245
    124  CA        45.2700  -39.0880   46.2900 C.3    36  LYS36       0.1561
    125  C         44.3120  -39.4900   45.1730 C.2    36  LYS36       0.2260
    126  O         44.4510  -40.5580   44.5910 O.2    36  LYS36      -0.2867
    127  CB        46.5830  -38.5910   45.6840 C.3    36  LYS36       0.0271
    128  CG        46.4620  -37.4390   44.7040 C.3    36  LYS36       0.0035
    129  CD        47.8090  -37.2100   44.0180 C.3    36  LYS36       0.0206
    130  CE        47.7890  -36.0130   43.0800 C.3    36  LYS36       0.1093
    131  NZ        49.1570  -35.7180   42.5550 N.3    36  LYS36      -0.1314
@<TRIPOS>BOND
     1     9     7   ar
     2     7     6    1
     3     7     8   ar
     4     6     5    1
     5   131   130    1
     6   130   129    1
     7     1     2    1
     8     5     2    1
     9     2     3    1
    10   129   128    1
    11   126   125    2
    12   128   127    1
    13   125   124    1
    14     3     4    2
    15   127   124    1
    16    20    19   ar
    17    20    18   ar
    18    19    17   ar
    19   124   123    1
    20    18    16   ar
    21    86    85    1
    22    17    15   ar
    23    85    84    1
    24    68    66    1
    25    16    15   ar
    26    57    54    1
    27    61    60    2
    28    15    14    1
    29    84    83    1
    30    66    63    1
    31    66    67    1
    32    10    11    1
    33    83    82    1
    34    60    59    1
    35    60    62   am
    36    63    62    1
    37    63    64    1
    38    11    14    1
    39    11    12    1
    40    54    55    1
    41    54    53    1
    42    59    58    1
    43    29    27   ar
    44    55    56    2
    45    82    79    1
    46    65    64    2
    47   120   119    2
    48    64    69   am
    49    53    46   am
    50    12    13    2
    51    43    42    1
    52   119   118    1
    53    27    26    1
    54    27    28   ar
    55   122   121    1
    56    79    78    1
    57    79    80    1
    58    46    47    2
    59    46    45    1
    60    26    25    1
    61    69    70    1
    62   121   118    1
    63    78    71   am
    64    72    71    2
    65    81    80    2
    66    42    39    1
    67   118   117    1
    68    71    70    1
    69    37    35   ar
    70    41    40    2
    71    80    87   am
    72    70    73    1
    73    45    44    1
    74    45    48    1
    75    40    44   am
    76    40    39    1
    77   117   108   am
    78    25    22    1
    79    21    22    1
    80    39    38    1
    81    35    36   ar
    82    35    34    1
    83    22    23    1
    84    87    88    1
    85    48    49    1
    86    73    74    1
    87    91    88    1
    88   108   107    1
    89   108   109    2
    90   105   104    2
    91    88    89    1
    92    34    31    1
    93   107   110    1
    94   107   106    1
    95    23    24    2
    96    49    50    1
    97    74    75    1
    98    76    75    2
    99   113   115   ar
   100   113   111   ar
   101   110   111    1
   102   104   106   am
   103   104   103    1
   104    75    77   am
   105    89    90    2
   106    89    92   am
   107    30    31    1
   108    31    32    1
   109   115   116   ar
   110   111   112   ar
   111    50    51    1
   112    32    33    2
   113   103   102    1
   114    92    93    1
   115   116   114   ar
   116   112   114   ar
   117    51    52    1
   118    95    94    2
   119    93    94    1
   120    93    96    1
   121    94    98   am
   122   101   100    2
   123    97    96    1
   124    98    99    1
   125    99   100    1
