@<TRIPOS>MOLECULE
tmp/4ln0A00.pdb
 135 126 0 0 0
SMALL
GASTEIGER

@<TRIPOS>ATOM
      1  N        -79.5230   51.9580  156.1680 N.3    17  PHE17      -0.1241
      2  CA       -80.2660   52.2910  154.9520 C.3    17  PHE17       0.1605
      3  C        -79.7480   51.4760  153.7610 C.2    17  PHE17       0.2264
      4  O        -78.5370   51.3290  153.5890 O.2    17  PHE17      -0.2867
      5  CB       -80.1510   53.7890  154.6470 C.3    17  PHE17       0.0534
      6  CG       -80.8570   54.2090  153.3890 C.ar   17  PHE17      -0.0203
      7  CD1      -82.1250   54.7630  153.4480 C.ar   17  PHE17      -0.0042
      8  CD2      -80.2580   54.0390  152.1490 C.ar   17  PHE17      -0.0042
      9  CE1      -82.7910   55.1300  152.3060 C.ar   17  PHE17      -0.0003
     10  CE2      -80.9160   54.3980  150.9990 C.ar   17  PHE17      -0.0003
     11  CZ       -82.1900   54.9500  151.0740 C.ar   17  PHE17      -0.0000
     12  N        -80.9170   50.1950  149.4040 N.3    19  ALA19      -0.1245
     13  CA       -81.7660   49.8710  148.2650 C.3    19  ALA19       0.1562
     14  C        -81.1880   48.6170  147.6360 C.2    19  ALA19       0.2260
     15  O        -79.9760   48.4740  147.5120 O.2    19  ALA19      -0.2867
     16  CB       -81.8210   50.9970  147.2870 C.3    19  ALA19       0.0290
     17  N        -77.5690   48.1680  145.8690 N.3    29  PHE29      -0.1227
     18  CA       -77.1980   49.2980  145.0500 C.3    29  PHE29       0.1736
     19  C        -76.4490   50.3110  145.8900 C.2    29  PHE29       0.2595
     20  O        -75.5430   50.9830  145.4200 O.2    29  PHE29      -0.2718
     21  CB       -78.4230   49.9500  144.4300 C.3    29  PHE29       0.0547
     22  CG       -79.1200   49.1060  143.4140 C.ar   29  PHE29      -0.0202
     23  CD1      -78.5340   48.8720  142.1750 C.ar   29  PHE29      -0.0042
     24  CD2      -80.3900   48.6180  143.6590 C.ar   29  PHE29      -0.0042
     25  CE1      -79.1880   48.1150  141.2030 C.ar   29  PHE29      -0.0003
     26  CE2      -81.0470   47.8850  142.7070 C.ar   29  PHE29      -0.0003
     27  CZ       -80.4430   47.6250  141.4690 C.ar   29  PHE29      -0.0000
     28  N        -76.8360   50.3960  147.1540 N.am   30  VAL30      -0.1980
     29  CA       -76.4890   51.5220  148.0000 C.3    30  VAL30       0.1595
     30  C        -76.7520   51.1350  149.4600 C.2    30  VAL30       0.2287
     31  O        -77.8240   50.6380  149.7790 O.2    30  VAL30      -0.2864
     32  CB       -77.2910   52.7540  147.5430 C.3    30  VAL30       0.0276
     33  CG1      -78.0350   53.3990  148.6590 C.3    30  VAL30       0.0022
     34  CG2      -76.4010   53.7160  146.8240 C.3    30  VAL30       0.0022
     35  N        -73.7420   59.2490  147.2500 N.3    80  PHE80      -0.1241
     36  CA       -73.6620   57.8070  146.9780 C.3    80  PHE80       0.1605
     37  C        -72.8560   57.4980  145.7220 C.2    80  PHE80       0.2264
     38  O        -72.8800   58.2480  144.7530 O.2    80  PHE80      -0.2867
     39  CB       -75.0520   57.1980  146.8210 C.3    80  PHE80       0.0534
     40  CG       -75.6920   56.7910  148.1210 C.ar   80  PHE80      -0.0203
     41  CD1      -77.0260   57.0800  148.3780 C.ar   80  PHE80      -0.0042
     42  CD2      -74.9730   56.1030  149.0750 C.ar   80  PHE80      -0.0042
     43  CE1      -77.6110   56.7160  149.5740 C.ar   80  PHE80      -0.0003
     44  CE2      -75.5740   55.7210  150.2660 C.ar   80  PHE80      -0.0003
     45  CZ       -76.8860   56.0340  150.5080 C.ar   80  PHE80      -0.0000
     46  N        -86.4240   49.0330  149.2920 N.3    96  VAL96      -0.1245
     47  CA       -85.5780   49.8660  150.1220 C.3    96  VAL96       0.1561
     48  C        -85.8980   49.5590  151.5960 C.2    96  VAL96       0.2260
     49  O        -87.0560   49.3300  151.9560 O.2    96  VAL96      -0.2867
     50  CB       -85.7780   51.3620  149.7940 C.3    96  VAL96       0.0252
     51  CG1      -87.2160   51.7480  149.9740 C.3    96  VAL96       0.0019
     52  CG2      -84.8820   52.2360  150.6540 C.3    96  VAL96       0.0019
     53  N        -90.1310   60.6470  151.2210 N.3   112  THR112     -0.1218
     54  CA       -89.0510   60.5460  150.2480 C.3   112  THR112      0.1862
     55  C        -89.4660   61.1060  148.8920 C.2   112  THR112      0.2287
     56  O        -90.3430   60.5620  148.2030 O.2   112  THR112     -0.2866
     57  CB       -88.5990   59.0840  150.0960 C.3   112  THR112      0.1770
     58  OG1      -88.0400   58.6360  151.3360 O.3   112  THR112     -0.2211
     59  CG2      -87.5460   58.9400  149.0040 C.3   112  THR112      0.0375
     60  N        -88.2880   61.8580  145.1920 N.3   114  VAL114     -0.1245
     61  CA       -87.3450   61.6600  144.0920 C.3   114  VAL114      0.1561
     62  C        -87.4160   62.8730  143.1660 C.2   114  VAL114      0.2260
     63  O        -88.4840   63.4120  142.9380 O.2   114  VAL114     -0.2867
     64  CB       -87.6500   60.3670  143.3250 C.3   114  VAL114      0.0252
     65  CG1      -86.5260   60.0380  142.3480 C.3   114  VAL114      0.0019
     66  CG2      -87.7900   59.2320  144.3040 C.3   114  VAL114      0.0019
     67  N        -92.9490   59.3480  148.2720 N.3   124  LYS124     -0.1245
     68  CA       -93.4130   58.2370  149.1010 C.3   124  LYS124      0.1561
     69  C        -93.5400   58.7130  150.5600 C.2   124  LYS124      0.2260
     70  O        -92.5780   59.2510  151.1160 O.2   124  LYS124     -0.2867
     71  CB       -92.4420   57.0570  148.9950 C.3   124  LYS124      0.0271
     72  CG       -93.0840   55.7320  148.6490 C.3   124  LYS124      0.0035
     73  CD       -93.1010   54.8010  149.8470 C.3   124  LYS124      0.0206
     74  CE       -91.7190   54.2110  150.1080 C.3   124  LYS124      0.1093
     75  NZ       -91.2170   53.3760  148.9630 N.3   124  LYS124     -0.1314
     76  N        -90.0080   49.6360  145.9170 N.3   146  LEU146     -0.1231
     77  CA       -89.6920   50.7530  145.0220 C.3   146  LEU146      0.1693
     78  C        -90.7990   50.9760  143.9960 C.2   146  LEU146      0.2592
     79  O        -91.4160   50.0070  143.5290 O.2   146  LEU146     -0.2718
     80  CB       -88.3750   50.4970  144.3040 C.3   146  LEU146      0.0284
     81  CG       -87.2590   51.5010  144.5260 C.3   146  LEU146      0.0019
     82  CD1      -86.8110   51.4380  145.9770 C.3   146  LEU146      0.0001
     83  CD2      -86.1030   51.1970  143.5840 C.3   146  LEU146      0.0001
     84  N        -91.0490   52.2370  143.6410 N.am  147  CYS147     -0.1970
     85  CA       -92.0490   52.5290  142.6040 C.3   147  CYS147      0.1712
     86  C        -91.5850   52.1850  141.1780 C.2   147  CYS147      0.2296
     87  O        -90.3810   52.0870  140.9000 O.2   147  CYS147     -0.2864
     88  CB       -92.4460   54.0060  142.6400 C.3   147  CYS147      0.0983
     89  SG       -91.0650   55.1590  142.8670 S.3   147  CYS147     -0.0798
     90  N        -88.7940   54.2980  139.7630 N.3   150  MET150     -0.1245
     91  CA       -87.4460   53.9690  140.1830 C.3   150  MET150      0.1570
     92  C        -86.9150   52.6680  139.5680 C.2   150  MET150      0.2261
     93  O        -85.7420   52.5860  139.2290 O.2   150  MET150     -0.2867
     94  CB       -87.3940   53.8760  141.6970 C.3   150  MET150      0.0387
     95  CG       -87.4100   55.2130  142.3620 C.3   150  MET150      0.0595
     96  SD       -86.0210   56.1900  141.8210 S.3   150  MET150     -0.1393
     97  CE       -84.6770   55.0230  142.0010 C.3   150  MET150      0.0692
     98  N        -83.4790   52.7640  137.2510 N.3   154  ILE154     -0.1245
     99  CA       -82.3770   51.8140  137.4660 C.3   154  ILE154      0.1561
    100  C        -82.1510   50.8170  136.2970 C.2   154  ILE154      0.2260
    101  O        -81.0140   50.5120  135.9490 O.2   154  ILE154     -0.2867
    102  CB       -82.6050   50.9960  138.7580 C.3   154  ILE154      0.0252
    103  CG1      -82.5680   51.8990  139.9890 C.3   154  ILE154      0.0019
    104  CG2      -81.5670   49.9010  138.9080 C.3   154  ILE154      0.0019
    105  CD1      -82.8810   51.1640  141.2630 C.3   154  ILE154      0.0001
    106  N        -80.0770   63.9000  139.1350 N.3   173  PHE173     -0.1241
    107  CA       -80.9600   62.9960  139.8290 C.3   173  PHE173      0.1605
    108  C        -80.6650   63.0760  141.3140 C.2   173  PHE173      0.2264
    109  O        -79.5200   62.8750  141.7460 O.2   173  PHE173     -0.2867
    110  CB       -80.7820   61.5810  139.3070 C.3   173  PHE173      0.0534
    111  CG       -81.6030   60.5820  140.0270 C.ar  173  PHE173     -0.0203
    112  CD1      -82.8920   60.3080  139.6050 C.ar  173  PHE173     -0.0042
    113  CD2      -81.1000   59.9300  141.1550 C.ar  173  PHE173     -0.0042
    114  CE1      -83.6620   59.3880  140.2670 C.ar  173  PHE173     -0.0003
    115  CE2      -81.8700   59.0140  141.8480 C.ar  173  PHE173     -0.0003
    116  CZ       -83.1580   58.7420  141.4030 C.ar  173  PHE173     -0.0000
    117  N        -82.4670   62.8170  145.5940 N.3   175  ILE175     -0.1245
    118  CA       -83.5340   62.3800  146.4800 C.3   175  ILE175      0.1561
    119  C        -83.5120   63.1970  147.7540 C.2   175  ILE175      0.2260
    120  O        -82.5020   63.2220  148.4590 O.2   175  ILE175     -0.2867
    121  CB       -83.4160   60.8860  146.8350 C.3   175  ILE175      0.0252
    122  CG1      -83.7700   60.0420  145.6230 C.3   175  ILE175      0.0019
    123  CG2      -84.3330   60.5290  148.0080 C.3   175  ILE175      0.0019
    124  CD1      -83.2570   58.6560  145.7080 C.3   175  ILE175      0.0001
    125  N        -75.8000   61.5030  143.5710 N.3   195  PHE195     -0.1241
    126  CA       -75.4250   60.1690  143.1020 C.3   195  PHE195      0.1605
    127  C        -74.3800   60.1290  141.9920 C.2   195  PHE195      0.2264
    128  O        -74.2720   61.0480  141.1740 O.2   195  PHE195     -0.2867
    129  CB       -76.6720   59.4270  142.6090 C.3   195  PHE195      0.0534
    130  CG       -77.6710   59.0940  143.6970 C.ar  195  PHE195     -0.0203
    131  CD1      -78.5920   60.0310  144.1260 C.ar  195  PHE195     -0.0042
    132  CD2      -77.7070   57.8280  144.2610 C.ar  195  PHE195     -0.0042
    133  CE1      -79.5050   59.7170  145.0990 C.ar  195  PHE195     -0.0003
    134  CE2      -78.6310   57.5180  145.2350 C.ar  195  PHE195     -0.0003
    135  CZ       -79.5240   58.4610  145.6540 C.ar  195  PHE195     -0.0000
@<TRIPOS>BOND
     1   101   100    2
     2   100    99    1
     3    98    99    1
     4    99   102    1
     5   102   104    1
     6   102   103    1
     7   106   107    1
     8    93    92    2
     9   110   107    1
    10   110   111    1
    11    92    91    1
    12   112   111   ar
    13   112   114   ar
    14    90    91    1
    15   107   108    1
    16   103   105    1
    17   111   113   ar
    18    91    94    1
    19   114   116   ar
    20    87    86    2
    21   113   115   ar
    22   128   127    2
    23    86    85    1
    24    25    27   ar
    25    25    23   ar
    26   108   109    2
    27   116   115   ar
    28    27    26   ar
    29    94    95    1
    30    96    97    1
    31    96    95    1
    32   127   126    1
    33    23    22   ar
    34    65    64    1
    35    85    88    1
    36    85    84    1
    37   129   126    1
    38   129   130    1
    39    88    89    1
    40    26    24   ar
    41    63    62    2
    42   126   125    1
    43    62    61    1
    44    64    61    1
    45    64    66    1
    46    22    24   ar
    47    22    21    1
    48    79    78    2
    49    83    81    1
    50    84    78   am
    51   130   131   ar
    52   130   132   ar
    53    78    77    1
    54    61    60    1
    55   131   133   ar
    56   132   134   ar
    57    80    81    1
    58    80    77    1
    59    21    18    1
    60    81    82    1
    61    38    37    2
    62    77    76    1
    63    18    17    1
    64    18    19    1
    65   133   135   ar
    66   134   135   ar
    67    20    19    2
    68   117   118    1
    69   122   124    1
    70   122   121    1
    71    37    36    1
    72    19    28   am
    73   118   121    1
    74   118   119    1
    75    39    36    1
    76    39    40    1
    77    34    32    1
    78   121   123    1
    79    36    35    1
    80    28    29    1
    81    16    13    1
    82    15    14    2
    83    32    29    1
    84    32    33    1
    85    14    13    1
    86   119   120    2
    87    29    30    1
    88    40    41   ar
    89    40    42   ar
    90    56    55    2
    91    13    12    1
    92    67    68    1
    93    41    43   ar
    94    72    71    1
    95    72    73    1
    96    55    54    1
    97    75    74    1
    98    71    68    1
    99    59    57    1
   100    42    44   ar
   101    68    69    1
   102    46    47    1
   103    30    31    2
   104    43    45   ar
   105    50    51    1
   106    50    47    1
   107    50    52    1
   108    73    74    1
   109    57    54    1
   110    57    58    1
   111    47    48    1
   112    54    53    1
   113    44    45   ar
   114    69    70    2
   115    10    11   ar
   116    10     8   ar
   117    11     9   ar
   118    48    49    2
   119     8     6   ar
   120     9     7   ar
   121     6     7   ar
   122     6     5    1
   123     4     3    2
   124     3     2    1
   125     5     2    1
   126     2     1    1
