@<TRIPOS>MOLECULE
tmp/4ln7A00.pdb
 138 128 0 0 0
SMALL
GASTEIGER

@<TRIPOS>ATOM
      1  N         13.2340   14.3520  -18.4760 N.3    25  ALA25      -0.1231
      2  CA        12.1830   15.2530  -18.0180 C.3    25  ALA25       0.1694
      3  C         12.0440   16.4430  -18.9690 C.2    25  ALA25       0.2591
      4  O         10.9360   16.8130  -19.3350 O.2    25  ALA25      -0.2718
      5  CB        12.4750   15.7280  -16.6110 C.3    25  ALA25       0.0304
      6  N         13.1570   17.0260  -19.3990 N.am   26  MET26      -0.1979
      7  CA        13.0860   18.1430  -20.3500 C.3    26  MET26       0.1605
      8  C         12.4800   17.7360  -21.6880 C.2    26  MET26       0.2287
      9  O         11.6630   18.4670  -22.2630 O.2    26  MET26      -0.2864
     10  CB        14.4640   18.7970  -20.5270 C.3    26  MET26       0.0413
     11  CG        14.9300   19.4780  -19.2680 C.3    26  MET26       0.0598
     12  SD        16.4290   20.4570  -19.4790 S.3    26  MET26      -0.1393
     13  CE        15.7870   21.8310  -20.4040 C.3    26  MET26       0.0692
     14  N          8.7460   17.5430  -21.4820 N.3    29  TYR29      -0.1241
     15  CA         8.0800   18.8420  -21.3940 C.3    29  TYR29       0.1605
     16  C          8.4270   19.7670  -22.5630 C.2    29  TYR29       0.2264
     17  O          7.9890   20.9120  -22.6070 O.2    29  TYR29      -0.2867
     18  CB         8.3470   19.4760  -20.0270 C.3    29  TYR29       0.0534
     19  CG         7.8440   18.5910  -18.8960 C.ar   29  TYR29      -0.0201
     20  CD1        6.4900   18.2800  -18.7850 C.ar   29  TYR29      -0.0009
     21  CD2        8.7200   18.0520  -17.9540 C.ar   29  TYR29      -0.0009
     22  CE1        6.0240   17.4640  -17.7680 C.ar   29  TYR29       0.0417
     23  CE2        8.2660   17.2340  -16.9390 C.ar   29  TYR29       0.0417
     24  CZ         6.9150   16.9460  -16.8470 C.ar   29  TYR29       0.1957
     25  OH         6.4550   16.1350  -15.8330 O.3    29  TYR29      -0.2866
     26  N         18.0650   26.1460  -17.1710 N.3    39  LYS39      -0.1245
     27  CA        16.9550   25.3150  -16.6940 C.3    39  LYS39       0.1561
     28  C         17.4160   23.8790  -16.4160 C.2    39  LYS39       0.2260
     29  O         17.0230   23.2760  -15.4230 O.2    39  LYS39      -0.2867
     30  CB        15.8020   25.3490  -17.6830 C.3    39  LYS39       0.0271
     31  CG        14.5570   24.6190  -17.2560 C.3    39  LYS39       0.0035
     32  CD        13.3420   25.1620  -17.9980 C.3    39  LYS39       0.0206
     33  CE        12.0510   24.6760  -17.3640 C.3    39  LYS39       0.1093
     34  NZ        11.1290   24.1120  -18.3690 N.3    39  LYS39      -0.1314
     35  N         19.2020   23.7580  -13.1730 N.3    42  ALA42      -0.1231
     36  CA        18.2100   23.8750  -12.1060 C.3    42  ALA42       0.1694
     37  C         17.4720   22.5510  -11.8730 C.2    42  ALA42       0.2591
     38  O         17.2470   22.1700  -10.7050 O.2    42  ALA42      -0.2718
     39  CB        17.2110   24.9730  -12.4030 C.3    42  ALA42       0.0304
     40  N         17.1320   21.8490  -12.9430 N.am   43  ILE43      -0.1980
     41  CA        16.4270   20.5740  -12.8460 C.3    43  ILE43       0.1595
     42  C         17.3310   19.5620  -12.1420 C.2    43  ILE43       0.2287
     43  O         16.8950   18.8830  -11.2060 O.2    43  ILE43      -0.2864
     44  CB        15.9550   20.0590  -14.1990 C.3    43  ILE43       0.0276
     45  CG1       14.8230   20.9620  -14.7240 C.3    43  ILE43       0.0022
     46  CG2       15.4950   18.5790  -14.1440 C.3    43  ILE43       0.0022
     47  CD1       14.4390   20.7080  -16.1410 C.3    43  ILE43       0.0001
     48  N         17.6600   20.4990   -8.3410 N.3    46  HIS46      -0.1241
     49  CA        16.4270   20.1360   -7.6430 C.3    46  HIS46       0.1621
     50  C         16.2600   18.6130   -7.4900 C.2    46  HIS46       0.2264
     51  O         15.9210   18.1300   -6.3970 O.2    46  HIS46      -0.2867
     52  CB        15.2370   20.7970   -8.3310 C.3    46  HIS46       0.0745
     53  CG        13.8930   20.3780   -7.8110 C.ar   46  HIS46       0.0817
     54  ND1       13.2550   19.2580   -8.2580 N.ar   46  HIS46      -0.2268
     55  CD2       13.0520   20.9500   -6.9060 C.ar   46  HIS46       0.1154
     56  CE1       12.0850   19.1350   -7.6630 C.ar   46  HIS46       0.1986
     57  NE2       11.9250   20.1590   -6.8510 N.ar   46  HIS46      -0.2212
     58  N          9.5070   12.9320   -7.8240 N.3    85  GLU85      -0.1245
     59  CA        10.3240   13.6460   -8.7850 C.3    85  GLU85       0.1567
     60  C         11.3410   12.6890   -9.4430 C.2    85  GLU85       0.2260
     61  O         11.8670   11.7750   -8.7990 O.2    85  GLU85      -0.2867
     62  CB        11.0420   14.8160   -8.0930 C.3    85  GLU85       0.0388
     63  CG        11.7730   15.7570   -9.0400 C.3    85  GLU85       0.1160
     64  CD        10.8360   16.4430  -10.0330 C.2    85  GLU85       0.3649
     65  OE1       10.1790   17.4290   -9.6490 O.co2  85  GLU85      -0.2457
     66  OE2       10.7150   15.9610  -11.1650 O.co2  85  GLU85      -0.2457
     67  N          1.7370   17.2210   -9.2760 N.3   111  LEU111     -0.1245
     68  CA         2.6950   16.2590   -8.7610 C.3   111  LEU111      0.1561
     69  C          3.5990   16.8790   -7.6810 C.2   111  LEU111      0.2260
     70  O          4.2560   17.8890   -7.9340 O.2   111  LEU111     -0.2867
     71  CB         3.5820   15.7140   -9.8700 C.3   111  LEU111      0.0270
     72  CG         2.9400   14.7330  -10.8560 C.3   111  LEU111      0.0019
     73  CD1        3.8910   14.4080  -11.9920 C.3   111  LEU111      0.0001
     74  CD2        2.5440   13.4590  -10.1370 C.3   111  LEU111      0.0001
     75  N          6.9270   16.2560   -4.8990 N.3   113  ASP113     -0.1239
     76  CA         8.2640   15.6500   -5.0060 C.3   113  ASP113      0.1674
     77  C          8.5190   14.3430   -4.2590 C.2   113  ASP113      0.2266
     78  O          9.2230   13.4750   -4.7700 O.2   113  ASP113     -0.2867
     79  CB         9.3050   16.6900   -4.6400 C.3   113  ASP113      0.1410
     80  CG         9.3230   17.8260   -5.5970 C.2   113  ASP113      0.3668
     81  OD1        9.2540   17.5480   -6.8190 O.co2 113  ASP113     -0.2456
     82  OD2        9.3780   19.0000   -5.1600 O.co2 113  ASP113     -0.2456
     83  N          6.4700   19.0230   -1.1830 N.3   124  GLU124     -0.1231
     84  CA         7.0130   19.7820   -2.3060 C.3   124  GLU124      0.1699
     85  C          8.3340   20.4300   -1.8920 C.2   124  GLU124      0.2592
     86  O          8.3650   21.2400   -0.9740 O.2   124  GLU124     -0.2718
     87  CB         6.0400   20.8810   -2.7400 C.3   124  GLU124      0.0402
     88  CG         6.5680   21.8140   -3.8330 C.3   124  GLU124      0.1161
     89  CD         6.9110   21.0750   -5.1180 C.2   124  GLU124      0.3649
     90  OE1        6.2380   20.0730   -5.4260 O.co2 124  GLU124     -0.2457
     91  OE2        7.8850   21.4650   -5.8010 O.co2 124  GLU124     -0.2457
     92  N          9.3880   20.1060   -2.6260 N.am  125  ILE125     -0.1980
     93  CA        10.7220   20.6450   -2.4010 C.3   125  ILE125      0.1595
     94  C         10.9300   21.8070   -3.3440 C.2   125  ILE125      0.2287
     95  O         10.6430   21.7090   -4.5270 O.2   125  ILE125     -0.2864
     96  CB        11.8150   19.5940   -2.6980 C.3   125  ILE125      0.0276
     97  CG1       11.7220   18.4040   -1.7410 C.3   125  ILE125      0.0022
     98  CG2       13.2130   20.2290   -2.6370 C.3   125  ILE125      0.0022
     99  CD1       12.0700   18.7340   -0.3190 C.3   125  ILE125      0.0001
    100  N         13.9170   24.7110   -4.5590 N.3   127  VAL127     -0.1245
    101  CA        15.2850   25.2130   -4.5400 C.3   127  VAL127      0.1561
    102  C         15.2520   26.5100   -5.3040 C.2   127  VAL127      0.2260
    103  O         14.8520   26.5280   -6.4820 O.2   127  VAL127     -0.2867
    104  CB        16.2950   24.2620   -5.1900 C.3   127  VAL127      0.0252
    105  CG1       17.6900   24.8290   -5.0820 C.3   127  VAL127      0.0019
    106  CG2       16.2380   22.8840   -4.5480 C.3   127  VAL127      0.0019
    107  N         16.9900   30.4970   -6.2620 N.3   129  ARG129     -0.1245
    108  CA        18.0800   31.4430   -6.3680 C.3   129  ARG129      0.1563
    109  C         17.6240   32.8340   -5.8670 C.2   129  ARG129      0.2260
    110  O         18.3970   33.7890   -5.8580 O.2   129  ARG129     -0.2867
    111  CB        18.5410   31.5030   -7.8350 C.3   129  ARG129      0.0307
    112  CG        19.0190   30.1570   -8.3910 C.3   129  ARG129      0.0489
    113  CD        18.7580   29.9650   -9.9100 C.3   129  ARG129      0.2205
    114  NE        17.5690   29.1640  -10.1770 N.pl3 129  ARG129     -0.0865
    115  CZ        17.0520   28.9930  -11.3780 C.cat 129  ARG129      0.5346
    116  NH1       17.6010   29.5950  -12.4280 N.pl3 129  ARG129      0.1354
    117  NH2       15.9620   28.2570  -11.5260 N.pl3 129  ARG129      0.1354
    118  N          9.4850   32.7230   -2.7580 N.3   135  TYR135     -0.1241
    119  CA         9.3430   31.4600   -3.4700 C.3   135  TYR135      0.1605
    120  C          8.3720   30.5350   -2.7370 C.2   135  TYR135      0.2264
    121  O          7.6210   29.8020   -3.3670 O.2   135  TYR135     -0.2867
    122  CB        10.7050   30.7770   -3.6420 C.3   135  TYR135      0.0534
    123  CG        10.6880   29.6280   -4.6250 C.ar  135  TYR135     -0.0201
    124  CD1       10.5480   29.8500   -5.9890 C.ar  135  TYR135     -0.0009
    125  CD2       10.8070   28.3250   -4.1940 C.ar  135  TYR135     -0.0009
    126  CE1       10.5260   28.7930   -6.8910 C.ar  135  TYR135      0.0417
    127  CE2       10.7950   27.2670   -5.0870 C.ar  135  TYR135      0.0417
    128  CZ        10.6540   27.5020   -6.4210 C.ar  135  TYR135      0.1957
    129  OH        10.6330   26.4380   -7.2890 O.3   135  TYR135     -0.2866
    130  N          4.9710   28.8050   -4.4370 N.3   139  LYS139     -0.1245
    131  CA         4.6530   27.3760   -4.3470 C.3   139  LYS139      0.1561
    132  C          3.3200   27.1660   -3.6590 C.2   139  LYS139      0.2260
    133  O          2.4840   26.3810   -4.1090 O.2   139  LYS139     -0.2867
    134  CB         5.7140   26.6220   -3.5450 C.3   139  LYS139      0.0271
    135  CG         7.0010   26.3370   -4.2690 C.3   139  LYS139      0.0035
    136  CD         6.7770   25.5410   -5.5420 C.3   139  LYS139      0.0206
    137  CE         8.0060   24.7300   -5.8340 C.3   139  LYS139      0.1093
    138  NZ         8.0620   24.2800   -7.2190 N.3   139  LYS139     -0.1314
@<TRIPOS>BOND
     1    17    16    2
     2    16    15    1
     3     9     8    2
     4     8     7    1
     5    14    15    1
     6    15    18    1
     7    10     7    1
     8    10    11    1
     9    13    12    1
    10     7     6    1
    11    18    19    1
    12    12    11    1
    13     6     3   am
    14     4     3    2
    15     3     2    1
    16    19    20   ar
    17    19    21   ar
    18    20    22   ar
    19     1     2    1
    20    34    33    1
    21     2     5    1
    22    32    33    1
    23    32    31    1
    24    21    23   ar
    25    22    24   ar
    26    30    31    1
    27    30    27    1
    28    26    27    1
    29    23    24   ar
    30    24    25    1
    31    27    28    1
    32    28    29    2
    33    47    45    1
    34    45    44    1
    35    44    46    1
    36    44    41    1
    37    35    36    1
    38    40    41    1
    39    40    37   am
    40    41    42    1
    41   116   115    1
    42    39    36    1
    43    42    43    2
    44    36    37    1
    45    73    72    1
    46    37    38    2
    47   117   115    1
    48   115   114    2
    49    66    64   ar
    50    72    74    1
    51    72    71    1
    52   114   113    1
    53    64    65   ar
    54    64    63    1
    55   113   112    1
    56    71    68    1
    57    60    61    2
    58    60    59    1
    59    67    68    1
    60    63    62    1
    61    59    62    1
    62    59    58    1
    63    68    69    1
    64   112   111    1
    65    48    49    1
    66    52    53    1
    67    52    49    1
    68    54    53   ar
    69    54    56   ar
    70    70    69    2
    71   111   108    1
    72    53    55   ar
    73    56    57   ar
    74    49    50    1
    75    50    51    2
    76   129   128    1
    77   138   137    1
    78    55    57   ar
    79   126   128   ar
    80   126   124   ar
    81    81    80   ar
    82   103   102    2
    83   128   127   ar
    84   108   107    1
    85   108   109    1
    86   124   123   ar
    87   109   110    2
    88   137   136    1
    89    91    89   ar
    90    80    82   ar
    91    80    79    1
    92   136   135    1
    93    90    89   ar
    94   102   101    1
    95   104   105    1
    96   104   106    1
    97   104   101    1
    98    89    88    1
    99   127   125   ar
   100    76    75    1
   101    76    79    1
   102    76    77    1
   103    78    77    2
   104   123   125   ar
   105   123   122    1
   106   100   101    1
   107    95    94    2
   108   130   131    1
   109   131   132    1
   110   131   134    1
   111   135   134    1
   112   133   132    2
   113    88    87    1
   114   122   119    1
   115   119   118    1
   116   119   120    1
   117   121   120    2
   118    94    93    1
   119    87    84    1
   120    96    98    1
   121    96    93    1
   122    96    97    1
   123    92    93    1
   124    92    85   am
   125    84    85    1
   126    84    83    1
   127    85    86    2
   128    97    99    1
