@<TRIPOS>MOLECULE
tmp/4ln8I00.pdb
 127 120 0 0 0
SMALL
GASTEIGER

@<TRIPOS>ATOM
      1  N        -12.0660  -21.6320  -11.0970 N.3    88  TYR88      -0.1241
      2  CA       -10.7060  -22.1170  -10.9660 C.3    88  TYR88       0.1605
      3  C        -10.0170  -21.3210   -9.8850 C.2    88  TYR88       0.2264
      4  O        -10.1420  -20.0780   -9.8340 O.2    88  TYR88      -0.2867
      5  CB        -9.9670  -21.8930  -12.2670 C.3    88  TYR88       0.0534
      6  CG        -8.6960  -22.6240  -12.4050 C.ar   88  TYR88      -0.0201
      7  CD1       -8.6660  -23.8900  -12.9290 C.ar   88  TYR88      -0.0009
      8  CD2       -7.4940  -22.0270  -12.0740 C.ar   88  TYR88      -0.0009
      9  CE1       -7.4680  -24.5660  -13.0940 C.ar   88  TYR88       0.0417
     10  CE2       -6.2950  -22.6840  -12.2600 C.ar   88  TYR88       0.0417
     11  CZ        -6.2850  -23.9590  -12.7620 C.ar   88  TYR88       0.1957
     12  OH        -5.0730  -24.6340  -12.9200 O.3    88  TYR88      -0.2866
     13  N         -8.9010  -23.7070  -23.6570 N.3   124  GLY124     -0.1210
     14  CA        -8.4970  -24.1950  -22.3510 C.3   124  GLY124      0.1956
     15  C         -9.7300  -24.2640  -21.4710 C.2   124  GLY124      0.2612
     16  O        -10.5090  -23.3280  -21.4460 O.2   124  GLY124     -0.2717
     17  N         -9.8800  -25.3640  -20.7470 N.am  125  ALA125     -0.1965
     18  CA       -10.9940  -25.5490  -19.8380 C.3   125  ALA125      0.1728
     19  C        -10.6160  -26.3150  -18.5790 C.2   125  ALA125      0.2617
     20  O         -9.5400  -26.8650  -18.4690 O.2   125  ALA125     -0.2715
     21  CB       -12.0990  -26.2810  -20.5520 C.3   125  ALA125      0.0334
     22  N        -11.5180  -26.3410  -17.6190 N.am  126  THR126     -0.1937
     23  CA       -11.2770  -27.0560  -16.3590 C.3   126  THR126      0.2028
     24  C        -12.5670  -27.6010  -15.7770 C.2   126  THR126      0.2642
     25  O        -13.6380  -27.0270  -15.9490 O.2   126  THR126     -0.2714
     26  CB       -10.5990  -26.1340  -15.3120 C.3   126  THR126      0.1808
     27  OG1      -10.5410  -26.7880  -14.0490 O.3   126  THR126     -0.2208
     28  CG2      -11.3690  -24.8860  -15.1190 C.3   126  THR126      0.0379
     29  N        -12.4680  -28.7220  -15.1030 N.am  127  SER127     -0.1949
     30  CA       -13.6100  -29.3170  -14.4280 C.3   127  SER127      0.1924
     31  C        -14.0270  -28.4760  -13.2160 C.2   127  SER127      0.2314
     32  O        -15.0850  -28.6800  -12.6540 O.2   127  SER127     -0.2863
     33  CB       -13.2590  -30.7380  -13.9710 C.3   127  SER127      0.2116
     34  OG       -12.0770  -30.7240  -13.1720 O.3   127  SER127     -0.2180
     35  N        -16.7650  -29.6810  -18.5220 N.3   134  SER134     -0.1217
     36  CA       -15.6600  -28.7510  -18.3800 C.3   134  SER134      0.1889
     37  C        -15.8650  -27.4860  -19.1760 C.2   134  SER134      0.2288
     38  O        -16.3750  -27.4950  -20.2730 O.2   134  SER134     -0.2866
     39  CB       -14.3430  -29.4090  -18.7520 C.3   134  SER134      0.2089
     40  OG       -13.9340  -30.2440  -17.6770 O.3   134  SER134     -0.2183
     41  N         -8.4930  -19.1000  -22.0250 N.3   142  TRP142     -0.1241
     42  CA        -7.2990  -19.7550  -21.5820 C.3   142  TRP142      0.1605
     43  C         -6.6050  -20.1770  -22.8290 C.2   142  TRP142      0.2264
     44  O         -7.0140  -21.1580  -23.4500 O.2   142  TRP142     -0.2867
     45  CB        -7.6660  -21.0050  -20.7940 C.3   142  TRP142      0.0550
     46  CG        -6.5470  -21.5640  -20.0190 C.ar  142  TRP142      0.0003
     47  CD1       -5.2370  -21.2580  -20.1340 C.ar  142  TRP142      0.0946
     48  CD2       -6.6480  -22.5180  -18.9860 C.ar  142  TRP142      0.0152
     49  NE1       -4.5180  -21.9700  -19.2380 N.ar  142  TRP142     -0.2442
     50  CE2       -5.3620  -22.7510  -18.5130 C.ar  142  TRP142      0.0810
     51  CE3       -7.7190  -23.1800  -18.3880 C.ar  142  TRP142      0.0012
     52  CZ2       -5.1020  -23.6110  -17.4640 C.ar  142  TRP142      0.0191
     53  CZ3       -7.4580  -24.0590  -17.3600 C.ar  142  TRP142      0.0001
     54  CH2       -6.1630  -24.2700  -16.9080 C.ar  142  TRP142      0.0015
     55  N         -3.4700  -21.7220  -24.9660 N.3   144  LEU144     -0.1245
     56  CA        -2.6000  -22.8660  -24.7680 C.3   144  LEU144      0.1561
     57  C         -1.8450  -23.1620  -26.0500 C.2   144  LEU144      0.2260
     58  O         -2.3170  -22.8270  -27.1190 O.2   144  LEU144     -0.2867
     59  CB        -3.4490  -24.0920  -24.5710 C.3   144  LEU144      0.0270
     60  CG        -3.8040  -24.6780  -23.2400 C.3   144  LEU144      0.0019
     61  CD1       -4.6470  -23.6940  -22.4630 C.3   144  LEU144      0.0001
     62  CD2       -4.5700  -25.9680  -23.5220 C.3   144  LEU144      0.0001
     63  N         -1.6330  -17.6340  -15.3590 N.3   174  HIS174     -0.1241
     64  CA        -1.7590  -18.9760  -14.8740 C.3   174  HIS174      0.1621
     65  C         -0.4880  -19.4460  -14.2250 C.2   174  HIS174      0.2264
     66  O          0.5670  -19.4810  -14.8520 O.2   174  HIS174     -0.2867
     67  CB        -2.1150  -19.9550  -15.9530 C.3   174  HIS174      0.0745
     68  CG        -2.3260  -21.3260  -15.4160 C.ar  174  HIS174      0.0817
     69  ND1       -1.7060  -22.4310  -15.9350 N.ar  174  HIS174     -0.2268
     70  CD2       -3.0810  -21.7670  -14.3850 C.ar  174  HIS174      0.1154
     71  CE1       -2.0870  -23.5040  -15.2670 C.ar  174  HIS174      0.1986
     72  NE2       -2.9250  -23.1280  -14.3230 N.ar  174  HIS174     -0.2212
     73  N          1.2190  -26.0210  -11.4850 N.3   177  VAL177     -0.1231
     74  CA         1.6710  -26.7570  -10.3130 C.3   177  VAL177      0.1692
     75  C          3.1910  -27.0140  -10.3390 C.2   177  VAL177      0.2592
     76  O          3.8510  -27.0040   -9.2900 O.2   177  VAL177     -0.2718
     77  CB         0.8640  -28.0640  -10.1400 C.3   177  VAL177      0.0266
     78  CG1        1.2040  -29.0730  -11.2230 C.3   177  VAL177      0.0020
     79  CG2        1.1010  -28.6470   -8.7530 C.3   177  VAL177      0.0020
     80  N          3.7250  -27.2260  -11.5390 N.am  178  SER178     -0.1952
     81  CA         5.1320  -27.5990  -11.7640 C.3   178  SER178      0.1924
     82  C          5.6100  -27.0650  -13.1070 C.2   178  SER178      0.2314
     83  O          4.8320  -26.9580  -14.0360 O.2   178  SER178     -0.2863
     84  CB         5.2850  -29.1250  -11.7580 C.3   178  SER178      0.2116
     85  OG         4.5630  -29.7770  -12.8100 O.3   178  SER178     -0.2180
     86  N          4.2560  -29.0810  -15.7890 N.3   181  GLU181     -0.1245
     87  CA         2.9090  -28.7780  -16.2560 C.3   181  GLU181      0.1567
     88  C          2.9500  -27.5250  -17.1170 C.2   181  GLU181      0.2260
     89  O          2.3760  -27.4800  -18.1970 O.2   181  GLU181     -0.2867
     90  CB         1.9260  -28.6060  -15.0850 C.3   181  GLU181      0.0388
     91  CG         0.4690  -28.3210  -15.4830 C.3   181  GLU181      0.1160
     92  CD        -0.4770  -28.1100  -14.2880 C.2   181  GLU181      0.3649
     93  OE1       -0.4990  -26.9940  -13.6880 O.co2 181  GLU181     -0.2457
     94  OE2       -1.2200  -29.0720  -13.9490 O.co2 181  GLU181     -0.2457
     95  N          3.8710  -28.6320  -20.5970 N.3   184  LYS184     -0.1231
     96  CA         2.7840  -29.2940  -21.2570 C.3   184  LYS184      0.1693
     97  C          1.8610  -28.2350  -21.9160 C.2   184  LYS184      0.2591
     98  O          1.5000  -28.3670  -23.0700 O.2   184  LYS184     -0.2718
     99  CB         2.0370  -30.1480  -20.2180 C.3   184  LYS184      0.0285
    100  CG         0.8920  -31.0110  -20.7260 C.3   184  LYS184      0.0035
    101  CD         0.0460  -31.5330  -19.5680 C.3   184  LYS184      0.0206
    102  CE        -1.2520  -32.1290  -20.0880 C.3   184  LYS184      0.1093
    103  NZ        -1.9550  -32.9500  -19.0710 N.3   184  LYS184     -0.1314
    104  N          1.5090  -27.1810  -21.1890 N.am  185  LEU185     -0.1980
    105  CA         0.4910  -26.2450  -21.6500 C.3   185  LEU185      0.1596
    106  C          1.0470  -25.2500  -22.6270 C.2   185  LEU185      0.2287
    107  O          0.4470  -25.0420  -23.6640 O.2   185  LEU185     -0.2864
    108  CB        -0.1250  -25.4490  -20.4930 C.3   185  LEU185      0.0297
    109  CG        -0.7960  -26.2110  -19.3600 C.3   185  LEU185      0.0022
    110  CD1       -1.6250  -25.2520  -18.5170 C.3   185  LEU185      0.0001
    111  CD2       -1.6650  -27.3280  -19.8670 C.3   185  LEU185      0.0001
    112  N         -9.5270  -29.9980   -5.4680 N.3   216  GLY216     -0.1210
    113  CA        -8.6770  -30.9830   -6.1220 C.3   216  GLY216      0.1956
    114  C         -7.6220  -30.4350   -7.0850 C.2   216  GLY216      0.2611
    115  O         -6.8560  -31.2360   -7.6300 O.2   216  GLY216     -0.2717
    116  N         -7.5610  -29.1080   -7.3260 N.am  217  LEU217     -0.1979
    117  CA        -6.4920  -28.5040   -8.2040 C.3   217  LEU217      0.1596
    118  C         -5.4550  -27.6430   -7.4860 C.2   217  LEU217      0.2287
    119  O         -5.7760  -26.8190   -6.6090 O.2   217  LEU217     -0.2864
    120  CB        -7.0970  -27.5920   -9.2610 C.3   217  LEU217      0.0297
    121  CG        -8.3610  -28.0380   -9.9820 C.3   217  LEU217      0.0022
    122  CD1       -8.5800  -27.0330  -11.0910 C.3   217  LEU217      0.0001
    123  CD2       -8.2150  -29.4510  -10.5430 C.3   217  LEU217      0.0001
    124  N         -3.4430  -25.6420   -9.3020 N.3   219  GLY219     -0.1225
    125  CA        -3.2090  -24.5150  -10.1800 C.3   219  GLY219      0.1811
    126  C         -3.8950  -23.2990   -9.5910 C.2   219  GLY219      0.2280
    127  O         -4.7630  -23.4100   -8.7120 O.2   219  GLY219     -0.2866
@<TRIPOS>BOND
     1    58    57    2
     2    57    56    1
     3    55    56    1
     4    56    59    1
     5    59    60    1
     6   107   106    2
     7    13    14    1
     8    62    60    1
     9    44    43    2
    10    60    61    1
    11    98    97    2
    12    43    42    1
    13   106   105    1
    14    14    15    1
    15    41    42    1
    16    97    96    1
    17    97   104   am
    18   105   104    1
    19   105   108    1
    20    42    45    1
    21    15    16    2
    22    15    17   am
    23    96    95    1
    24    96    99    1
    25    45    46    1
    26    17    18    1
    27   100    99    1
    28   100   101    1
    29    21    18    1
    30   108   109    1
    31    38    37    2
    32    47    46   ar
    33    47    49   ar
    34   102   101    1
    35   102   103    1
    36    46    48   ar
    37   111   109    1
    38    18    19    1
    39   109   110    1
    40    49    50   ar
    41    37    36    1
    42    48    50   ar
    43    48    51   ar
    44    39    36    1
    45    39    40    1
    46    19    20    2
    47    19    22   am
    48    35    36    1
    49    50    52   ar
    50    51    53   ar
    51    89    88    2
    52    22    23    1
    53    52    54   ar
    54    53    54   ar
    55    88    87    1
    56    23    24    1
    57    23    26    1
    58    87    86    1
    59    87    90    1
    60    67    68    1
    61    67    64    1
    62    25    24    2
    63    69    68   ar
    64    69    71   ar
    65    24    29   am
    66    91    90    1
    67    91    92    1
    68    68    70   ar
    69    63    64    1
    70    26    28    1
    71    26    27    1
    72    71    72   ar
    73    29    30    1
    74    64    65    1
    75    66    65    2
    76    30    33    1
    77    30    31    1
    78    70    72   ar
    79    92    94   ar
    80    92    93   ar
    81    83    82    2
    82    33    34    1
    83    31    32    2
    84    82    81    1
    85     9     7   ar
    86     9    11   ar
    87     7     6   ar
    88    12    11    1
    89    85    84    1
    90    11    10   ar
    91     6     5    1
    92     6     8   ar
    93     5     2    1
    94    10     8   ar
    95    81    84    1
    96    81    80    1
    97    80    75   am
    98    73    74    1
    99    78    77    1
   100     1     2    1
   101   122   121    1
   102     2     3    1
   103   123   121    1
   104    75    74    1
   105    75    76    2
   106    74    77    1
   107   125   126    1
   108   125   124    1
   109    77    79    1
   110   121   120    1
   111     3     4    2
   112   126   127    2
   113   120   117    1
   114   117   118    1
   115   117   116    1
   116   115   114    2
   117   118   119    2
   118   116   114   am
   119   114   113    1
   120   113   112    1
