@<TRIPOS>MOLECULE
tmp/4lnaA00.pdb
 99 92 0 0 0
SMALL
GASTEIGER

@<TRIPOS>ATOM
      1  N        -12.3790    5.8750   18.1940 N.3   105  ALA105     -0.1231
      2  CA       -11.4960    5.5420   19.3090 C.3   105  ALA105      0.1694
      3  C        -10.0740    5.5490   18.7780 C.2   105  ALA105      0.2592
      4  O         -9.8410    5.1640   17.6400 O.2   105  ALA105     -0.2718
      5  CB       -11.8420    4.1770   19.8940 C.3   105  ALA105      0.0304
      6  N         -9.1190    6.0040   19.5900 N.am  106  ALA106     -0.1966
      7  CA        -7.7270    6.0510   19.1480 C.3   106  ALA106      0.1728
      8  C         -6.7860    5.8060   20.3110 C.2   106  ALA106      0.2616
      9  O         -7.1600    6.0370   21.4610 O.2   106  ALA106     -0.2715
     10  CB        -7.4230    7.3920   18.4950 C.3   106  ALA106      0.0334
     11  N         -5.5790    5.3260   20.0000 N.am  107  GLY107     -0.1955
     12  CA        -4.4770    5.2760   20.9580 C.3   107  GLY107      0.1869
     13  C         -3.8150    6.6420   21.1360 C.2   107  GLY107      0.2309
     14  O         -3.5080    7.3050   20.1590 O.2   107  GLY107     -0.2863
     15  N         -3.9900    4.0430   10.4370 N.3   177  VAL177     -0.1245
     16  CA        -3.2910    2.8260   10.0600 C.3   177  VAL177      0.1561
     17  C         -4.3760    1.8330    9.6410 C.2   177  VAL177      0.2260
     18  O         -5.5580    2.0520    9.9340 O.2   177  VAL177     -0.2867
     19  CB        -2.3940    2.2890   11.1970 C.3   177  VAL177      0.0252
     20  CG1       -1.2680    3.2870   11.4940 C.3   177  VAL177      0.0019
     21  CG2       -3.2260    1.9500   12.4450 C.3   177  VAL177      0.0019
     22  N         -3.9250   -5.5810   13.6630 N.3   181  GLN181     -0.1231
     23  CA        -2.9930   -5.6880   14.8020 C.3   181  GLN181      0.1698
     24  C         -2.6550   -4.2890   15.3390 C.2   181  GLN181      0.2592
     25  O         -2.6770   -3.3060   14.5890 O.2   181  GLN181     -0.2718
     26  CB        -1.7170   -6.5050   14.4760 C.3   181  GLN181      0.0381
     27  CG        -0.5420   -5.7610   13.8170 C.3   181  GLN181      0.0905
     28  CD        -0.8050   -5.2770   12.3950 C.2   181  GLN181      0.2608
     29  OE1       -1.7740   -5.6890   11.7340 O.2   181  GLN181     -0.2717
     30  NE2        0.0860   -4.4150   11.9010 N.am  181  GLN181     -0.0878
     31  N         -2.4090   -4.1900   16.6420 N.am  182  LEU182     -0.1966
     32  CA        -2.0330   -2.9030   17.2360 C.3   182  LEU182      0.1728
     33  C         -0.5740   -2.6080   16.8800 C.2   182  LEU182      0.2616
     34  O          0.0830   -3.4240   16.2550 O.2   182  LEU182     -0.2715
     35  CB        -2.2440   -2.9420   18.7560 C.3   182  LEU182      0.0311
     36  CG        -3.7240   -3.1450   19.1310 C.3   182  LEU182      0.0022
     37  CD1       -3.8670   -3.5050   20.6040 C.3   182  LEU182      0.0001
     38  CD2       -4.5370   -1.9120   18.8130 C.3   182  LEU182      0.0001
     39  N         -0.0740   -1.4350   17.2450 N.am  183  GLU183     -0.1977
     40  CA         1.2420   -1.0300   16.7780 C.3   183  GLU183      0.1602
     41  C          2.3160   -1.5390   17.7330 C.2   183  GLU183      0.2287
     42  O          2.0420   -1.7380   18.9380 O.2   183  GLU183     -0.2864
     43  CB         1.3190    0.4930   16.6600 C.3   183  GLU183      0.0415
     44  CG         0.4240    1.0910   15.5780 C.3   183  GLU183      0.1163
     45  CD        -1.0530    1.0140   15.9450 C.2   183  GLU183      0.3649
     46  OE1       -1.8440    0.5660   15.0870 O.co2 183  GLU183     -0.2457
     47  OE2       -1.4140    1.3490   17.1100 O.co2 183  GLU183     -0.2457
     48  N          4.9510    3.0040   17.4990 N.3   188  TYR188     -0.1241
     49  CA         4.4660    4.1360   18.3050 C.3   188  TYR188      0.1605
     50  C          5.5000    5.2590   18.3800 C.2   188  TYR188      0.2264
     51  O          5.1590    6.4280   18.2380 O.2   188  TYR188     -0.2867
     52  CB         4.0870    3.6840   19.7400 C.3   188  TYR188      0.0534
     53  CG         2.8020    2.8920   19.8030 C.ar  188  TYR188     -0.0201
     54  CD1        1.6240    3.3890   19.2210 C.ar  188  TYR188     -0.0009
     55  CD2        2.7430    1.6640   20.4710 C.ar  188  TYR188     -0.0009
     56  CE1        0.4430    2.6890   19.2950 C.ar  188  TYR188      0.0417
     57  CE2        1.5570    0.9470   20.5390 C.ar  188  TYR188      0.0417
     58  CZ         0.4180    1.4660   19.9500 C.ar  188  TYR188      0.1957
     59  OH        -0.7600    0.7680   19.9920 O.3   188  TYR188     -0.2866
     60  N         -3.5330    7.6490   17.1520 N.3   198  VAL198     -0.1231
     61  CA        -3.5100    6.7180   16.0230 C.3   198  VAL198      0.1692
     62  C         -4.7790    5.8470   16.0810 C.2   198  VAL198      0.2592
     63  O         -5.1720    5.3810   17.1580 O.2   198  VAL198     -0.2718
     64  CB        -2.2480    5.8190   16.0580 C.3   198  VAL198      0.0266
     65  CG1       -2.0340    5.2060   17.4600 C.3   198  VAL198      0.0020
     66  CG2       -2.3370    4.7100   14.9970 C.3   198  VAL198      0.0020
     67  N         -5.4310    5.6460   14.9390 N.am  199  GLY199     -0.1957
     68  CA        -6.6280    4.8080   14.8940 C.3   199  GLY199      0.1869
     69  C         -6.7410    4.1120   13.5570 C.2   199  GLY199      0.2309
     70  O         -5.8980    4.3050   12.6650 O.2   199  GLY199     -0.2863
     71  N         -8.6000    5.8300   24.0840 N.3   221  THR221     -0.1203
     72  CA        -9.0810    4.6230   24.7660 C.3   221  THR221      0.1994
     73  C         -7.9410    3.8640   25.4290 C.2   221  THR221      0.2617
     74  O         -8.1800    3.0200   26.2870 O.2   221  THR221     -0.2717
     75  CB        -9.8270    3.6560   23.8120 C.3   221  THR221      0.1784
     76  OG1       -9.0450    3.4440   22.6260 O.3   221  THR221     -0.2211
     77  CG2      -11.1870    4.2090   23.4210 C.3   221  THR221      0.0376
     78  N         -6.7070    4.1800   25.0420 N.am  222  ASP222     -0.1973
     79  CA        -5.5320    3.4760   25.5510 C.3   222  ASP222      0.1709
     80  C         -4.3110    4.3220   25.2930 C.2   222  ASP222      0.2293
     81  O         -4.2810    5.1030   24.3390 O.2   222  ASP222     -0.2864
     82  CB        -5.3590    2.1030   24.8800 C.3   222  ASP222      0.1436
     83  CG        -5.3690    2.1850   23.3480 C.2   222  ASP222      0.3671
     84  OD1       -6.4440    2.5040   22.7730 O.co2 222  ASP222     -0.2456
     85  OD2       -4.3080    1.9020   22.7270 O.co2 222  ASP222     -0.2456
     86  N         -0.2770    4.9540   24.5200 N.3   224  CYS224     -0.1235
     87  CA         0.7250    4.3730   23.6400 C.3   224  CYS224      0.1677
     88  C          2.0540    5.1060   23.8340 C.2   224  CYS224      0.2270
     89  O          2.6070    5.7080   22.9030 O.2   224  CYS224     -0.2867
     90  CB         0.2420    4.4770   22.1930 C.3   224  CYS224      0.0956
     91  SG        -1.3660    3.6930   21.9150 S.3   224  CYS224     -0.0801
     92  N        -10.6080   -1.3380   25.9890 N.3   237  ILE237     -0.1245
     93  CA       -10.7490   -0.2400   25.0340 C.3   237  ILE237      0.1561
     94  C        -12.2140    0.1650   24.8730 C.2   237  ILE237      0.2260
     95  O        -12.5610    1.3680   24.9140 O.2   237  ILE237     -0.2867
     96  CB       -10.0820   -0.6020   23.6750 C.3   237  ILE237      0.0252
     97  CG1       -8.5460   -0.5230   23.8210 C.3   237  ILE237      0.0019
     98  CG2      -10.5800    0.3100   22.5660 C.3   237  ILE237      0.0019
     99  CD1       -7.7350   -1.0580   22.6390 C.3   237  ILE237      0.0001
@<TRIPOS>BOND
     1    17    18    2
     2    17    16    1
     3    16    15    1
     4    16    19    1
     5    19    20    1
     6    19    21    1
     7    29    28    2
     8    30    28   am
     9    28    27    1
    10    70    69    2
    11    69    68    1
    12    22    23    1
    13    27    26    1
    14    26    23    1
    15    25    24    2
    16    23    24    1
    17    68    67    1
    18    67    62   am
    19    66    64    1
    20    46    45   ar
    21    24    31   am
    22    44    45    1
    23    44    43    1
    24    45    47   ar
    25    61    64    1
    26    61    62    1
    27    61    60    1
    28    64    65    1
    29    62    63    2
    30    34    33    2
    31    31    32    1
    32    43    40    1
    33    40    39    1
    34    40    41    1
    35    33    32    1
    36    33    39   am
    37    32    35    1
    38    48    49    1
    39     4     3    2
    40    41    42    2
    41     1     2    1
    42    51    50    2
    43    49    50    1
    44    49    52    1
    45    10     7    1
    46    35    36    1
    47     3     2    1
    48     3     6   am
    49    38    36    1
    50    36    37    1
    51     7     6    1
    52     7     8    1
    53    54    56   ar
    54    54    53   ar
    55    56    58   ar
    56     2     5    1
    57    52    53    1
    58    53    55   ar
    59    58    59    1
    60    58    57   ar
    61    11     8   am
    62    11    12    1
    63    14    13    2
    64     8     9    2
    65    55    57   ar
    66    12    13    1
    67    91    90    1
    68    90    87    1
    69    98    96    1
    70    76    75    1
    71    99    97    1
    72    85    83   ar
    73    84    83   ar
    74    89    88    2
    75    83    82    1
    76    77    75    1
    77    87    88    1
    78    87    86    1
    79    96    97    1
    80    96    93    1
    81    75    72    1
    82    71    72    1
    83    81    80    2
    84    72    73    1
    85    94    95    2
    86    94    93    1
    87    82    79    1
    88    93    92    1
    89    78    73   am
    90    78    79    1
    91    80    79    1
    92    73    74    2
