@<TRIPOS>MOLECULE
tmp/4lnbB01.pdb
 193 189 0 0 0
SMALL
GASTEIGER

@<TRIPOS>ATOM
      1  N         24.2430    6.6950  -13.4310 N.3    76  SER76      -0.1202
      2  CA        24.9530    6.9660  -12.1870 C.3    76  SER76       0.2020
      3  C         24.7890    5.8580  -11.1450 C.2    76  SER76       0.2618
      4  O         25.5410    5.8010  -10.1730 O.2    76  SER76      -0.2717
      5  CB        24.5040    8.3070  -11.6020 C.3    76  SER76       0.2103
      6  OG        23.1190    8.2910  -11.3070 O.3    76  SER76      -0.2182
      7  N         23.8120    4.9770  -11.3470 N.am   77  PHE77      -0.1975
      8  CA        23.5560    3.8910  -10.4000 C.3    77  PHE77       0.1639
      9  C         24.2900    2.6000  -10.7510 C.2    77  PHE77       0.2290
     10  O         23.8960    1.5160  -10.3160 O.2    77  PHE77      -0.2864
     11  CB        22.0530    3.6230  -10.2860 C.3    77  PHE77       0.0560
     12  CG        21.3090    4.6830   -9.5310 C.ar   77  PHE77      -0.0200
     13  CD1       20.9490    4.4850   -8.2070 C.ar   77  PHE77      -0.0042
     14  CD2       20.9820    5.8830  -10.1380 C.ar   77  PHE77      -0.0042
     15  CE1       20.2690    5.4630   -7.5060 C.ar   77  PHE77      -0.0003
     16  CE2       20.3040    6.8640   -9.4420 C.ar   77  PHE77      -0.0003
     17  CZ        19.9480    6.6530   -8.1240 C.ar   77  PHE77      -0.0000
     18  N         26.8720    1.1780   -9.7230 N.3    79  ALA79      -0.1231
     19  CA        27.3450    0.3620   -8.6000 C.3    79  ALA79       0.1694
     20  C         26.3530   -0.7270   -8.1680 C.2    79  ALA79       0.2591
     21  O         26.7260   -1.6690   -7.4690 O.2    79  ALA79      -0.2718
     22  CB        27.7150    1.2430   -7.4140 C.3    79  ALA79       0.0304
     23  N         25.0970   -0.5960   -8.5840 N.am   80  LEU80      -0.1980
     24  CA        24.0740   -1.5890   -8.2600 C.3    80  LEU80       0.1596
     25  C         24.0470   -2.7530   -9.2520 C.2    80  LEU80       0.2287
     26  O         23.2730   -3.6950   -9.0820 O.2    80  LEU80      -0.2864
     27  CB        22.6900   -0.9340   -8.1980 C.3    80  LEU80       0.0297
     28  CG        22.4710    0.1070   -7.0990 C.3    80  LEU80       0.0022
     29  CD1       21.0760    0.7090   -7.1960 C.3    80  LEU80       0.0001
     30  CD2       22.6990   -0.5100   -5.7290 C.3    80  LEU80       0.0001
     31  N         24.1260   -6.1250   -7.9920 N.3    83  SER83      -0.1217
     32  CA        23.1330   -6.3380   -6.9420 C.3    83  SER83       0.1889
     33  C         21.6980   -6.3020   -7.4550 C.2    83  SER83       0.2288
     34  O         20.7550   -6.2230   -6.6710 O.2    83  SER83      -0.2866
     35  CB        23.3120   -5.3050   -5.8290 C.3    83  SER83       0.2089
     36  OG        24.5690   -5.4640   -5.1940 O.3    83  SER83      -0.2183
     37  N         19.1630   -8.5770   -5.8440 N.3    86  TRP86      -0.1227
     38  CA        18.7550   -8.0710   -4.5320 C.3    86  TRP86       0.1737
     39  C         17.6720   -7.0090   -4.6690 C.2    86  TRP86       0.2595
     40  O         16.7260   -6.9650   -3.8800 O.2    86  TRP86      -0.2718
     41  CB        19.9390   -7.4580   -3.7830 C.3    86  TRP86       0.0564
     42  CG        20.7890   -8.4260   -3.0260 C.ar   86  TRP86       0.0003
     43  CD1       22.1260   -8.6460   -3.1940 C.ar   86  TRP86       0.0946
     44  CD2       20.3710   -9.2910   -1.9600 C.ar   86  TRP86       0.0152
     45  NE1       22.5650   -9.5950   -2.3040 N.ar   86  TRP86      -0.2442
     46  CE2       21.5070  -10.0110   -1.5380 C.ar   86  TRP86       0.0810
     47  CE3       19.1470   -9.5300   -1.3280 C.ar   86  TRP86       0.0012
     48  CZ2       21.4560  -10.9530   -0.5130 C.ar   86  TRP86       0.0191
     49  CZ3       19.0980  -10.4660   -0.3060 C.ar   86  TRP86       0.0001
     50  CH2       20.2460  -11.1640    0.0920 C.ar   86  TRP86       0.0015
     51  N         17.8340   -6.1380   -5.6590 N.am   87  MET87      -0.1979
     52  CA        16.8830   -5.0600   -5.9200 C.3    87  MET87       0.1605
     53  C         15.4890   -5.6130   -6.1620 C.2    87  MET87       0.2287
     54  O         14.4900   -5.0620   -5.6960 O.2    87  MET87      -0.2864
     55  CB        17.3280   -4.2530   -7.1400 C.3    87  MET87       0.0413
     56  CG        18.6190   -3.4870   -6.9360 C.3    87  MET87       0.0598
     57  SD        18.3780   -2.0900   -5.8330 S.3    87  MET87      -0.1393
     58  CE        17.1120   -1.2010   -6.7230 C.3    87  MET87       0.0692
     59  N         14.2700   -7.1940   -2.6330 N.3    90  TRP90      -0.1241
     60  CA        13.9100   -6.1880   -1.6340 C.3    90  TRP90       0.1605
     61  C         12.5460   -5.5710   -1.9330 C.2    90  TRP90       0.2264
     62  O         11.7300   -5.3730   -1.0330 O.2    90  TRP90      -0.2867
     63  CB        14.9600   -5.0750   -1.5720 C.3    90  TRP90       0.0550
     64  CG        16.3080   -5.5160   -1.0840 C.ar   90  TRP90       0.0003
     65  CD1       16.5750   -6.5010   -0.1790 C.ar   90  TRP90       0.0946
     66  CD2       17.5770   -4.9790   -1.4790 C.ar   90  TRP90       0.0152
     67  NE1       17.9320   -6.6060    0.0190 N.ar   90  TRP90      -0.2442
     68  CE2       18.5690   -5.6870   -0.7740 C.ar   90  TRP90       0.0810
     69  CE3       17.9680   -3.9690   -2.3650 C.ar   90  TRP90       0.0012
     70  CZ2       19.9300   -5.4170   -0.9250 C.ar   90  TRP90       0.0191
     71  CZ3       19.3220   -3.7030   -2.5150 C.ar   90  TRP90       0.0001
     72  CH2       20.2840   -4.4240   -1.7990 C.ar   90  TRP90       0.0015
     73  N         35.0310  -14.6940   -0.9930 N.3   181  GLU181     -0.1245
     74  CA        35.2210  -14.7690    0.4500 C.3   181  GLU181      0.1567
     75  C         34.4160  -15.8990    1.0880 C.2   181  GLU181      0.2260
     76  O         33.3530  -16.2750    0.5970 O.2   181  GLU181     -0.2867
     77  CB        34.8550  -13.4360    1.1070 C.3   181  GLU181      0.0388
     78  CG        33.4160  -12.9880    0.8750 C.3   181  GLU181      0.1160
     79  CD        33.2390  -12.1550   -0.3930 C.2   181  GLU181      0.3649
     80  OE1       33.9750  -12.3780   -1.3770 O.co2 181  GLU181     -0.2457
     81  OE2       32.3530  -11.2720   -0.4020 O.co2 181  GLU181     -0.2457
     82  N         32.3640  -16.5940    4.3670 N.3   183  ASP183     -0.1239
     83  CA        31.7740  -16.0640    5.5910 C.3   183  ASP183      0.1674
     84  C         30.4240  -16.7170    5.8730 C.2   183  ASP183      0.2266
     85  O         29.9210  -17.4760    5.0420 O.2   183  ASP183     -0.2867
     86  CB        31.6940  -14.5280    5.5720 C.3   183  ASP183      0.1410
     87  CG        30.9010  -13.9810    4.3970 C.2   183  ASP183      0.3668
     88  OD1       29.8760  -14.5820    4.0150 O.co2 183  ASP183     -0.2456
     89  OD2       31.3060  -12.9270    3.8580 O.co2 183  ASP183     -0.2456
     90  N         27.5020  -15.5450    5.9480 N.3   185  ARG185     -0.1245
     91  CA        26.5020  -15.1270    4.9730 C.3   185  ARG185      0.1563
     92  C         26.4730  -16.1410    3.8340 C.2   185  ARG185      0.2260
     93  O         25.4060  -16.5260    3.3530 O.2   185  ARG185     -0.2867
     94  CB        26.8360  -13.7310    4.4370 C.3   185  ARG185      0.0307
     95  CG        26.2530  -13.4340    3.0690 C.3   185  ARG185      0.0489
     96  CD        26.8650  -12.1820    2.4600 C.3   185  ARG185      0.2205
     97  NE        28.3100  -12.3050    2.2880 N.pl3 185  ARG185     -0.0865
     98  CZ        28.9980  -11.7210    1.3130 C.cat 185  ARG185      0.5346
     99  NH1       28.3730  -10.9780    0.4100 N.pl3 185  ARG185      0.1354
    100  NH2       30.3120  -11.8850    1.2360 N.pl3 185  ARG185      0.1354
    101  N         28.5510   -9.5170   15.1780 N.3   244  HIS244     -0.1241
    102  CA        27.6800   -8.6070   14.4410 C.3   244  HIS244      0.1621
    103  C         26.2960   -9.2000   14.2220 C.2   244  HIS244      0.2264
    104  O         26.1650  -10.3700   13.8680 O.2   244  HIS244     -0.2867
    105  CB        28.2990   -8.2420   13.0930 C.3   244  HIS244      0.0745
    106  CG        27.7200   -7.0030   12.4870 C.ar  244  HIS244      0.0817
    107  ND1       26.4560   -6.9610   11.9420 N.ar  244  HIS244     -0.2268
    108  CD2       28.2300   -5.7550   12.3560 C.ar  244  HIS244      0.1154
    109  CE1       26.2120   -5.7420   11.4970 C.ar  244  HIS244      0.1986
    110  NE2       27.2710   -4.9900   11.7370 N.ar  244  HIS244     -0.2212
    111  N         25.4310  -11.2300   11.0200 N.3   247  TYR247     -0.1241
    112  CA        26.0230  -12.5590   11.0090 C.3   247  TYR247      0.1605
    113  C         25.3890  -13.4690   12.0580 C.2   247  TYR247      0.2264
    114  O         25.3240  -14.6860   11.8800 O.2   247  TYR247     -0.2867
    115  CB        27.5310  -12.4590   11.2080 C.3   247  TYR247      0.0534
    116  CG        28.2370  -11.7700   10.0620 C.ar  247  TYR247     -0.0201
    117  CD1       28.0050  -12.1550    8.7450 C.ar  247  TYR247     -0.0009
    118  CD2       29.1220  -10.7230   10.2920 C.ar  247  TYR247     -0.0009
    119  CE1       28.6570  -11.5330    7.6920 C.ar  247  TYR247      0.0417
    120  CE2       29.7770  -10.0980    9.2450 C.ar  247  TYR247      0.0417
    121  CZ        29.5350  -10.5030    7.9490 C.ar  247  TYR247      0.1957
    122  OH        30.1830   -9.8770    6.9060 O.3   247  TYR247     -0.2866
    123  N         20.1380    1.1650   13.5370 N.3   298  ASP298     -0.1239
    124  CA        19.9050    1.1550   12.0970 C.3   298  ASP298      0.1674
    125  C         18.6560    0.3210   11.8590 C.2   298  ASP298      0.2266
    126  O         18.5450   -0.8010   12.3530 O.2   298  ASP298     -0.2867
    127  CB        21.1260    0.5610   11.3770 C.3   298  ASP298      0.1410
    128  CG        20.9490    0.4590    9.8610 C.2   298  ASP298      0.3668
    129  OD1       19.8100    0.4870    9.3460 O.co2 298  ASP298     -0.2456
    130  OD2       21.9820    0.3280    9.1720 O.co2 298  ASP298     -0.2456
    131  N         17.5730   -1.4230    9.4610 N.3   300  CYS300     -0.1221
    132  CA        17.6550   -2.7260    8.7990 C.3   300  CYS300      0.1808
    133  C         17.9080   -3.8510    9.8020 C.2   300  CYS300      0.2601
    134  O         17.5800   -5.0140    9.5430 O.2   300  CYS300     -0.2717
    135  CB        18.7020   -2.7360    7.6770 C.3   300  CYS300      0.0970
    136  SG        20.4180   -2.6790    8.2270 S.3   300  CYS300     -0.0800
    137  N         18.4640   -3.5060   10.9590 N.am  301  TYR301     -0.1976
    138  CA        18.6940   -4.5040   12.0030 C.3   301  TYR301      0.1639
    139  C         17.3890   -4.8910   12.6970 C.2   301  TYR301      0.2290
    140  O         17.3570   -5.8320   13.4870 O.2   301  TYR301     -0.2864
    141  CB        19.7520   -4.0290   13.0090 C.3   301  TYR301      0.0560
    142  CG        21.0910   -3.7790   12.3570 C.ar  301  TYR301     -0.0198
    143  CD1       21.6120   -4.6840   11.4380 C.ar  301  TYR301     -0.0009
    144  CD2       21.8140   -2.6240   12.6200 C.ar  301  TYR301     -0.0009
    145  CE1       22.8330   -4.4590   10.8150 C.ar  301  TYR301      0.0417
    146  CE2       23.0410   -2.3860   11.9960 C.ar  301  TYR301      0.0417
    147  CZ        23.5400   -3.3090   11.0990 C.ar  301  TYR301      0.1957
    148  OH        24.7480   -3.0820   10.4780 O.3   301  TYR301     -0.2866
    149  N         17.6530    3.9470    7.0930 N.3   353  ASP353     -0.1239
    150  CA        18.5880    3.5530    8.1370 C.3   353  ASP353      0.1674
    151  C         18.2610    4.2930    9.4350 C.2   353  ASP353      0.2266
    152  O         17.9650    3.6820   10.4640 O.2   353  ASP353     -0.2867
    153  CB        20.0030    3.8980    7.6240 C.3   353  ASP353      0.1410
    154  CG        21.1040    3.7640    8.6780 C.2   353  ASP353      0.3668
    155  OD1       20.8340    3.5920    9.8850 O.co2 353  ASP353     -0.2456
    156  OD2       22.2840    3.8650    8.2720 O.co2 353  ASP353     -0.2456
    157  N         16.0510    7.4080    2.0340 N.3   359  PRO359     -0.2102
    158  CA        15.5230    6.0420    2.0230 C.3   359  PRO359      0.1504
    159  C         16.1470    5.2110    0.9100 C.2   359  PRO359      0.2575
    160  O         16.7130    5.7620   -0.0350 O.2   359  PRO359     -0.2718
    161  CB        14.0370    6.2490    1.7280 C.3   359  PRO359      0.0282
    162  CG        13.9940    7.5160    0.9300 C.3   359  PRO359      0.0208
    163  CD        15.0830    8.3870    1.5060 C.3   359  PRO359      0.0893
    164  N         16.0520    3.8940    1.0330 N.am  360  ASP360     -0.1974
    165  CA        16.4120    2.9960   -0.0570 C.3   360  ASP360      0.1708
    166  C         15.5850    1.7260    0.0690 C.2   360  ASP360      0.2293
    167  O         14.9670    1.4900    1.1110 O.2   360  ASP360     -0.2864
    168  CB        17.9180    2.7000   -0.0810 C.3   360  ASP360      0.1436
    169  CG        18.4080    2.0340    1.1870 C.2   360  ASP360      0.3671
    170  OD1       19.1110    2.6960    1.9810 O.co2 360  ASP360     -0.2456
    171  OD2       18.1030    0.8420    1.3830 O.co2 360  ASP360     -0.2456
    172  N         16.4750   -1.3930    0.1970 N.3   362  TYR362     -0.1227
    173  CA        17.0600   -2.3290    1.1610 C.3   362  TYR362      0.1736
    174  C         16.5410   -2.0300    2.5650 C.2   362  TYR362      0.2595
    175  O         16.0520   -2.9230    3.2670 O.2   362  TYR362     -0.2718
    176  CB        18.5980   -2.2650    1.1270 C.3   362  TYR362      0.0548
    177  CG        19.2880   -2.8890    2.3320 C.ar  362  TYR362     -0.0200
    178  CD1       19.6110   -4.2410    2.3560 C.ar  362  TYR362     -0.0009
    179  CD2       19.6300   -2.1170    3.4400 C.ar  362  TYR362     -0.0009
    180  CE1       20.2430   -4.8090    3.4590 C.ar  362  TYR362      0.0417
    181  CE2       20.2570   -2.6730    4.5400 C.ar  362  TYR362      0.0417
    182  CZ        20.5600   -4.0170    4.5480 C.ar  362  TYR362      0.1957
    183  OH        21.1840   -4.5570    5.6500 O.3   362  TYR362     -0.2866
    184  N         16.6500   -0.7730    2.9770 N.am  363  HIS363     -0.1975
    185  CA        16.1840   -0.3820    4.3030 C.3   363  HIS363      0.1656
    186  C         14.6650   -0.4050    4.4140 C.2   363  HIS363      0.2291
    187  O         14.1220   -0.5970    5.5010 O.2   363  HIS363     -0.2864
    188  CB        16.7530    0.9780    4.7130 C.3   363  HIS363      0.0771
    189  CG        18.1850    0.9120    5.1410 C.ar  363  HIS363      0.0820
    190  ND1       19.2260    1.2850    4.3200 N.ar  363  HIS363     -0.2267
    191  CD2       18.7490    0.4820    6.2950 C.ar  363  HIS363      0.1154
    192  CE1       20.3710    1.1010    4.9540 C.ar  363  HIS363      0.1986
    193  NE2       20.1100    0.6130    6.1540 N.ar  363  HIS363     -0.2212
@<TRIPOS>BOND
     1     1     2    1
     2     2     5    1
     3     2     3    1
     4     5     6    1
     5     7     3   am
     6     7     8    1
     7     3     4    2
     8     9     8    1
     9     9    10    2
    10     8    11    1
    11    11    12    1
    12    14    12   ar
    13    14    16   ar
    14    18    19    1
    15    12    13   ar
    16    16    17   ar
    17    25    26    2
    18    25    24    1
    19    19    20    1
    20    19    22    1
    21    23    24    1
    22    23    20   am
    23    24    27    1
    24    13    15   ar
    25    27    28    1
    26    20    21    2
    27    17    15   ar
    28    31    32    1
    29    33    32    1
    30    33    34    2
    31    29    28    1
    32    55    56    1
    33    55    52    1
    34    28    30    1
    35    32    35    1
    36    56    57    1
    37    58    57    1
    38    53    52    1
    39    53    54    2
    40    52    51    1
    41    37    38    1
    42    35    36    1
    43    51    39   am
    44    39    38    1
    45    39    40    2
    46    38    41    1
    47    41    42    1
    48    43    42   ar
    49    43    45   ar
    50    42    44   ar
    51    59    60    1
    52    71    69   ar
    53    71    72   ar
    54    69    66   ar
    55    45    46   ar
    56    44    46   ar
    57    44    47   ar
    58    61    60    1
    59    61    62    2
    60    72    70   ar
    61    60    63    1
    62    63    64    1
    63    46    48   ar
    64    66    64   ar
    65    66    68   ar
    66    80    79   ar
    67    47    49   ar
    68    64    65   ar
    69    73    74    1
    70    70    68   ar
    71    68    67   ar
    72    48    50   ar
    73    81    79   ar
    74    79    78    1
    75    49    50   ar
    76    65    67   ar
    77   168   165    1
    78   168   169    1
    79   165   166    1
    80   165   164    1
    81   160   159    2
    82   166   167    2
    83   172   173    1
    84    99    98    1
    85    74    75    1
    86    74    77    1
    87    76    75    2
    88    78    77    1
    89   159   164   am
    90   159   158    1
    91   162   163    1
    92   162   161    1
    93   176   173    1
    94   176   177    1
    95   173   174    1
    96   169   171   ar
    97   169   170   ar
    98   100    98    1
    99    98    97    2
   100   163   157    1
   101   161   158    1
   102   158   157    1
   103    97    96    1
   104   177   178   ar
   105   177   179   ar
   106   178   180   ar
   107    96    95    1
   108   174   184   am
   109   174   175    2
   110   184   185    1
   111    95    94    1
   112    93    92    2
   113   179   181   ar
   114   180   182   ar
   115    92    91    1
   116    89    87   ar
   117    88    87   ar
   118   185   186    1
   119   185   188    1
   120   190   192   ar
   121   190   189   ar
   122    82    83    1
   123    87    86    1
   124   186   187    2
   125    94    91    1
   126   181   182   ar
   127   182   183    1
   128   188   189    1
   129   192   193   ar
   130    91    90    1
   131    85    84    2
   132   189   191   ar
   133    86    83    1
   134    83    84    1
   135   193   191   ar
   136   122   121    1
   137   149   150    1
   138   153   150    1
   139   153   154    1
   140   135   136    1
   141   135   132    1
   142   119   121   ar
   143   119   117   ar
   144   121   120   ar
   145   150   151    1
   146   156   154   ar
   147   154   155   ar
   148   117   116   ar
   149   132   131    1
   150   132   133    1
   151   130   128   ar
   152   120   118   ar
   153   129   128   ar
   154   151   152    2
   155   134   133    2
   156   133   137   am
   157   128   127    1
   158   116   118   ar
   159   116   115    1
   160   148   147    1
   161   145   147   ar
   162   145   143   ar
   163   137   138    1
   164   112   111    1
   165   112   115    1
   166   112   113    1
   167   147   146   ar
   168   127   124    1
   169   143   142   ar
   170   109   110   ar
   171   109   107   ar
   172   110   108   ar
   173   125   124    1
   174   125   126    2
   175   114   113    2
   176   107   106   ar
   177   146   144   ar
   178   138   139    1
   179   138   141    1
   180   124   123    1
   181   108   106   ar
   182   142   144   ar
   183   142   141    1
   184   106   105    1
   185   139   140    2
   186   105   102    1
   187   104   103    2
   188   103   102    1
   189   102   101    1
