@<TRIPOS>MOLECULE
tmp/4lngB01.pdb
 177 173 0 0 0
SMALL
GASTEIGER

@<TRIPOS>ATOM
      1  N         19.2050   -8.9280   -5.8880 N.3    85  TRP85      -0.1241
      2  CA        18.8340   -8.4240   -4.5640 C.3    85  TRP85       0.1605
      3  C         17.7390   -7.3650   -4.6790 C.2    85  TRP85       0.2264
      4  O         16.7860   -7.3520   -3.8970 O.2    85  TRP85      -0.2867
      5  CB        20.0360   -7.7860   -3.8600 C.3    85  TRP85       0.0550
      6  CG        20.8770   -8.6920   -2.9960 C.ar   85  TRP85       0.0003
      7  CD1       22.2310   -8.8520   -3.0650 C.ar   85  TRP85       0.0946
      8  CD2       20.4310   -9.5260   -1.9110 C.ar   85  TRP85       0.0152
      9  NE1       22.6540   -9.7410   -2.1040 N.ar   85  TRP85      -0.2442
     10  CE2       21.5700  -10.1700   -1.3860 C.ar   85  TRP85       0.0810
     11  CE3       19.1830   -9.7960   -1.3430 C.ar   85  TRP85       0.0012
     12  CZ2       21.4970  -11.0660   -0.3180 C.ar   85  TRP85       0.0191
     13  CZ3       19.1130  -10.6850   -0.2820 C.ar   85  TRP85       0.0001
     14  CH2       20.2640  -11.3080    0.2190 C.ar   85  TRP85       0.0015
     15  N         24.4940  -15.2440   -2.9810 N.3   133  ALA133     -0.1245
     16  CA        23.5620  -14.1810   -2.6050 C.3   133  ALA133      0.1562
     17  C         22.5790  -13.8720   -3.7300 C.2   133  ALA133      0.2260
     18  O         21.3930  -13.6370   -3.4820 O.2   133  ALA133     -0.2867
     19  CB        24.3150  -12.9190   -2.1810 C.3   133  ALA133      0.0290
     20  N         20.2830  -16.9410   -3.8740 N.3   136  TYR136     -0.1241
     21  CA        19.3590  -16.7690   -2.7560 C.3   136  TYR136      0.1605
     22  C         18.2400  -15.7860   -3.1090 C.2   136  TYR136      0.2264
     23  O         17.0580  -16.1030   -2.9800 O.2   136  TYR136     -0.2867
     24  CB        20.1570  -16.2810   -1.5440 C.3   136  TYR136      0.0534
     25  CG        19.3700  -15.8310   -0.3370 C.ar  136  TYR136     -0.0201
     26  CD1       19.0380  -16.7270    0.6740 C.ar  136  TYR136     -0.0009
     27  CD2       19.0110  -14.4980   -0.1760 C.ar  136  TYR136     -0.0009
     28  CE1       18.3430  -16.3140    1.7960 C.ar  136  TYR136      0.0417
     29  CE2       18.3150  -14.0750    0.9440 C.ar  136  TYR136      0.0417
     30  CZ        17.9870  -14.9880    1.9280 C.ar  136  TYR136      0.1957
     31  OH        17.2940  -14.5740    3.0430 O.3   136  TYR136     -0.2866
     32  N         27.5140  -15.5720    5.9290 N.3   184  ARG184     -0.1245
     33  CA        26.5010  -15.1330    4.9750 C.3   184  ARG184      0.1563
     34  C         26.4550  -16.1250    3.8200 C.2   184  ARG184      0.2260
     35  O         25.3810  -16.4920    3.3350 O.2   184  ARG184     -0.2867
     36  CB        26.8190  -13.7250    4.4610 C.3   184  ARG184      0.0307
     37  CG        26.2890  -13.4360    3.0660 C.3   184  ARG184      0.0489
     38  CD        26.9090  -12.1750    2.4770 C.3   184  ARG184      0.2205
     39  NE        28.3540  -12.3000    2.3150 N.pl3 184  ARG184     -0.0865
     40  CZ        29.0280  -11.8520    1.2630 C.cat 184  ARG184      0.5346
     41  NH1       28.3870  -11.2480    0.2720 N.pl3 184  ARG184      0.1354
     42  NH2       30.3440  -12.0060    1.2010 N.pl3 184  ARG184      0.1354
     43  N         24.7210  -19.4170    5.0360 N.3   187  TYR187     -0.1227
     44  CA        23.2770  -19.2360    5.1470 C.3   187  TYR187      0.1736
     45  C         22.5820  -19.1970    3.7860 C.2   187  TYR187      0.2595
     46  O         21.5880  -19.8930    3.5730 O.2   187  TYR187     -0.2718
     47  CB        22.9490  -17.9800    5.9610 C.3   187  TYR187      0.0548
     48  CG        21.5180  -17.5060    5.8070 C.ar  187  TYR187     -0.0200
     49  CD1       20.4700  -18.1780    6.4230 C.ar  187  TYR187     -0.0009
     50  CD2       21.2180  -16.3810    5.0470 C.ar  187  TYR187     -0.0009
     51  CE1       19.1550  -17.7410    6.2830 C.ar  187  TYR187      0.0417
     52  CE2       19.9100  -15.9390    4.9020 C.ar  187  TYR187      0.0417
     53  CZ        18.8820  -16.6240    5.5180 C.ar  187  TYR187      0.1957
     54  OH        17.5770  -16.1850    5.3700 O.3   187  TYR187     -0.2866
     55  N         23.1050  -18.3850    2.8710 N.am  188  CYS188     -0.1970
     56  CA        22.5260  -18.2750    1.5350 C.3   188  CYS188      0.1712
     57  C         22.5690  -19.6070    0.7950 C.2   188  CYS188      0.2296
     58  O         21.6010  -19.9820    0.1360 O.2   188  CYS188     -0.2864
     59  CB        23.2360  -17.1970    0.7110 C.3   188  CYS188      0.0983
     60  SG        22.8860  -15.5070    1.2570 S.3   188  CYS188     -0.0798
     61  N         28.6090   -9.6740   15.2270 N.3   243  HIS243     -0.1241
     62  CA        27.7370   -8.7610   14.5030 C.3   243  HIS243      0.1621
     63  C         26.3490   -9.3680   14.3050 C.2   243  HIS243      0.2264
     64  O         26.2290  -10.5360   13.9440 O.2   243  HIS243     -0.2867
     65  CB        28.3480   -8.4130   13.1420 C.3   243  HIS243      0.0745
     66  CG        27.7940   -7.1610   12.5390 C.ar  243  HIS243      0.0817
     67  ND1       26.5250   -7.0910   12.0050 N.ar  243  HIS243     -0.2268
     68  CD2       28.3300   -5.9260   12.4020 C.ar  243  HIS243      0.1154
     69  CE1       26.3060   -5.8670   11.5580 C.ar  243  HIS243      0.1986
     70  NE2       27.3860   -5.1400   11.7850 N.ar  243  HIS243     -0.2212
     71  N         24.1710   -9.1730   12.0170 N.3   245  ALA245     -0.1231
     72  CA        23.9200   -9.7190   10.6920 C.3   245  ALA245      0.1694
     73  C         24.3550  -11.1760   10.5990 C.2   245  ALA245      0.2592
     74  O         23.6500  -12.0190   10.0440 O.2   245  ALA245     -0.2718
     75  CB        24.6480   -8.9130    9.6790 C.3   245  ALA245      0.0304
     76  N         25.5270  -11.4660   11.1450 N.am  246  TYR246     -0.1976
     77  CA        26.0620  -12.8160   11.0870 C.3   246  TYR246      0.1639
     78  C         25.4380  -13.7140   12.1500 C.2   246  TYR246      0.2290
     79  O         25.3840  -14.9330   11.9860 O.2   246  TYR246     -0.2864
     80  CB        27.5840  -12.7850   11.2040 C.3   246  TYR246      0.0560
     81  CG        28.2540  -12.0000   10.0930 C.ar  246  TYR246     -0.0198
     82  CD1       28.0740  -12.3530    8.7590 C.ar  246  TYR246     -0.0009
     83  CD2       29.0740  -10.9160   10.3770 C.ar  246  TYR246     -0.0009
     84  CE1       28.6920  -11.6470    7.7420 C.ar  246  TYR246      0.0417
     85  CE2       29.6970  -10.2080    9.3680 C.ar  246  TYR246      0.0417
     86  CZ        29.5000  -10.5750    8.0540 C.ar  246  TYR246      0.1957
     87  OH        30.1170   -9.8690    7.0520 O.3   246  TYR246     -0.2866
     88  N         22.4100  -15.0600   10.3210 N.3   249  CYS249     -0.1235
     89  CA        22.8160  -16.0680    9.3390 C.3   249  CYS249      0.1677
     90  C         23.1730  -17.3880   10.0150 C.2   249  CYS249      0.2270
     91  O         22.7310  -18.4510    9.5830 O.2   249  CYS249     -0.2867
     92  CB        23.9960  -15.5750    8.5010 C.3   249  CYS249      0.0956
     93  SG        23.6030  -14.1780    7.4230 S.3   249  CYS249     -0.0801
     94  N         24.1850   -3.1340   15.2680 N.3   290  GLY290     -0.1210
     95  CA        24.7320   -4.3770   14.7490 C.3   290  GLY290      0.1956
     96  C         25.8550   -4.9380   15.6020 C.2   290  GLY290      0.2611
     97  O         26.0440   -6.1530   15.6920 O.2   290  GLY290     -0.2717
     98  N         26.6110   -4.0480   16.2290 N.am  291  ARG291     -0.1979
     99  CA        27.7170   -4.4710   17.0760 C.3   291  ARG291      0.1597
    100  C         27.9470   -3.4870   18.2080 C.2   291  ARG291      0.2287
    101  O         27.4420   -2.3630   18.1870 O.2   291  ARG291     -0.2864
    102  CB        28.9980   -4.6880   16.2570 C.3   291  ARG291      0.0334
    103  CG        29.2790   -3.6120   15.2060 C.3   291  ARG291      0.0492
    104  CD        30.5950   -3.8910   14.4720 C.3   291  ARG291      0.2205
    105  NE        30.7460   -3.0570   13.2810 N.pl3 291  ARG291     -0.0865
    106  CZ        31.9150   -2.6520   12.7920 C.cat 291  ARG291      0.5346
    107  NH1       33.0460   -3.0020   13.3900 N.pl3 291  ARG291      0.1354
    108  NH2       31.9530   -1.8910   11.7050 N.pl3 291  ARG291      0.1354
    109  N         28.4010    0.6810   18.3550 N.3   294  LYS294     -0.1231
    110  CA        28.0470    1.3330   17.0960 C.3   294  LYS294      0.1693
    111  C         26.5660    1.7350   17.1180 C.2   294  LYS294      0.2591
    112  O         25.9360    1.6750   18.1670 O.2   294  LYS294     -0.2718
    113  CB        28.4240    0.4680   15.8880 C.3   294  LYS294      0.0285
    114  CG        29.9400    0.2230   15.7880 C.3   294  LYS294      0.0035
    115  CD        30.4160    0.1040   14.3530 C.3   294  LYS294      0.0206
    116  CE        30.4460    1.4580   13.6580 C.3   294  LYS294      0.1093
    117  NZ        30.6200    1.2920   12.1910 N.3   294  LYS294     -0.1314
    118  N         26.0160    2.1560   15.9820 N.am  295  LEU295     -0.1980
    119  CA        24.7220    2.8530   15.9860 C.3   295  LEU295      0.1596
    120  C         23.5280    1.9840   15.5870 C.2   295  LEU295      0.2287
    121  O         23.6790    0.9900   14.8740 O.2   295  LEU295     -0.2864
    122  CB        24.7770    4.0780   15.0630 C.3   295  LEU295      0.0297
    123  CG        25.9240    5.0710   15.2830 C.3   295  LEU295      0.0022
    124  CD1       25.9950    6.0810   14.1420 C.3   295  LEU295      0.0001
    125  CD2       25.7790    5.7800   16.6100 C.3   295  LEU295      0.0001
    126  N         20.1960    0.9290   13.4980 N.3   297  ASP297     -0.1239
    127  CA        19.9870    0.9010   12.0570 C.3   297  ASP297      0.1674
    128  C         18.7280    0.0840   11.7960 C.2   297  ASP297      0.2266
    129  O         18.6090   -1.0460   12.2600 O.2   297  ASP297     -0.2867
    130  CB        21.2130    0.2780   11.3760 C.3   297  ASP297      0.1410
    131  CG        21.0790    0.1720    9.8600 C.2   297  ASP297      0.3668
    132  OD1       19.9540    0.2120    9.3200 O.co2 297  ASP297     -0.2456
    133  OD2       22.1260    0.0220    9.1990 O.co2 297  ASP297     -0.2456
    134  N         17.6450   -1.6820    9.4150 N.3   299  CYS299     -0.1221
    135  CA        17.7190   -3.0030    8.7900 C.3   299  CYS299      0.1808
    136  C         17.9650   -4.1030    9.8190 C.2   299  CYS299      0.2601
    137  O         17.6210   -5.2590    9.5890 O.2   299  CYS299     -0.2717
    138  CB        18.7580   -3.0610    7.6630 C.3   299  CYS299      0.0970
    139  SG        20.4990   -3.0190    8.1720 S.3   299  CYS299     -0.0800
    140  N         18.5440   -3.7420   10.9590 N.am  300  TYR300     -0.1976
    141  CA        18.7580   -4.7160   12.0260 C.3   300  TYR300      0.1639
    142  C         17.4450   -5.0890   12.7160 C.2   300  TYR300      0.2290
    143  O         17.4090   -5.9930   13.5470 O.2   300  TYR300     -0.2864
    144  CB        19.8170   -4.2250   13.0220 C.3   300  TYR300      0.0560
    145  CG        21.1530   -3.9710   12.3550 C.ar  300  TYR300     -0.0198
    146  CD1       21.6430   -4.8500   11.3970 C.ar  300  TYR300     -0.0009
    147  CD2       21.9030   -2.8430   12.6500 C.ar  300  TYR300     -0.0009
    148  CE1       22.8520   -4.6220   10.7640 C.ar  300  TYR300      0.0417
    149  CE2       23.1170   -2.6040   12.0190 C.ar  300  TYR300      0.0417
    150  CZ        23.5830   -3.4990   11.0780 C.ar  300  TYR300      0.1957
    151  OH        24.7830   -3.2750   10.4420 O.3   300  TYR300     -0.2866
    152  N         17.7650   -8.3350   10.9280 N.3   303  TRP303     -0.1241
    153  CA        18.9490   -9.1460   11.2560 C.3   303  TRP303      0.1605
    154  C         19.0240   -9.4980   12.7400 C.2   303  TRP303      0.2264
    155  O         19.2490  -10.6510   13.1010 O.2   303  TRP303     -0.2867
    156  CB        20.2510   -8.4860   10.7750 C.3   303  TRP303      0.0550
    157  CG        20.2480   -8.1860    9.3010 C.ar  303  TRP303      0.0003
    158  CD1       20.2680   -6.9530    8.7170 C.ar  303  TRP303      0.0946
    159  CD2       20.1860   -9.1370    8.2290 C.ar  303  TRP303      0.0152
    160  NE1       20.2380   -7.0760    7.3480 N.ar  303  TRP303     -0.2442
    161  CE2       20.1810   -8.4060    7.0230 C.ar  303  TRP303      0.0810
    162  CE3       20.1340  -10.5340    8.1730 C.ar  303  TRP303      0.0012
    163  CZ2       20.1300   -9.0250    5.7730 C.ar  303  TRP303      0.0191
    164  CZ3       20.0840  -11.1490    6.9300 C.ar  303  TRP303      0.0001
    165  CH2       20.0840  -10.3930    5.7460 C.ar  303  TRP303      0.0015
    166  N         16.6220   -1.7670    0.1400 N.3   359  TYR359     -0.1241
    167  CA        17.1890   -2.7010    1.1150 C.3   359  TYR359      0.1605
    168  C         16.6790   -2.3820    2.5230 C.2   359  TYR359      0.2264
    169  O         16.1700   -3.2590    3.2270 O.2   359  TYR359     -0.2867
    170  CB        18.7280   -2.6730    1.0640 C.3   359  TYR359      0.0534
    171  CG        19.4250   -3.2480    2.2890 C.ar  359  TYR359     -0.0201
    172  CD1       19.7740   -4.5940    2.3530 C.ar  359  TYR359     -0.0009
    173  CD2       19.7490   -2.4360    3.3720 C.ar  359  TYR359     -0.0009
    174  CE1       20.4140   -5.1200    3.4730 C.ar  359  TYR359      0.0417
    175  CE2       20.3830   -2.9520    4.4940 C.ar  359  TYR359      0.0417
    176  CZ        20.7130   -4.2900    4.5390 C.ar  359  TYR359      0.1957
    177  OH        21.3480   -4.7900    5.6550 O.3   359  TYR359     -0.2866
@<TRIPOS>BOND
     1     1     2    1
     2     3     2    1
     3     3     4    2
     4     2     5    1
     5    20    21    1
     6     5     6    1
     7    17    18    2
     8    17    16    1
     9    22    23    2
    10    22    21    1
    11     7     6   ar
    12     7     9   ar
    13     6     8   ar
    14    15    16    1
    15    21    24    1
    16    16    19    1
    17     9    10   ar
    18     8    10   ar
    19     8    11   ar
    20    24    25    1
    21    10    12   ar
    22    11    13   ar
    23    25    27   ar
    24    25    26   ar
    25    12    14   ar
    26    13    14   ar
    27    27    29   ar
    28    58    57    2
    29   166   167    1
    30    41    40    1
    31    26    28   ar
    32    59    60    1
    33    59    56    1
    34    57    56    1
    35    29    30   ar
    36   170   167    1
    37   170   171    1
    38   167   168    1
    39    42    40    1
    40    40    39    2
    41    56    55    1
    42    28    30   ar
    43    30    31    1
    44   171   172   ar
    45   171   173   ar
    46    39    38    1
    47   172   174   ar
    48    38    37    1
    49   168   169    2
    50    55    45   am
    51    37    36    1
    52    35    34    2
    53   173   175   ar
    54   174   176   ar
    55    46    45    2
    56    45    44    1
    57    34    33    1
    58    36    33    1
    59   175   176   ar
    60   176   177    1
    61    52    50   ar
    62    52    53   ar
    63    33    32    1
    64    43    44    1
    65    50    48   ar
    66    44    47    1
    67    54    53    1
    68    53    51   ar
    69   165   163   ar
    70   165   164   ar
    71   163   161   ar
    72    48    47    1
    73    48    49   ar
    74    51    49   ar
    75   164   162   ar
    76   161   160   ar
    77   161   159   ar
    78    87    86    1
    79   160   158   ar
    80    93    92    1
    81   138   139    1
    82   138   135    1
    83    84    86   ar
    84    84    82   ar
    85    86    85   ar
    86   162   159   ar
    87   159   157   ar
    88    92    89    1
    89   158   157   ar
    90    82    81   ar
    91   135   134    1
    92   135   136    1
    93   133   131   ar
    94   157   156    1
    95   132   131   ar
    96    89    90    1
    97    89    88    1
    98    85    83   ar
    99    91    90    2
   100   137   136    2
   101    75    72    1
   102   136   140   am
   103   131   130    1
   104    74    73    2
   105    81    83   ar
   106    81    80    1
   107   151   150    1
   108    73    72    1
   109    73    76   am
   110    72    71    1
   111   148   150   ar
   112   148   146   ar
   113   156   153    1
   114   152   153    1
   115   140   141    1
   116   150   149   ar
   117    77    76    1
   118    77    80    1
   119    77    78    1
   120   153   154    1
   121   130   127    1
   122   146   145   ar
   123    69    70   ar
   124    69    67   ar
   125   108   106    1
   126    70    68   ar
   127   128   127    1
   128   128   129    2
   129    79    78    2
   130    67    66   ar
   131   149   147   ar
   132   141   142    1
   133   141   144    1
   134   127   126    1
   135   117   116    1
   136   145   147   ar
   137   145   144    1
   138    68    66   ar
   139    66    65    1
   140   142   143    2
   141   154   155    2
   142   106   105    2
   143   106   107    1
   144    65    62    1
   145   105   104    1
   146   116   115    1
   147    64    63    2
   148   124   123    1
   149    63    62    1
   150   115   114    1
   151   104   103    1
   152    62    61    1
   153    95    94    1
   154    95    96    1
   155   121   120    2
   156   122   123    1
   157   122   119    1
   158   103   102    1
   159   123   125    1
   160   120   119    1
   161    96    97    2
   162    96    98   am
   163   114   113    1
   164   113   110    1
   165   118   119    1
   166   118   111   am
   167    98    99    1
   168   102    99    1
   169    99   100    1
   170   110   111    1
   171   110   109    1
   172   111   112    2
   173   101   100    2
