@<TRIPOS>MOLECULE
tmp/4lngB00.pdb
 171 170 0 0 0
SMALL
GASTEIGER

@<TRIPOS>ATOM
      1  N         25.2560   -0.9730   -8.3420 N.3    79  LEU79      -0.1245
      2  CA        24.3110   -2.0310   -8.0020 C.3    79  LEU79       0.1561
      3  C         24.2270   -3.1230   -9.0700 C.2    79  LEU79       0.2260
      4  O         23.4380   -4.0590   -8.9390 O.2    79  LEU79      -0.2867
      5  CB        22.9190   -1.4410   -7.7550 C.3    79  LEU79       0.0270
      6  CG        22.7770   -0.5520   -6.5180 C.3    79  LEU79       0.0019
      7  CD1       21.3710    0.0310   -6.4250 C.3    79  LEU79       0.0001
      8  CD2       23.1190   -1.3370   -5.2630 C.3    79  LEU79       0.0001
      9  N         24.3000   -6.5910   -8.0180 N.3    82  SER82      -0.1217
     10  CA        23.3090   -6.9000   -6.9910 C.3    82  SER82       0.1889
     11  C         21.8700   -6.7260   -7.4750 C.2    82  SER82       0.2288
     12  O         20.9510   -6.5710   -6.6740 O.2    82  SER82      -0.2866
     13  CB        23.5540   -6.0530   -5.7400 C.3    82  SER82       0.2089
     14  OG        23.6540   -4.6790   -6.0670 O.3    82  SER82      -0.2183
     15  N         19.2050   -8.9280   -5.8880 N.3    85  TRP85      -0.1241
     16  CA        18.8340   -8.4240   -4.5640 C.3    85  TRP85       0.1605
     17  C         17.7390   -7.3650   -4.6790 C.2    85  TRP85       0.2264
     18  O         16.7860   -7.3520   -3.8970 O.2    85  TRP85      -0.2867
     19  CB        20.0360   -7.7860   -3.8600 C.3    85  TRP85       0.0550
     20  CG        20.8770   -8.6920   -2.9960 C.ar   85  TRP85       0.0003
     21  CD1       22.2310   -8.8520   -3.0650 C.ar   85  TRP85       0.0946
     22  CD2       20.4310   -9.5260   -1.9110 C.ar   85  TRP85       0.0152
     23  NE1       22.6540   -9.7410   -2.1040 N.ar   85  TRP85      -0.2442
     24  CE2       21.5700  -10.1700   -1.3860 C.ar   85  TRP85       0.0810
     25  CE3       19.1830   -9.7960   -1.3430 C.ar   85  TRP85       0.0012
     26  CZ2       21.4970  -11.0660   -0.3180 C.ar   85  TRP85       0.0191
     27  CZ3       19.1130  -10.6850   -0.2820 C.ar   85  TRP85       0.0001
     28  CH2       20.2640  -11.3080    0.2190 C.ar   85  TRP85       0.0015
     29  N         14.1840   -7.4800   -2.6280 N.3    89  TRP89      -0.1241
     30  CA        13.8190   -6.4810   -1.6230 C.3    89  TRP89       0.1605
     31  C         12.4680   -5.8370   -1.9420 C.2    89  TRP89       0.2264
     32  O         11.6320   -5.6480   -1.0540 O.2    89  TRP89      -0.2867
     33  CB        14.8990   -5.3990   -1.5140 C.3    89  TRP89       0.0550
     34  CG        16.2270   -5.9000   -1.0100 C.ar   89  TRP89       0.0003
     35  CD1       16.4410   -6.8880   -0.0930 C.ar   89  TRP89       0.0946
     36  CD2       17.5240   -5.4380   -1.4130 C.ar   89  TRP89       0.0152
     37  NE1       17.7950   -7.0660    0.1050 N.ar   89  TRP89      -0.2442
     38  CE2       18.4780   -6.1880   -0.6960 C.ar   89  TRP89       0.0810
     39  CE3       17.9690   -4.4590   -2.3070 C.ar   89  TRP89       0.0012
     40  CZ2       19.8520   -5.9910   -0.8480 C.ar   89  TRP89       0.0191
     41  CZ3       19.3330   -4.2660   -2.4580 C.ar   89  TRP89       0.0001
     42  CH2       20.2560   -5.0260   -1.7300 C.ar   89  TRP89       0.0015
     43  N         27.5140  -15.5720    5.9290 N.3   184  ARG184     -0.1245
     44  CA        26.5010  -15.1330    4.9750 C.3   184  ARG184      0.1563
     45  C         26.4550  -16.1250    3.8200 C.2   184  ARG184      0.2260
     46  O         25.3810  -16.4920    3.3350 O.2   184  ARG184     -0.2867
     47  CB        26.8190  -13.7250    4.4610 C.3   184  ARG184      0.0307
     48  CG        26.2890  -13.4360    3.0660 C.3   184  ARG184      0.0489
     49  CD        26.9090  -12.1750    2.4770 C.3   184  ARG184      0.2205
     50  NE        28.3540  -12.3000    2.3150 N.pl3 184  ARG184     -0.0865
     51  CZ        29.0280  -11.8520    1.2630 C.cat 184  ARG184      0.5346
     52  NH1       28.3870  -11.2480    0.2720 N.pl3 184  ARG184      0.1354
     53  NH2       30.3440  -12.0060    1.2010 N.pl3 184  ARG184      0.1354
     54  N         28.6090   -9.6740   15.2270 N.3   243  HIS243     -0.1241
     55  CA        27.7370   -8.7610   14.5030 C.3   243  HIS243      0.1621
     56  C         26.3490   -9.3680   14.3050 C.2   243  HIS243      0.2264
     57  O         26.2290  -10.5360   13.9440 O.2   243  HIS243     -0.2867
     58  CB        28.3480   -8.4130   13.1420 C.3   243  HIS243      0.0745
     59  CG        27.7940   -7.1610   12.5390 C.ar  243  HIS243      0.0817
     60  ND1       26.5250   -7.0910   12.0050 N.ar  243  HIS243     -0.2268
     61  CD2       28.3300   -5.9260   12.4020 C.ar  243  HIS243      0.1154
     62  CE1       26.3060   -5.8670   11.5580 C.ar  243  HIS243      0.1986
     63  NE2       27.3860   -5.1400   11.7850 N.ar  243  HIS243     -0.2212
     64  N         25.5270  -11.4660   11.1450 N.3   246  TYR246     -0.1241
     65  CA        26.0620  -12.8160   11.0870 C.3   246  TYR246      0.1605
     66  C         25.4380  -13.7140   12.1500 C.2   246  TYR246      0.2264
     67  O         25.3840  -14.9330   11.9860 O.2   246  TYR246     -0.2867
     68  CB        27.5840  -12.7850   11.2040 C.3   246  TYR246      0.0534
     69  CG        28.2540  -12.0000   10.0930 C.ar  246  TYR246     -0.0201
     70  CD1       28.0740  -12.3530    8.7590 C.ar  246  TYR246     -0.0009
     71  CD2       29.0740  -10.9160   10.3770 C.ar  246  TYR246     -0.0009
     72  CE1       28.6920  -11.6470    7.7420 C.ar  246  TYR246      0.0417
     73  CE2       29.6970  -10.2080    9.3680 C.ar  246  TYR246      0.0417
     74  CZ        29.5000  -10.5750    8.0540 C.ar  246  TYR246      0.1957
     75  OH        30.1170   -9.8690    7.0520 O.3   246  TYR246     -0.2866
     76  N         20.1960    0.9290   13.4980 N.3   297  ASP297     -0.1239
     77  CA        19.9870    0.9010   12.0570 C.3   297  ASP297      0.1674
     78  C         18.7280    0.0840   11.7960 C.2   297  ASP297      0.2266
     79  O         18.6090   -1.0460   12.2600 O.2   297  ASP297     -0.2867
     80  CB        21.2130    0.2780   11.3760 C.3   297  ASP297      0.1410
     81  CG        21.0790    0.1720    9.8600 C.2   297  ASP297      0.3668
     82  OD1       19.9540    0.2120    9.3200 O.co2 297  ASP297     -0.2456
     83  OD2       22.1260    0.0220    9.1990 O.co2 297  ASP297     -0.2456
     84  N         17.6450   -1.6820    9.4150 N.3   299  CYS299     -0.1221
     85  CA        17.7190   -3.0030    8.7900 C.3   299  CYS299      0.1808
     86  C         17.9650   -4.1030    9.8190 C.2   299  CYS299      0.2601
     87  O         17.6210   -5.2590    9.5890 O.2   299  CYS299     -0.2717
     88  CB        18.7580   -3.0610    7.6630 C.3   299  CYS299      0.0970
     89  SG        20.4990   -3.0190    8.1720 S.3   299  CYS299     -0.0800
     90  N         18.5440   -3.7420   10.9590 N.am  300  TYR300     -0.1976
     91  CA        18.7580   -4.7160   12.0260 C.3   300  TYR300      0.1639
     92  C         17.4450   -5.0890   12.7160 C.2   300  TYR300      0.2290
     93  O         17.4090   -5.9930   13.5470 O.2   300  TYR300     -0.2864
     94  CB        19.8170   -4.2250   13.0220 C.3   300  TYR300      0.0560
     95  CG        21.1530   -3.9710   12.3550 C.ar  300  TYR300     -0.0198
     96  CD1       21.6430   -4.8500   11.3970 C.ar  300  TYR300     -0.0009
     97  CD2       21.9030   -2.8430   12.6500 C.ar  300  TYR300     -0.0009
     98  CE1       22.8520   -4.6220   10.7640 C.ar  300  TYR300      0.0417
     99  CE2       23.1170   -2.6040   12.0190 C.ar  300  TYR300      0.0417
    100  CZ        23.5830   -3.4990   11.0780 C.ar  300  TYR300      0.1957
    101  OH        24.7830   -3.2750   10.4420 O.3   300  TYR300     -0.2866
    102  N         17.7650   -8.3350   10.9280 N.3   303  TRP303     -0.1241
    103  CA        18.9490   -9.1460   11.2560 C.3   303  TRP303      0.1605
    104  C         19.0240   -9.4980   12.7400 C.2   303  TRP303      0.2264
    105  O         19.2490  -10.6510   13.1010 O.2   303  TRP303     -0.2867
    106  CB        20.2510   -8.4860   10.7750 C.3   303  TRP303      0.0550
    107  CG        20.2480   -8.1860    9.3010 C.ar  303  TRP303      0.0003
    108  CD1       20.2680   -6.9530    8.7170 C.ar  303  TRP303      0.0946
    109  CD2       20.1860   -9.1370    8.2290 C.ar  303  TRP303      0.0152
    110  NE1       20.2380   -7.0760    7.3480 N.ar  303  TRP303     -0.2442
    111  CE2       20.1810   -8.4060    7.0230 C.ar  303  TRP303      0.0810
    112  CE3       20.1340  -10.5340    8.1730 C.ar  303  TRP303      0.0012
    113  CZ2       20.1300   -9.0250    5.7730 C.ar  303  TRP303      0.0191
    114  CZ3       20.0840  -11.1490    6.9300 C.ar  303  TRP303      0.0001
    115  CH2       20.0840  -10.3930    5.7460 C.ar  303  TRP303      0.0015
    116  N         17.7650    3.6300    6.9920 N.3   350  ASP350     -0.1239
    117  CA        18.6810    3.2130    8.0440 C.3   350  ASP350      0.1674
    118  C         18.3640    3.9830    9.3280 C.2   350  ASP350      0.2266
    119  O         18.0650    3.3900   10.3640 O.2   350  ASP350     -0.2867
    120  CB        20.1110    3.4930    7.5370 C.3   350  ASP350      0.1410
    121  CG        21.1970    3.3490    8.6020 C.2   350  ASP350      0.3668
    122  OD1       20.9160    3.2550    9.8150 O.co2 350  ASP350     -0.2456
    123  OD2       22.3820    3.3620    8.1960 O.co2 350  ASP350     -0.2456
    124  N         16.2360    3.4960    0.9060 N.3   357  ASP357     -0.1225
    125  CA        16.5990    2.6060   -0.1880 C.3   357  ASP357      0.1805
    126  C         15.7620    1.3450   -0.0500 C.2   357  ASP357      0.2598
    127  O         15.1350    1.1300    0.9870 O.2   357  ASP357     -0.2718
    128  CB        18.1020    2.2990   -0.1970 C.3   357  ASP357      0.1424
    129  CG        18.5760    1.6620    1.0890 C.2   357  ASP357      0.3668
    130  OD1       18.3610    0.4450    1.2590 O.co2 357  ASP357     -0.2456
    131  OD2       19.1780    2.3730    1.9240 O.co2 357  ASP357     -0.2456
    132  N         15.7250    0.5200   -1.0910 N.am  358  SER358     -0.1938
    133  CA        14.8290   -0.6320   -1.0660 C.3   358  SER358      0.2055
    134  C         15.3130   -1.7180   -0.1050 C.2   358  SER358      0.2643
    135  O         14.5080   -2.4870    0.4120 O.2   358  SER358     -0.2714
    136  CB        14.5780   -1.1880   -2.4730 C.3   358  SER358      0.2130
    137  OG        15.7580   -1.7090   -3.0480 O.3   358  SER358     -0.2179
    138  N         16.6220   -1.7670    0.1400 N.am  359  TYR359     -0.1959
    139  CA        17.1890   -2.7010    1.1150 C.3   359  TYR359      0.1771
    140  C         16.6790   -2.3820    2.5230 C.2   359  TYR359      0.2619
    141  O         16.1700   -3.2590    3.2270 O.2   359  TYR359     -0.2715
    142  CB        18.7280   -2.6730    1.0640 C.3   359  TYR359      0.0574
    143  CG        19.4250   -3.2480    2.2890 C.ar  359  TYR359     -0.0198
    144  CD1       19.7740   -4.5940    2.3530 C.ar  359  TYR359     -0.0009
    145  CD2       19.7490   -2.4360    3.3720 C.ar  359  TYR359     -0.0009
    146  CE1       20.4140   -5.1200    3.4730 C.ar  359  TYR359      0.0417
    147  CE2       20.3830   -2.9520    4.4940 C.ar  359  TYR359      0.0417
    148  CZ        20.7130   -4.2900    4.5390 C.ar  359  TYR359      0.1957
    149  OH        21.3480   -4.7900    5.6550 O.3   359  TYR359     -0.2866
    150  N         16.8030   -1.1210    2.9280 N.am  360  HIS360     -0.1973
    151  CA        16.3420   -0.7110    4.2510 C.3   360  HIS360      0.1656
    152  C         14.8180   -0.7190    4.3570 C.2   360  HIS360      0.2291
    153  O         14.2680   -0.9530    5.4330 O.2   360  HIS360     -0.2864
    154  CB        16.9290    0.6500    4.6510 C.3   360  HIS360      0.0771
    155  CG        18.3700    0.5790    5.0580 C.ar  360  HIS360      0.0820
    156  ND1       19.3980    0.9980    4.2420 N.ar  360  HIS360     -0.2267
    157  CD2       18.9540    0.1020    6.1840 C.ar  360  HIS360      0.1154
    158  CE1       20.5530    0.7950    4.8520 C.ar  360  HIS360      0.1986
    159  NE2       20.3120    0.2500    6.0310 N.ar  360  HIS360     -0.2212
    160  N         13.8870   -4.5190    4.9480 N.3   363  TYR363     -0.1241
    161  CA        14.2280   -5.1040    6.2400 C.3   363  TYR363      0.1605
    162  C         13.6040   -4.4090    7.4500 C.2   363  TYR363      0.2264
    163  O         13.3830   -5.0440    8.4770 O.2   363  TYR363     -0.2867
    164  CB        15.7440   -5.2920    6.3800 C.3   363  TYR363      0.0534
    165  CG        16.2540   -6.3810    5.4600 C.ar  363  TYR363     -0.0201
    166  CD1       15.7360   -7.6710    5.5370 C.ar  363  TYR363     -0.0009
    167  CD2       17.2300   -6.1210    4.5040 C.ar  363  TYR363     -0.0009
    168  CE1       16.1860   -8.6800    4.6950 C.ar  363  TYR363      0.0417
    169  CE2       17.6870   -7.1280    3.6520 C.ar  363  TYR363      0.0417
    170  CZ        17.1600   -8.4010    3.7570 C.ar  363  TYR363      0.1957
    171  OH        17.5960   -9.4020    2.9200 O.3   363  TYR363     -0.2866
@<TRIPOS>BOND
     1     3     4    2
     2     3     2    1
     3     1     2    1
     4     9    10    1
     5     2     5    1
     6     5     6    1
     7    11    10    1
     8    11    12    2
     9    10    13    1
    10     6     7    1
    11     6     8    1
    12    14    13    1
    13    15    16    1
    14    17    16    1
    15    17    18    2
    16    16    19    1
    17    19    20    1
    18    21    20   ar
    19    21    23   ar
    20   137   136    1
    21    20    22   ar
    22    29    30    1
    23   136   133    1
    24    41    39   ar
    25    41    42   ar
    26    39    36   ar
    27    23    24   ar
    28    31    30    1
    29    31    32    2
    30    22    24   ar
    31    22    25   ar
    32    42    40   ar
    33    30    33    1
    34    33    34    1
    35    36    34   ar
    36    36    38   ar
    37    24    26   ar
    38    25    27   ar
    39   132   133    1
    40   132   126   am
    41   133   134    1
    42    34    35   ar
    43    40    38   ar
    44    38    37   ar
    45    26    28   ar
    46    27    28   ar
    47   128   125    1
    48   128   129    1
    49   125   126    1
    50   125   124    1
    51   134   138   am
    52   134   135    2
    53    35    37   ar
    54   126   127    2
    55   138   139    1
    56    52    51    1
    57   142   139    1
    58   142   143    1
    59   129   130   ar
    60   129   131   ar
    61   139   140    1
    62    53    51    1
    63    51    50    2
    64   143   144   ar
    65   143   145   ar
    66    50    49    1
    67   144   146   ar
    68    49    48    1
    69   140   150   am
    70   140   141    2
    71   171   170    1
    72   150   151    1
    73    48    47    1
    74    46    45    2
    75   145   147   ar
    76   146   148   ar
    77   169   170   ar
    78   169   167   ar
    79   170   168   ar
    80    45    44    1
    81   156   158   ar
    82   156   155   ar
    83   151   152    1
    84   151   154    1
    85   152   153    2
    86    47    44    1
    87   147   148   ar
    88   167   165   ar
    89   148   149    1
    90   154   155    1
    91   168   166   ar
    92   158   159   ar
    93   160   161    1
    94    44    43    1
    95   155   157   ar
    96   165   166   ar
    97   165   164    1
    98   115   113   ar
    99   115   114   ar
   100   113   111   ar
   101   159   157   ar
   102   161   164    1
   103   161   162    1
   104   114   112   ar
   105   116   117    1
   106   111   110   ar
   107   111   109   ar
   108    75    74    1
   109   110   108   ar
   110   162   163    2
   111   120   117    1
   112   120   121    1
   113    88    89    1
   114    88    85    1
   115    72    74   ar
   116    72    70   ar
   117   117   118    1
   118    74    73   ar
   119   112   109   ar
   120   123   121   ar
   121   109   107   ar
   122   121   122   ar
   123   108   107   ar
   124    70    69   ar
   125    85    84    1
   126    85    86    1
   127    83    81   ar
   128   107   106    1
   129    82    81   ar
   130   118   119    2
   131    73    71   ar
   132    87    86    2
   133    86    90   am
   134    81    80    1
   135    69    71   ar
   136    69    68    1
   137   101   100    1
   138    98   100   ar
   139    98    96   ar
   140   106   103    1
   141   102   103    1
   142    90    91    1
   143   100    99   ar
   144    65    64    1
   145    65    68    1
   146    65    66    1
   147   103   104    1
   148    80    77    1
   149    96    95   ar
   150    62    63   ar
   151    62    60   ar
   152    63    61   ar
   153    78    77    1
   154    78    79    2
   155    67    66    2
   156    60    59   ar
   157    99    97   ar
   158    91    92    1
   159    91    94    1
   160    77    76    1
   161    95    97   ar
   162    95    94    1
   163    61    59   ar
   164    59    58    1
   165    92    93    2
   166   104   105    2
   167    58    55    1
   168    57    56    2
   169    56    55    1
   170    55    54    1
