@<TRIPOS>MOLECULE
tmp/4lniF00.pdb
 179 167 0 0 0
SMALL
GASTEIGER

@<TRIPOS>ATOM
      1  N          9.9250  -17.2040  -47.0030 N.3   131  GLU131     -0.1245
      2  CA        10.2740  -15.9940  -46.2770 C.3   131  GLU131      0.1567
      3  C          9.5350  -15.8910  -44.9370 C.2   131  GLU131      0.2260
      4  O          8.6780  -15.0370  -44.8000 O.2   131  GLU131     -0.2867
      5  CB         9.8700  -14.7880  -47.1310 C.3   131  GLU131      0.0388
      6  CG        10.5870  -14.6550  -48.4920 C.3   131  GLU131      0.1160
      7  CD         9.8380  -13.6490  -49.3820 C.2   131  GLU131      0.3649
      8  OE1        9.6190  -12.4670  -49.0100 O.co2 131  GLU131     -0.2457
      9  OE2        9.4150  -14.0270  -50.4530 O.co2 131  GLU131     -0.2457
     10  N          7.9770  -14.6830  -42.0610 N.3   133  GLU133     -0.1245
     11  CA         7.9280  -13.4730  -41.2460 C.3   133  GLU133      0.1567
     12  C          7.5180  -13.7840  -39.7920 C.2   133  GLU133      0.2260
     13  O          6.9470  -14.8230  -39.5570 O.2   133  GLU133     -0.2867
     14  CB         6.9390  -12.5080  -41.8580 C.3   133  GLU133      0.0388
     15  CG         7.3210  -11.9710  -43.2110 C.3   133  GLU133      0.1160
     16  CD         6.1150  -11.2030  -43.9430 C.2   133  GLU133      0.3649
     17  OE1        4.9380  -11.5750  -43.7180 O.co2 133  GLU133     -0.2457
     18  OE2        6.3460  -10.2410  -44.7370 O.co2 133  GLU133     -0.2457
     19  N          7.9950   -0.7160  -41.9890 N.3   155  TYR155     -0.1241
     20  CA         8.7910   -1.3440  -43.0390 C.3   155  TYR155      0.1605
     21  C         10.1030   -0.6260  -43.3070 C.2   155  TYR155      0.2264
     22  O         10.1020    0.5750  -43.5650 O.2   155  TYR155     -0.2867
     23  CB         7.9610   -1.3330  -44.2990 C.3   155  TYR155      0.0534
     24  CG         8.5780   -2.0920  -45.4420 C.ar  155  TYR155     -0.0201
     25  CD1        8.4380   -3.4620  -45.5410 C.ar  155  TYR155     -0.0009
     26  CD2        9.2750   -1.4200  -46.4500 C.ar  155  TYR155     -0.0009
     27  CE1        8.9910   -4.1420  -46.6070 C.ar  155  TYR155      0.0417
     28  CE2        9.8340   -2.0860  -47.5160 C.ar  155  TYR155      0.0417
     29  CZ         9.6850   -3.4490  -47.6050 C.ar  155  TYR155      0.1957
     30  OH        10.2250   -4.1260  -48.6610 O.3   155  TYR155     -0.2866
     31  N         15.5050   -7.1650  -42.1640 N.3   186  HIS186     -0.1241
     32  CA        14.7810   -5.8920  -42.0760 C.3   186  HIS186      0.1621
     33  C         13.4810   -5.9650  -41.2190 C.2   186  HIS186      0.2264
     34  O         12.9360   -7.0260  -40.9780 O.2   186  HIS186     -0.2867
     35  CB        14.4320   -5.3270  -43.4790 C.3   186  HIS186      0.0745
     36  CG        13.3200   -6.0490  -44.1730 C.ar  186  HIS186      0.0817
     37  ND1       13.5260   -7.1660  -44.9730 N.ar  186  HIS186     -0.2268
     38  CD2       11.9850   -5.8060  -44.2100 C.ar  186  HIS186      0.1154
     39  CE1       12.3700   -7.5680  -45.4870 C.ar  186  HIS186      0.1986
     40  NE2       11.4130   -6.7800  -45.0220 N.ar  186  HIS186     -0.2212
     41  N          9.5590   -5.5330  -40.9050 N.3   188  GLU188     -0.1231
     42  CA         8.4540   -5.6480  -41.8540 C.3   188  GLU188      0.1699
     43  C          7.4360   -4.5680  -41.5680 C.2   188  GLU188      0.2592
     44  O          7.7250   -3.6410  -40.8520 O.2   188  GLU188     -0.2718
     45  CB         7.8080   -7.0330  -41.7690 C.3   188  GLU188      0.0402
     46  CG         8.1260   -7.9830  -42.9580 C.3   188  GLU188      0.1161
     47  CD         7.5990   -7.4710  -44.2980 C.2   188  GLU188      0.3649
     48  OE1        8.2440   -7.7920  -45.3550 O.co2 188  GLU188     -0.2457
     49  OE2        6.5620   -6.7310  -44.2580 O.co2 188  GLU188     -0.2457
     50  N          6.2380   -4.6910  -42.1010 N.am  189  VAL189     -0.1980
     51  CA         5.3480   -3.5490  -42.1420 C.3   189  VAL189      0.1595
     52  C          4.6660   -3.2290  -40.8160 C.2   189  VAL189      0.2287
     53  O          4.4870   -2.0470  -40.4380 O.2   189  VAL189     -0.2864
     54  CB         4.2740   -3.7910  -43.2240 C.3   189  VAL189      0.0276
     55  CG1        3.0950   -2.8190  -43.0580 C.3   189  VAL189      0.0022
     56  CG2        4.9290   -3.7260  -44.6380 C.3   189  VAL189      0.0022
     57  N          7.3450   -6.3340  -36.1780 N.3   193  GLN193     -0.1245
     58  CA         7.3820   -7.3890  -37.2160 C.3   193  GLN193      0.1566
     59  C          8.6860   -7.3860  -37.9860 C.2   193  GLN193      0.2260
     60  O          9.1600   -6.3240  -38.4120 O.2   193  GLN193     -0.2867
     61  CB         6.1960   -7.2970  -38.1820 C.3   193  GLN193      0.0367
     62  CG         5.8840   -8.6230  -38.8640 C.3   193  GLN193      0.0905
     63  CD         4.8610   -8.5130  -40.0130 C.2   193  GLN193      0.2608
     64  OE1        4.3900   -9.5190  -40.5340 O.2   193  GLN193     -0.2717
     65  NE2        4.4960   -7.3030  -40.3720 N.am  193  GLN193     -0.0878
     66  N         11.7850   -9.7920  -40.5200 N.3   195  GLU195     -0.1245
     67  CA        11.9160  -10.7180  -41.6180 C.3   195  GLU195      0.1567
     68  C         13.3810  -10.9590  -41.8530 C.2   195  GLU195      0.2260
     69  O         14.1840   -9.9920  -41.9330 O.2   195  GLU195     -0.2867
     70  CB        11.2980  -10.1870  -42.8770 C.3   195  GLU195      0.0388
     71  CG        11.7500  -10.9860  -44.0790 C.3   195  GLU195      0.1160
     72  CD        10.7110  -10.9820  -45.2770 C.2   195  GLU195      0.3649
     73  OE1       11.0860  -11.3820  -46.4160 O.co2 195  GLU195     -0.2457
     74  OE2        9.5250  -10.5730  -45.0800 O.co2 195  GLU195     -0.2457
     75  N         -0.8730   -5.9350  -40.3930 N.3   239  ASN239     -0.1225
     76  CA        -0.5280   -7.0650  -41.2320 C.3   239  ASN239      0.1785
     77  C         -0.3810   -8.3390  -40.4080 C.2   239  ASN239      0.2597
     78  O          0.1080   -8.2720  -39.2940 O.2   239  ASN239     -0.2718
     79  CB         0.7820   -6.8090  -41.9920 C.3   239  ASN239      0.1169
     80  CG         0.6360   -5.7730  -43.1340 C.2   239  ASN239      0.2627
     81  OD1        1.4460   -5.7330  -44.0650 O.2   239  ASN239     -0.2716
     82  ND2       -0.4100   -4.9680  -43.0790 N.am  239  ASN239     -0.0877
     83  N         -0.8110   -9.4940  -40.9460 N.am  240  GLY240     -0.1957
     84  CA        -0.4400  -10.7970  -40.4060 C.3   240  GLY240      0.1869
     85  C          0.9740  -11.1250  -40.8530 C.2   240  GLY240      0.2309
     86  O          1.6360  -10.3320  -41.5040 O.2   240  GLY240     -0.2863
     87  N          3.1640  -13.7040  -43.3370 N.3   242  GLY242     -0.1225
     88  CA         3.0430  -14.7570  -44.3400 C.3   242  GLY242      0.1811
     89  C          4.2710  -15.6440  -44.3520 C.2   242  GLY242      0.2280
     90  O          5.3170  -15.2800  -43.7860 O.2   242  GLY242     -0.2866
     91  N          5.5380  -16.6760  -47.6860 N.3   244  HIS244     -0.1241
     92  CA         5.5170  -16.7260  -49.1510 C.3   244  HIS244      0.1621
     93  C          6.4010  -17.8150  -49.7040 C.2   244  HIS244      0.2264
     94  O          7.6250  -17.8350  -49.4520 O.2   244  HIS244     -0.2867
     95  CB         6.0750  -15.4250  -49.6940 C.3   244  HIS244      0.0745
     96  CG         5.3060  -14.2070  -49.2930 C.ar  244  HIS244      0.0817
     97  ND1        5.8290  -12.9380  -49.3980 N.ar  244  HIS244     -0.2268
     98  CD2        4.0520  -14.0560  -48.8260 C.ar  244  HIS244      0.1154
     99  CE1        4.9470  -12.0600  -48.9810 C.ar  244  HIS244      0.1986
    100  NE2        3.8580  -12.7120  -48.6270 N.ar  244  HIS244     -0.2212
    101  N         -5.8710  -13.6360  -41.4150 N.3   297  ARG297     -0.1245
    102  CA        -4.9030  -12.9480  -42.3040 C.3   297  ARG297      0.1563
    103  C         -5.3880  -12.8550  -43.7630 C.2   297  ARG297      0.2260
    104  O         -5.0180  -11.9800  -44.5260 O.2   297  ARG297     -0.2867
    105  CB        -3.5320  -13.6210  -42.2840 C.3   297  ARG297      0.0307
    106  CG        -2.6000  -13.0480  -43.3180 C.3   297  ARG297      0.0489
    107  CD        -1.1290  -13.5350  -43.1890 C.3   297  ARG297      0.2205
    108  NE        -0.9620  -14.7100  -44.0110 N.pl3 297  ARG297     -0.0865
    109  CZ        -0.6170  -14.7300  -45.2980 C.cat 297  ARG297      0.5346
    110  NH1       -0.3180  -13.6280  -45.9850 N.pl3 297  ARG297      0.1354
    111  NH2       -0.5810  -15.8980  -45.8940 N.pl3 297  ARG297      0.1354
    112  N         -3.9570   -6.1250  -46.5300 N.3   302  TYR302     -0.1227
    113  CA        -2.7330   -6.2450  -45.7480 C.3   302  TYR302      0.1736
    114  C         -1.6840   -7.0500  -46.5430 C.2   302  TYR302      0.2595
    115  O         -0.9070   -7.8650  -46.0020 O.2   302  TYR302     -0.2718
    116  CB        -3.0540   -6.8770  -44.3760 C.3   302  TYR302      0.0548
    117  CG        -4.1680   -6.2010  -43.6090 C.ar  302  TYR302     -0.0200
    118  CD1       -5.4810   -6.6480  -43.6730 C.ar  302  TYR302     -0.0009
    119  CD2       -3.9090   -5.0920  -42.8180 C.ar  302  TYR302     -0.0009
    120  CE1       -6.5020   -6.0110  -42.9200 C.ar  302  TYR302      0.0417
    121  CE2       -4.9140   -4.4530  -42.0760 C.ar  302  TYR302      0.0417
    122  CZ        -6.2010   -4.9100  -42.1380 C.ar  302  TYR302      0.1957
    123  OH        -7.1670   -4.2630  -41.3900 O.3   302  TYR302     -0.2866
    124  N         -1.6600   -6.8120  -47.8420 N.am  303  GLU303     -0.1965
    125  CA        -0.7530   -7.5170  -48.7300 C.3   303  GLU303      0.1733
    126  C         -0.7920   -9.0320  -48.5280 C.2   303  GLU303      0.2616
    127  O          0.2060   -9.6820  -48.7730 O.2   303  GLU303     -0.2715
    128  CB         0.6850   -6.9830  -48.6020 C.3   303  GLU303      0.0429
    129  CG         0.8280   -5.4680  -48.7430 C.3   303  GLU303      0.1163
    130  CD         2.2990   -4.9780  -48.9180 C.2   303  GLU303      0.3649
    131  OE1        2.8370   -4.9460  -50.0540 O.co2 303  GLU303     -0.2457
    132  OE2        2.9240   -4.6070  -47.8940 O.co2 303  GLU303     -0.2457
    133  N         -1.9400   -9.5710  -48.1080 N.am  304  ALA304     -0.1977
    134  CA        -2.2030  -11.0350  -48.0870 C.3   304  ALA304      0.1597
    135  C         -3.1760  -11.3400  -49.2050 C.2   304  ALA304      0.2287
    136  O         -3.9790  -10.5090  -49.5710 O.2   304  ALA304     -0.2864
    137  CB        -2.8310  -11.4890  -46.7370 C.3   304  ALA304      0.0319
    138  N          1.4350   -7.1660  -55.5380 N.3   315  ARG315     -0.1245
    139  CA         1.3680   -7.7210  -54.1670 C.3   315  ARG315      0.1563
    140  C         -0.0410   -7.9280  -53.5890 C.2   315  ARG315      0.2260
    141  O         -0.2030   -8.1190  -52.3720 O.2   315  ARG315     -0.2867
    142  CB         2.2060   -6.8750  -53.1960 C.3   315  ARG315      0.0307
    143  CG         3.5820   -7.4170  -53.0120 C.3   315  ARG315      0.0489
    144  CD         4.4520   -6.3990  -52.3770 C.3   315  ARG315      0.2205
    145  NE         5.7840   -6.9430  -52.1430 N.pl3 315  ARG315     -0.0865
    146  CZ         6.8160   -6.8340  -52.9780 C.cat 315  ARG315      0.5346
    147  NH1        6.6600   -6.1690  -54.1400 N.pl3 315  ARG315      0.1354
    148  NH2        8.0090   -7.3910  -52.6550 N.pl3 315  ARG315      0.1354
    149  N          2.2290  -13.7710  -57.3620 N.3   320  ARG320     -0.1245
    150  CA         2.9270  -12.6310  -57.9020 C.3   320  ARG320      0.1563
    151  C          4.0630  -13.2410  -58.6530 C.2   320  ARG320      0.2260
    152  O          4.7370  -14.1270  -58.1220 O.2   320  ARG320     -0.2867
    153  CB         3.4690  -11.6470  -56.8200 C.3   320  ARG320      0.0307
    154  CG         4.6090  -10.7080  -57.3700 C.3   320  ARG320      0.0489
    155  CD         5.0950   -9.5660  -56.4490 C.3   320  ARG320      0.2205
    156  NE         5.8440  -10.1650  -55.3760 N.pl3 320  ARG320     -0.0865
    157  CZ         7.1430  -10.0410  -55.1740 C.cat 320  ARG320      0.5346
    158  NH1        7.6840  -10.7150  -54.1980 N.pl3 320  ARG320      0.1354
    159  NH2        7.8960   -9.2400  -55.8990 N.pl3 320  ARG320      0.1354
    160  N          5.5790  -16.8580  -56.9370 N.3   332  GLU332     -0.1245
    161  CA         5.5210  -16.6430  -55.4950 C.3   332  GLU332      0.1567
    162  C          4.1130  -16.8030  -55.0290 C.2   332  GLU332      0.2260
    163  O          3.2870  -16.0110  -55.4170 O.2   332  GLU332     -0.2867
    164  CB         5.9980  -15.2550  -55.1440 C.3   332  GLU332      0.0388
    165  CG         5.8700  -14.9360  -53.6770 C.3   332  GLU332      0.1160
    166  CD         5.9530  -13.4690  -53.3810 C.2   332  GLU332      0.3649
    167  OE1        5.1890  -12.6640  -54.0050 O.co2 332  GLU332     -0.2457
    168  OE2        6.7980  -13.1180  -52.5230 O.co2 332  GLU332     -0.2457
    169  N          1.5890  -16.3300  -52.3600 N.3   334  ARG334     -0.1245
    170  CA         1.6420  -15.4660  -51.1460 C.3   334  ARG334      0.1563
    171  C          0.6780  -15.8920  -50.0400 C.2   334  ARG334      0.2260
    172  O          0.5710  -15.2750  -49.0120 O.2   334  ARG334     -0.2867
    173  CB         1.4230  -13.9930  -51.5310 C.3   334  ARG334      0.0307
    174  CG         2.3740  -13.5110  -52.6380 C.3   334  ARG334      0.0489
    175  CD         2.0320  -12.1070  -53.1470 C.3   334  ARG334      0.2205
    176  NE         1.8860  -11.1730  -52.0510 N.pl3 334  ARG334     -0.0865
    177  CZ         2.8920  -10.5430  -51.4120 C.cat 334  ARG334      0.5346
    178  NH1        2.6010   -9.7070  -50.3980 N.pl3 334  ARG334      0.1354
    179  NH2        4.1860  -10.7410  -51.7390 N.pl3 334  ARG334      0.1354
@<TRIPOS>BOND
     1   151   152    2
     2   151   150    1
     3   150   149    1
     4   150   153    1
     5   154   153    1
     6   154   155    1
     7   160   161    1
     8   155   156    1
     9   159   157    1
    10   138   139    1
    11   161   164    1
    12   161   162    1
    13   163   162    2
    14   156   157    2
    15   157   158    1
    16   164   165    1
    17   139   140    1
    18   139   142    1
    19   147   146    1
    20   167   166   ar
    21   165   166    1
    22   140   141    2
    23   166   168   ar
    24   142   143    1
    25   175   174    1
    26   175   176    1
    27   143   144    1
    28   146   148    1
    29   146   145    2
    30   174   173    1
    31   144   145    1
    32   169   170    1
    33   176   177    2
    34   179   177    1
    35   173   170    1
    36   177   178    1
    37   170   171    1
    38     9     7   ar
    39   131   130   ar
    40   171   172    2
    41    93    94    2
    42    93    92    1
    43    95    96    1
    44    95    92    1
    45   136   135    2
    46    97    96   ar
    47    97    99   ar
    48     7     8   ar
    49     7     6    1
    50    96    98   ar
    51   135   134    1
    52    92    91    1
    53    99   100   ar
    54   130   129    1
    55   130   132   ar
    56    98   100   ar
    57   127   126    2
    58   129   128    1
    59   125   128    1
    60   125   126    1
    61   125   124    1
    62    30    29    1
    63   126   133   am
    64     6     5    1
    65   133   134    1
    66   134   137    1
    67   124   114   am
    68    29    28   ar
    69    29    27   ar
    70    28    26   ar
    71     5     2    1
    72     1     2    1
    73    27    25   ar
    74   114   115    2
    75   114   113    1
    76   112   113    1
    77    26    24   ar
    78    73    72   ar
    79     2     3    1
    80   110   109    1
    81   111   109    1
    82   113   116    1
    83    25    24   ar
    84    39    40   ar
    85    39    37   ar
    86    24    23    1
    87    48    47   ar
    88   109   108    2
    89    72    74   ar
    90    72    71    1
    91    40    38   ar
    92    37    36   ar
    93     3     4    2
    94    18    16   ar
    95    56    54    1
    96   104   103    2
    97   116   117    1
    98    89    88    1
    99    89    90    2
   100    88    87    1
   101    23    20    1
   102    47    49   ar
   103    47    46    1
   104    38    36   ar
   105    36    35    1
   106    71    70    1
   107    81    80    2
   108   108   107    1
   109    16    17   ar
   110    16    15    1
   111   103   102    1
   112   118   117   ar
   113   118   120   ar
   114   117   119   ar
   115    22    21    2
   116    35    32    1
   117   106   107    1
   118   106   105    1
   119    21    20    1
   120    54    55    1
   121    54    51    1
   122    15    14    1
   123    80    82   am
   124    80    79    1
   125    20    19    1
   126    46    45    1
   127   120   122   ar
   128    70    67    1
   129   119   121   ar
   130   102   105    1
   131   102   101    1
   132    31    32    1
   133    51    50    1
   134    51    52    1
   135   122   121   ar
   136   122   123    1
   137    50    43   am
   138    32    33    1
   139    10    11    1
   140    79    76    1
   141    69    68    2
   142    14    11    1
   143    42    45    1
   144    42    43    1
   145    42    41    1
   146    68    67    1
   147    67    66    1
   148    43    44    2
   149    86    85    2
   150    11    12    1
   151    76    77    1
   152    76    75    1
   153    33    34    2
   154    83    77   am
   155    83    84    1
   156    85    84    1
   157    52    53    2
   158    64    63    2
   159    77    78    2
   160    65    63   am
   161    63    62    1
   162    12    13    2
   163    62    61    1
   164    60    59    2
   165    61    58    1
   166    59    58    1
   167    58    57    1
