@<TRIPOS>MOLECULE
tmp/4lnkA01.pdb
 142 134 0 0 0
SMALL
GASTEIGER

@<TRIPOS>ATOM
      1  N         21.0190   20.6620   17.7130 N.3   127  ASN127     -0.1240
      2  CA        19.9520   21.6670   17.6060 C.3   127  ASN127      0.1653
      3  C         19.3570   22.1190   18.9540 C.2   127  ASN127      0.2266
      4  O         19.4990   21.4430   19.9690 O.2   127  ASN127     -0.2867
      5  CB        18.8520   21.2120   16.6260 C.3   127  ASN127      0.1155
      6  CG        19.2380   21.4250   15.1610 C.2   127  ASN127      0.2627
      7  OD1       20.2010   22.1270   14.8480 O.2   127  ASN127     -0.2716
      8  ND2       18.4690   20.8280   14.2580 N.am  127  ASN127     -0.0877
      9  N         15.9600   24.4840   20.7460 N.3   129  GLY129     -0.1225
     10  CA        14.6920   25.1710   20.5760 C.3   129  GLY129      0.1811
     11  C         14.1850   25.7910   21.8670 C.2   129  GLY129      0.2280
     12  O         13.2060   25.3110   22.4580 O.2   129  GLY129     -0.2866
     13  N         12.7990   27.8900   25.0820 N.3   131  GLU131     -0.1245
     14  CA        11.4650   28.3480   25.4570 C.3   131  GLU131      0.1567
     15  C         11.6020   29.3610   26.5960 C.2   131  GLU131      0.2260
     16  O         11.1680   29.0770   27.7220 O.2   131  GLU131     -0.2867
     17  CB        10.5710   27.1730   25.9080 C.3   131  GLU131      0.0388
     18  CG        10.1270   26.1610   24.8200 C.3   131  GLU131      0.1160
     19  CD         9.3990   24.9290   25.4000 C.2   131  GLU131      0.3649
     20  OE1        9.1190   23.9690   24.6380 O.co2 131  GLU131     -0.2457
     21  OE2        9.1070   24.9150   26.6190 O.co2 131  GLU131     -0.2457
     22  N          8.3240   30.4860   16.4100 N.3   183  GLU183     -0.1245
     23  CA         7.4180   29.3500   16.3550 C.3   183  GLU183      0.1567
     24  C          6.0010   29.7490   16.8020 C.2   183  GLU183      0.2260
     25  O          5.0450   29.6270   16.0310 O.2   183  GLU183     -0.2867
     26  CB         7.9770   28.2120   17.2220 C.3   183  GLU183      0.0388
     27  CG         7.3560   26.8330   16.9760 C.3   183  GLU183      0.1160
     28  CD         7.4540   26.3820   15.5170 C.2   183  GLU183      0.3649
     29  OE1        8.5760   26.0800   15.0480 O.co2 183  GLU183     -0.2457
     30  OE2        6.4020   26.3300   14.8360 O.co2 183  GLU183     -0.2457
     31  N          8.4050   31.3000   21.7930 N.3   197  ASP197     -0.1225
     32  CA         9.1740   30.0980   21.5850 C.3   197  ASP197      0.1805
     33  C          9.9160   30.1280   20.2570 C.2   197  ASP197      0.2598
     34  O          9.4570   30.7440   19.2950 O.2   197  ASP197     -0.2718
     35  CB         8.2260   28.9260   21.6580 C.3   197  ASP197      0.1424
     36  CG         7.2760   29.0500   22.8180 C.2   197  ASP197      0.3668
     37  OD1        7.7630   28.9020   23.9500 O.co2 197  ASP197     -0.2456
     38  OD2        6.0620   29.3110   22.6170 O.co2 197  ASP197     -0.2456
     39  N         11.0640   29.4540   20.2130 N.am  198  PHE198     -0.1962
     40  CA        11.9590   29.5210   19.0560 C.3   198  PHE198      0.1771
     41  C         11.8910   28.2980   18.1480 C.2   198  PHE198      0.2619
     42  O         11.6150   27.1950   18.6060 O.2   198  PHE198     -0.2715
     43  CB        13.4120   29.7070   19.5160 C.3   198  PHE198      0.0574
     44  CG        13.7500   31.1190   19.9040 C.ar  198  PHE198     -0.0200
     45  CD1       15.0650   31.4990   20.1300 C.ar  198  PHE198     -0.0042
     46  CD2       12.7470   32.0690   20.0440 C.ar  198  PHE198     -0.0042
     47  CE1       15.3670   32.8070   20.4860 C.ar  198  PHE198     -0.0003
     48  CE2       13.0420   33.3650   20.3950 C.ar  198  PHE198     -0.0003
     49  CZ        14.3510   33.7370   20.6160 C.ar  198  PHE198     -0.0000
     50  N         12.1590   28.4950   16.8600 N.am  199  LYS199     -0.1963
     51  CA        12.3620   27.3640   15.9620 C.3   199  LYS199      0.1728
     52  C         13.7470   26.8180   16.2430 C.2   199  LYS199      0.2616
     53  O         14.6880   27.5880   16.4190 O.2   199  LYS199     -0.2715
     54  CB        12.2550   27.7880   14.4930 C.3   199  LYS199      0.0311
     55  CG        10.8710   27.6050   13.8720 C.3   199  LYS199      0.0038
     56  CD        10.8580   28.0290   12.4110 C.3   199  LYS199      0.0206
     57  CE         9.5310   27.7020   11.7480 C.3   199  LYS199      0.1093
     58  NZ         9.4010   28.4160   10.4500 N.3   199  LYS199     -0.1314
     59  N         13.8760   25.4980   16.3020 N.am  200  TYR200     -0.1974
     60  CA        15.1720   24.8970   16.5830 C.3   200  TYR200      0.1639
     61  C         16.2220   25.3660   15.5790 C.2   200  TYR200      0.2290
     62  O         15.9070   25.6360   14.4160 O.2   200  TYR200     -0.2864
     63  CB        15.0860   23.3670   16.6030 C.3   200  TYR200      0.0560
     64  CG        14.7060   22.7250   15.2820 C.ar  200  TYR200     -0.0198
     65  CD1       15.4580   21.6760   14.7620 C.ar  200  TYR200     -0.0009
     66  CD2       13.5870   23.1520   14.5660 C.ar  200  TYR200     -0.0009
     67  CE1       15.1200   21.0790   13.5610 C.ar  200  TYR200      0.0417
     68  CE2       13.2390   22.5600   13.3630 C.ar  200  TYR200      0.0417
     69  CZ        14.0110   21.5210   12.8640 C.ar  200  TYR200      0.1957
     70  OH        13.6790   20.9240   11.6660 O.3   200  TYR200     -0.2866
     71  N         15.1220   22.4250   24.4040 N.3   246  ASN246     -0.1225
     72  CA        14.8830   21.2080   23.6460 C.3   246  ASN246      0.1785
     73  C         16.1210   20.9010   22.8180 C.2   246  ASN246      0.2597
     74  O         16.4790   21.6720   21.9300 O.2   246  ASN246     -0.2718
     75  CB        13.6360   21.3480   22.7690 C.3   246  ASN246      0.1169
     76  CG        12.3680   21.6100   23.5830 C.2   246  ASN246      0.2627
     77  OD1       11.7660   20.6820   24.1380 O.2   246  ASN246     -0.2716
     78  ND2       11.9570   22.8800   23.6550 N.am  246  ASN246     -0.0877
     79  N         16.7870   19.7920   23.1360 N.am  247  LEU247     -0.1966
     80  CA        18.0340   19.4110   22.4740 C.3   247  LEU247      0.1728
     81  C         17.8460   18.1710   21.6070 C.2   247  LEU247      0.2616
     82  O         17.0620   17.2850   21.9390 O.2   247  LEU247     -0.2715
     83  CB        19.1150   19.1170   23.5110 C.3   247  LEU247      0.0311
     84  CG        19.3380   20.1100   24.6430 C.3   247  LEU247      0.0022
     85  CD1       19.1960   19.4320   25.9720 C.3   247  LEU247      0.0001
     86  CD2       20.7070   20.6950   24.5280 C.3   247  LEU247      0.0001
     87  N         18.5830   18.0940   20.5070 N.am  248  SER248     -0.1950
     88  CA        18.4800   16.9390   19.6360 C.3   248  SER248      0.1924
     89  C         19.7650   16.7270   18.8410 C.2   248  SER248      0.2314
     90  O         20.1090   17.5220   17.9640 O.2   248  SER248     -0.2863
     91  CB        17.2870   17.0960   18.6950 C.3   248  SER248      0.2116
     92  OG        17.5380   18.0900   17.7200 O.3   248  SER248     -0.2180
     93  N         22.0010   15.4640   16.0660 N.3   250  PHE250     -0.1241
     94  CA        21.9340   14.9610   14.6950 C.3   250  PHE250      0.1605
     95  C         23.2580   14.2930   14.3120 C.2   250  PHE250      0.2264
     96  O         24.2860   14.5280   14.9550 O.2   250  PHE250     -0.2867
     97  CB        21.6100   16.0890   13.7140 C.3   250  PHE250      0.0534
     98  CG        20.1690   16.5060   13.7140 C.ar  250  PHE250     -0.0203
     99  CD1       19.5240   16.8390   14.8930 C.ar  250  PHE250     -0.0042
    100  CD2       19.4650   16.5930   12.5230 C.ar  250  PHE250     -0.0042
    101  CE1       18.1950   17.2330   14.8860 C.ar  250  PHE250     -0.0003
    102  CE2       18.1360   16.9880   12.5060 C.ar  250  PHE250     -0.0003
    103  CZ        17.4990   17.3070   13.6910 C.ar  250  PHE250     -0.0000
    104  N         18.0570   12.9490   12.7170 N.3   255  ASN255     -0.1240
    105  CA        17.9140   12.9130   14.1730 C.3   255  ASN255      0.1653
    106  C         18.3770   11.6180   14.8670 C.2   255  ASN255      0.2266
    107  O         17.6320   10.6560   14.9890 O.2   255  ASN255     -0.2867
    108  CB        16.4970   13.2810   14.6000 C.3   255  ASN255      0.1155
    109  CG        16.3770   13.4380   16.0920 C.2   255  ASN255      0.2627
    110  OD1       16.9570   12.6670   16.8560 O.2   255  ASN255     -0.2716
    111  ND2       15.6390   14.4470   16.5210 N.am  255  ASN255     -0.0877
    112  N          5.8920   14.7810   20.1720 N.3   324  SER324     -0.1217
    113  CA         6.5880   14.8680   18.8880 C.3   324  SER324      0.1889
    114  C          7.6540   13.8140   18.6750 C.2   324  SER324      0.2288
    115  O          8.3200   13.4040   19.6190 O.2   324  SER324     -0.2866
    116  CB         7.2410   16.2400   18.7510 C.3   324  SER324      0.2089
    117  OG         6.3190   17.2780   19.0150 O.3   324  SER324     -0.2183
    118  N         12.0710   13.3740   13.1160 N.3   327  ILE327     -0.1231
    119  CA        13.2060   14.2800   13.2550 C.3   327  ILE327      0.1692
    120  C         13.0710   15.0550   14.5570 C.2   327  ILE327      0.2592
    121  O         14.0620   15.5130   15.1260 O.2   327  ILE327     -0.2718
    122  CB        13.2980   15.2760   12.0890 C.3   327  ILE327      0.0266
    123  CG1       11.8980   15.7640   11.7000 C.3   327  ILE327      0.0019
    124  CG2       14.0020   14.6330   10.9080 C.3   327  ILE327      0.0020
    125  CD1       11.8660   16.6600   10.4710 C.3   327  ILE327      0.0001
    126  N         11.8350   15.1870   15.0260 N.am  328  SER328     -0.1952
    127  CA        11.5480   15.9540   16.2260 C.3   328  SER328      0.1924
    128  C         11.7420   15.1380   17.5140 C.2   328  SER328      0.2314
    129  O         10.9620   15.2620   18.4610 O.2   328  SER328     -0.2863
    130  CB        10.1270   16.5190   16.1480 C.3   328  SER328      0.2116
    131  OG         9.8870   17.1150   14.8850 O.3   328  SER328     -0.2180
    132  N         13.7140   14.7950   20.6910 N.3   330  ARG330     -0.1245
    133  CA        14.5980   15.6630   21.4700 C.3   330  ARG330      0.1563
    134  C         14.6260   15.3460   22.9550 C.2   330  ARG330      0.2260
    135  O         13.8660   14.5140   23.4370 O.2   330  ARG330     -0.2867
    136  CB        14.2350   17.1410   21.2630 C.3   330  ARG330      0.0307
    137  CG        12.7700   17.4710   21.4750 C.3   330  ARG330      0.0489
    138  CD        12.0200   17.3530   20.1750 C.3   330  ARG330      0.2205
    139  NE        10.5730   17.3340   20.3540 N.pl3 330  ARG330     -0.0865
    140  CZ         9.8620   18.3690   20.7830 C.cat 330  ARG330      0.5346
    141  NH1        8.5470   18.2740   20.9060 N.pl3 330  ARG330      0.1354
    142  NH2       10.4690   19.5000   21.1030 N.pl3 330  ARG330      0.1354
@<TRIPOS>BOND
     1    58    57    1
     2   125   123    1
     3   124   122    1
     4    70    69    1
     5   123   122    1
     6    57    56    1
     7   122   119    1
     8    56    55    1
     9   102   100   ar
    10   102   103   ar
    11   100    98   ar
    12   104   105    1
    13    69    68   ar
    14    69    67   ar
    15   118   119    1
    16   119   120    1
    17    68    66   ar
    18    67    65   ar
    19   103   101   ar
    20    97    98    1
    21    97    94    1
    22    98    99   ar
    23    55    54    1
    24   105   108    1
    25   105   106    1
    26     8     6   am
    27    95    94    1
    28    95    96    2
    29    62    61    2
    30    54    51    1
    31   120   126   am
    32   120   121    2
    33    66    64   ar
    34   108   109    1
    35    94    93    1
    36    65    64   ar
    37    30    28   ar
    38     7     6    2
    39   106   107    2
    40   131   130    1
    41   101    99   ar
    42   126   127    1
    43    29    28   ar
    44     6     5    1
    45    64    63    1
    46    28    27    1
    47    61    60    1
    48    51    52    1
    49    51    50    1
    50    25    24    2
    51   109   111   am
    52   109   110    2
    53   130   127    1
    54   127   128    1
    55    52    59   am
    56    52    53    2
    57    59    60    1
    58    23    22    1
    59    23    24    1
    60    23    26    1
    61    60    63    1
    62     5     2    1
    63    50    41   am
    64    27    26    1
    65   128   129    2
    66     2     1    1
    67     2     3    1
    68    92    91    1
    69    90    89    2
    70    41    42    2
    71    41    40    1
    72   114   113    1
    73   114   115    2
    74    91    88    1
    75   116   113    1
    76   116   117    1
    77    89    88    1
    78   113   112    1
    79     3     4    2
    80    40    43    1
    81    40    39    1
    82    34    33    2
    83    43    44    1
    84    88    87    1
    85    44    46   ar
    86    44    45   ar
    87    46    48   ar
    88    45    47   ar
    89   138   139    1
    90   138   137    1
    91    39    33   am
    92    33    32    1
    93   139   140    2
    94    48    49   ar
    95    47    49   ar
    96    87    81   am
    97    10     9    1
    98    10    11    1
    99   132   133    1
   100   140   141    1
   101   140   142    1
   102   136   133    1
   103   136   137    1
   104   133   134    1
   105    32    35    1
   106    32    31    1
   107    81    82    2
   108    81    80    1
   109    35    36    1
   110    11    12    2
   111    74    73    2
   112    80    79    1
   113    80    83    1
   114    38    36   ar
   115    75    76    1
   116    75    72    1
   117    73    79   am
   118    73    72    1
   119    36    37   ar
   120   134   135    2
   121    83    84    1
   122    76    78   am
   123    76    77    2
   124    72    71    1
   125    86    84    1
   126    20    19   ar
   127    84    85    1
   128    18    19    1
   129    18    17    1
   130    13    14    1
   131    19    21   ar
   132    14    17    1
   133    14    15    1
   134    15    16    2
