@<TRIPOS>MOLECULE
tmp/4lnkA00.pdb
 115 108 0 0 0
SMALL
GASTEIGER

@<TRIPOS>ATOM
      1  N         11.0950   32.4810   29.0530 N.3   133  GLU133     -0.1245
      2  CA         9.9850   33.2460   29.6640 C.3   133  GLU133      0.1567
      3  C         10.4420   34.6190   30.2270 C.2   133  GLU133      0.2260
      4  O         11.6220   34.7950   30.5090 O.2   133  GLU133     -0.2867
      5  CB         9.3080   32.4020   30.7560 C.3   133  GLU133      0.0388
      6  CG         8.7370   31.0830   30.2440 C.3   133  GLU133      0.1160
      7  CD         8.4960   30.0650   31.3510 C.2   133  GLU133      0.3649
      8  OE1        8.5310   30.4720   32.5370 O.co2 133  GLU133     -0.2457
      9  OE2        8.2780   28.8630   31.0310 O.co2 133  GLU133     -0.2457
     10  N         -2.2340   31.5930   32.4420 N.3   155  TYR155     -0.1241
     11  CA        -1.7910   30.5900   31.4730 C.3   155  TYR155      0.1605
     12  C         -2.5290   30.5750   30.1180 C.2   155  TYR155      0.2264
     13  O         -3.7520   30.3740   30.0620 O.2   155  TYR155     -0.2867
     14  CB        -1.8360   29.2010   32.1040 C.3   155  TYR155      0.0534
     15  CG        -0.8160   28.2670   31.5170 C.ar  155  TYR155     -0.0201
     16  CD1        0.5100   28.6560   31.3840 C.ar  155  TYR155     -0.0009
     17  CD2       -1.1690   27.0010   31.0990 C.ar  155  TYR155     -0.0009
     18  CE1        1.4640   27.7990   30.8400 C.ar  155  TYR155      0.0417
     19  CE2       -0.2240   26.1340   30.5520 C.ar  155  TYR155      0.0417
     20  CZ         1.0940   26.5370   30.4250 C.ar  155  TYR155      0.1957
     21  OH         2.0340   25.6800   29.8820 O.3   155  TYR155     -0.2866
     22  N          2.0410   33.7340   29.9290 N.3   188  GLU188     -0.1231
     23  CA         2.5180   32.7350   30.9130 C.3   188  GLU188      0.1699
     24  C          1.8300   32.7270   32.3060 C.2   188  GLU188      0.2592
     25  O          1.3040   33.7510   32.7720 O.2   188  GLU188     -0.2718
     26  CB         4.0440   32.8150   31.0770 C.3   188  GLU188      0.0402
     27  CG         4.8180   31.7580   30.2990 C.3   188  GLU188      0.1161
     28  CD         4.3930   30.3300   30.6550 C.2   188  GLU188      0.3649
     29  OE1        4.6830   29.3760   29.8740 O.co2 188  GLU188     -0.2457
     30  OE2        3.7670   30.1670   31.7290 O.co2 188  GLU188     -0.2457
     31  N          1.8650   31.5620   32.9550 N.am  189  VAL189     -0.1980
     32  CA         1.2620   31.3110   34.2730 C.3   189  VAL189      0.1595
     33  C          1.0320   32.4950   35.2370 C.2   189  VAL189      0.2287
     34  O          0.0350   32.5110   35.9600 O.2   189  VAL189     -0.2864
     35  CB         2.0570   30.2380   35.0400 C.3   189  VAL189      0.0276
     36  CG1        1.4520   30.0050   36.4100 C.3   189  VAL189      0.0022
     37  CG2        2.1070   28.9520   34.2550 C.3   189  VAL189      0.0022
     38  N          5.8510   34.2660   27.2300 N.3   195  GLU195     -0.1245
     39  CA         6.7600   33.3630   26.5140 C.3   195  GLU195      0.1567
     40  C          6.6630   33.5350   24.9840 C.2   195  GLU195      0.2260
     41  O          5.5900   33.8320   24.4380 O.2   195  GLU195     -0.2867
     42  CB         6.5180   31.9030   26.9340 C.3   195  GLU195      0.0388
     43  CG         7.4320   30.8610   26.2790 C.3   195  GLU195      0.1160
     44  CD         7.2880   29.4490   26.8760 C.2   195  GLU195      0.3649
     45  OE1        6.6250   29.2740   27.9220 O.co2 195  GLU195     -0.2457
     46  OE2        7.8520   28.4970   26.2960 O.co2 195  GLU195     -0.2457
     47  N          4.8220   32.3640   40.2270 N.3   239  ASN239     -0.1225
     48  CA         5.5440   31.5390   39.2590 C.3   239  ASN239      0.1785
     49  C          6.7920   32.2650   38.7250 C.2   239  ASN239      0.2597
     50  O          6.8020   33.4920   38.5730 O.2   239  ASN239     -0.2718
     51  CB         4.6110   31.1070   38.1170 C.3   239  ASN239      0.1169
     52  CG         5.2710   30.1330   37.1550 C.2   239  ASN239      0.2627
     53  OD1        5.3390   30.3680   35.9400 O.2   239  ASN239     -0.2716
     54  ND2        5.7680   29.0330   37.6980 N.am  239  ASN239     -0.0877
     55  N          7.8530   31.5110   38.4690 N.am  240  GLY240     -0.1957
     56  CA         9.0880   32.1060   37.9930 C.3   240  GLY240      0.1869
     57  C          9.4120   31.7480   36.5550 C.2   240  GLY240      0.2309
     58  O          9.0930   30.6540   36.0850 O.2   240  GLY240     -0.2863
     59  N         11.4080   30.4780   33.4440 N.3   242  GLY242     -0.1225
     60  CA        12.4480   29.5180   33.1170 C.3   242  GLY242      0.1811
     61  C         12.7560   29.5040   31.6260 C.2   242  GLY242      0.2280
     62  O         12.2300   30.3080   30.8520 O.2   242  GLY242     -0.2866
     63  N         13.3570   26.2040   29.2320 N.3   244  HIS244     -0.1241
     64  CA        13.5810   24.8200   28.8130 C.3   244  HIS244      0.1621
     65  C         14.4360   24.8670   27.5620 C.2   244  HIS244      0.2264
     66  O         14.3970   25.8420   26.8070 O.2   244  HIS244     -0.2867
     67  CB        12.2590   24.0600   28.5750 C.3   244  HIS244      0.0745
     68  CG        11.2370   24.2620   29.6450 C.ar  244  HIS244      0.0817
     69  ND1        9.9770   23.6830   29.5710 N.ar  244  HIS244     -0.2268
     70  CD2       11.2440   24.9670   30.8000 C.ar  244  HIS244      0.1154
     71  CE1        9.2760   24.0220   30.6260 C.ar  244  HIS244      0.1986
     72  NE2       10.0250   24.8080   31.3950 N.ar  244  HIS244     -0.2212
     73  N         13.6270   30.0160   42.8680 N.3   297  ARG297     -0.1245
     74  CA        12.6680   29.4300   41.9110 C.3   297  ARG297      0.1563
     75  C         12.6210   27.9140   42.0020 C.2   297  ARG297      0.2260
     76  O         11.5910   27.3110   41.7020 O.2   297  ARG297     -0.2867
     77  CB        12.9950   29.7780   40.4530 C.3   297  ARG297      0.0307
     78  CG        12.0990   29.0290   39.4330 C.3   297  ARG297      0.0489
     79  CD        12.2680   29.5590   38.0380 C.3   297  ARG297      0.2205
     80  NE        13.4090   28.9730   37.3580 N.pl3 297  ARG297     -0.0865
     81  CZ        13.3160   27.8340   36.6880 C.cat 297  ARG297      0.5346
     82  NH1       12.1440   27.1790   36.6550 N.pl3 297  ARG297      0.1354
     83  NH2       14.3830   27.3510   36.0680 N.pl3 297  ARG297      0.1354
     84  N          5.3000   24.8810   40.2340 N.3   303  GLU303     -0.1231
     85  CA         5.7630   24.1020   39.0850 C.3   303  GLU303      0.1699
     86  C          7.1720   24.4830   38.6000 C.2   303  GLU303      0.2592
     87  O          7.3490   25.4330   37.8270 O.2   303  GLU303     -0.2718
     88  CB         4.7440   24.1310   37.9240 C.3   303  GLU303      0.0402
     89  CG         4.6390   25.4550   37.1230 C.3   303  GLU303      0.1161
     90  CD         3.6470   25.3720   35.9550 C.2   303  GLU303      0.3649
     91  OE1        2.9690   26.3940   35.6870 O.co2 303  GLU303     -0.2457
     92  OE2        3.5510   24.2840   35.3220 O.co2 303  GLU303     -0.2457
     93  N          8.1620   23.7260   39.0770 N.am  304  ALA304     -0.1966
     94  CA         9.5460   23.7950   38.5890 C.3   304  ALA304      0.1713
     95  C         10.3030   22.4880   38.9000 C.2   304  ALA304      0.2458
     96  O          9.9560   21.7660   39.8490 O.2   304  ALA304     -0.2730
     97  CB        10.2700   25.0020   39.1790 C.3   304  ALA304      0.0333
     98  N         11.3310   22.1710   38.0920 N.am  305  PRO305     -0.2727
     99  CA        12.1060   20.9260   38.2180 C.3   305  PRO305      0.1402
    100  C         12.9830   20.8240   39.4710 C.2   305  PRO305      0.2269
    101  O         14.2020   20.9200   39.3340 O.2   305  PRO305     -0.2865
    102  CB        13.0170   20.9660   36.9900 C.3   305  PRO305      0.0296
    103  CG        12.3220   21.8440   36.0360 C.3   305  PRO305      0.0237
    104  CD        11.6550   22.8910   36.8530 C.3   305  PRO305      0.0939
    105  N         14.3990   20.8380   31.4260 N.3   334  ARG334     -0.1245
    106  CA        13.4500   21.8300   31.9010 C.3   334  ARG334      0.1563
    107  C         13.9690   22.7580   33.0120 C.2   334  ARG334      0.2260
    108  O         13.3070   23.7480   33.3280 O.2   334  ARG334     -0.2867
    109  CB        12.1250   21.1550   32.2970 C.3   334  ARG334      0.0307
    110  CG        11.5240   20.2580   31.2150 C.3   334  ARG334      0.0489
    111  CD        10.2090   19.6480   31.6640 C.3   334  ARG334      0.2205
    112  NE         9.1740   20.6540   31.8590 N.pl3 334  ARG334     -0.0865
    113  CZ         8.8890   21.2100   33.0340 C.cat 334  ARG334      0.5346
    114  NH1        7.9320   22.1280   33.1200 N.pl3 334  ARG334      0.1354
    115  NH2        9.5620   20.8530   34.1240 N.pl3 334  ARG334      0.1354
@<TRIPOS>BOND
     1    41    40    2
     2    40    39    1
     3    43    44    1
     4    43    42    1
     5    46    44   ar
     6    39    42    1
     7    39    38    1
     8    66    65    2
     9    44    45   ar
    10    65    64    1
    11    67    64    1
    12    67    68    1
    13    64    63    1
    14     1     2    1
    15    69    68   ar
    16    69    71   ar
    17    68    70   ar
    18     2     3    1
    19     2     5    1
    20    29    28   ar
    21    21    20    1
    22    22    23    1
    23    13    12    2
    24    12    11    1
    25     3     4    2
    26     6     5    1
    27     6     7    1
    28    27    28    1
    29    27    26    1
    30    20    19   ar
    31    20    18   ar
    32    19    17   ar
    33    71    72   ar
    34    28    30   ar
    35    70    72   ar
    36    18    16   ar
    37    62    61    2
    38    23    26    1
    39    23    24    1
    40     9     7   ar
    41    17    15   ar
    42   110   111    1
    43   110   109    1
    44     7     8   ar
    45    16    15   ar
    46   105   106    1
    47    11    14    1
    48    11    10    1
    49    15    14    1
    50    61    60    1
    51   111   112    1
    52   112   113    2
    53   106   109    1
    54   106   107    1
    55    24    25    2
    56    24    31   am
    57    31    32    1
    58   107   108    2
    59   113   114    1
    60   113   115    1
    61    60    59    1
    62    37    35    1
    63    32    35    1
    64    32    33    1
    65    35    36    1
    66    33    34    2
    67    92    90   ar
    68    91    90   ar
    69    53    52    2
    70    90    89    1
    71   103   104    1
    72   103   102    1
    73    83    81    1
    74    58    57    2
    75    57    56    1
    76    82    81    1
    77    81    80    2
    78   104    98    1
    79   102    99    1
    80    89    88    1
    81    52    54   am
    82    52    51    1
    83    80    79    1
    84    87    86    2
    85    88    85    1
    86    56    55    1
    87    79    78    1
    88    98    99    1
    89    98    95   am
    90    51    48    1
    91    99   100    1
    92    55    49   am
    93    50    49    2
    94    94    95    1
    95    94    93    1
    96    94    97    1
    97    86    93   am
    98    86    85    1
    99    49    48    1
   100    95    96    2
   101    85    84    1
   102    48    47    1
   103   101   100    2
   104    78    77    1
   105    77    74    1
   106    76    75    2
   107    74    75    1
   108    74    73    1
