@<TRIPOS>MOLECULE
tmp/4lnlA00.pdb
 140 128 0 0 0
SMALL
GASTEIGER

@<TRIPOS>ATOM
      1  N         20.5100   30.0070   18.9540 N.3     6  SER6       -0.1217
      2  CA        20.1870   28.6720   19.4010 C.3     6  SER6        0.1889
      3  C         19.9150   27.8690   18.1540 C.2     6  SER6        0.2288
      4  O         19.9060   28.4300   17.0710 O.2     6  SER6       -0.2866
      5  CB        18.9210   28.7120   20.2530 C.3     6  SER6        0.2089
      6  OG        18.4360   27.4030   20.4740 O.3     6  SER6       -0.2183
      7  N         17.1420   26.2920   17.9390 N.3     8  THR8       -0.1218
      8  CA        15.6810   26.3190   17.9070 C.3     8  THR8        0.1862
      9  C         15.1920   27.1980   16.7560 C.2     8  THR8        0.2287
     10  O         14.0300   27.1000   16.3360 O.2     8  THR8       -0.2866
     11  CB        15.0970   26.8890   19.2270 C.3     8  THR8        0.1770
     12  OG1       15.5920   28.2170   19.4460 O.3     8  THR8       -0.2211
     13  CG2       15.4750   26.0150   20.4060 C.3     8  THR8        0.0375
     14  N          6.0230   21.1490   23.0570 N.3    57  THR57      -0.1203
     15  CA         7.3770   21.6060   23.3680 C.3    57  THR57       0.1994
     16  C          8.1760   20.6650   24.2780 C.2    57  THR57       0.2618
     17  O          7.6140   19.7940   24.9480 O.2    57  THR57      -0.2717
     18  CB         7.3730   22.9630   24.1180 C.3    57  THR57       0.1784
     19  OG1        6.8150   22.7610   25.4190 O.3    57  THR57      -0.2211
     20  CG2        6.5800   24.0450   23.3620 C.3    57  THR57       0.0376
     21  N          9.4920   20.8680   24.3180 N.am   58  GLY58      -0.1942
     22  CA        10.3200   20.0530   25.1880 C.3    58  GLY58       0.2014
     23  C          9.9880   20.4040   26.6420 C.2    58  GLY58       0.2639
     24  O         10.0660   19.5620   27.5340 O.2    58  GLY58      -0.2714
     25  N          9.6370   21.6570   26.9000 N.am   59  THR59      -0.1950
     26  CA         9.2860   22.0300   28.2690 C.3    59  THR59       0.1897
     27  C          8.1120   21.1600   28.7280 C.2    59  THR59       0.2313
     28  O          8.1430   20.5880   29.8260 O.2    59  THR59      -0.2863
     29  CB         8.8710   23.5390   28.3880 C.3    59  THR59       0.1794
     30  OG1       10.0150   24.3630   28.1470 O.3    59  THR59      -0.2208
     31  CG2        8.3540   23.8630   29.8080 C.3    59  THR59       0.0378
     32  N          9.0870   17.5590   29.4090 N.3    62  ASN62      -0.1240
     33  CA         9.7260   17.3610   30.7200 C.3    62  ASN62       0.1653
     34  C          8.7080   17.5080   31.8470 C.2    62  ASN62       0.2266
     35  O          8.6550   16.6720   32.7490 O.2    62  ASN62      -0.2867
     36  CB        10.8770   18.3510   30.9540 C.3    62  ASN62       0.1155
     37  CG        12.1790   17.9020   30.3160 C.2    62  ASN62       0.2627
     38  OD1       12.5560   16.7360   30.3960 O.2    62  ASN62      -0.2716
     39  ND2       12.8900   18.8390   29.7040 N.am   62  ASN62      -0.0877
     40  N         17.8510   21.8740   32.4880 N.3    83  HIS83      -0.1241
     41  CA        16.7040   22.5630   31.9440 C.3    83  HIS83       0.1621
     42  C         15.4040   22.3470   32.6900 C.2    83  HIS83       0.2264
     43  O         14.6620   23.3100   32.8810 O.2    83  HIS83      -0.2867
     44  CB        16.5040   22.1950   30.4750 C.3    83  HIS83       0.0745
     45  CG        15.7540   23.2330   29.7000 C.ar   83  HIS83       0.0817
     46  ND1       14.3760   23.3400   29.7190 N.ar   83  HIS83      -0.2268
     47  CD2       16.1970   24.2310   28.9020 C.ar   83  HIS83       0.1154
     48  CE1       14.0080   24.3610   28.9630 C.ar   83  HIS83       0.1986
     49  NE2       15.0920   24.9160   28.4550 N.ar   83  HIS83      -0.2212
     50  N         15.4890   26.1160   33.8040 N.3    87  PHE87      -0.1241
     51  CA        14.8520   26.8020   32.6770 C.3    87  PHE87       0.1605
     52  C         13.3810   26.5540   32.3530 C.2    87  PHE87       0.2264
     53  O         12.9080   26.9680   31.2990 O.2    87  PHE87      -0.2867
     54  CB        15.6960   26.5650   31.4110 C.3    87  PHE87       0.0534
     55  CG        17.1050   27.1140   31.5020 C.ar   87  PHE87      -0.0203
     56  CD1       18.1940   26.2610   31.6240 C.ar   87  PHE87      -0.0042
     57  CD2       17.3370   28.4880   31.4880 C.ar   87  PHE87      -0.0042
     58  CE1       19.4860   26.7530   31.7340 C.ar   87  PHE87      -0.0003
     59  CE2       18.6390   28.9930   31.6000 C.ar   87  PHE87      -0.0003
     60  CZ        19.7120   28.1140   31.7230 C.ar   87  PHE87      -0.0000
     61  N         20.5400   15.0670   31.7130 N.3   136  GLU136     -0.1196
     62  CA        20.5540   15.8530   30.5430 C.3   136  GLU136      0.1783
     63  C         21.6800   15.5380   29.5350 C.2   136  GLU136      0.2306
     64  O         22.7800   15.7390   29.7770 O.2   136  GLU136     -0.2863
     65  CB        20.4400   17.2860   30.8540 C.2   136  GLU136      0.0071
     66  CG        20.2360   18.2540   29.7850 C.2   136  GLU136      0.0834
     67  CD        19.9620   19.7030   30.2530 C.2   136  GLU136      0.3877
     68  OE1       19.0990   20.0280   30.8830 O.co2 136  GLU136     -0.2406
     69  OE2       20.7570   20.4030   29.8550 O.co2 136  GLU136     -0.2406
     70  N         22.5530   15.8690   25.3500 N.3   138  THR138     -0.1218
     71  CA        23.6770   16.6250   25.7900 C.3   138  THR138      0.1862
     72  C         23.3020   17.7630   26.8070 C.2   138  THR138      0.2287
     73  O         22.3070   18.2180   26.8550 O.2   138  THR138     -0.2866
     74  CB        24.3520   17.3090   24.5530 C.3   138  THR138      0.1770
     75  OG1       23.4790   18.1880   23.9030 O.3   138  THR138     -0.2211
     76  CG2       24.9420   16.4170   23.5790 C.3   138  THR138      0.0375
     77  N         24.3830   21.4370   27.4910 N.3   140  ASN140     -0.1240
     78  CA        25.1190   22.5770   26.9540 C.3   140  ASN140      0.1653
     79  C         26.1220   22.0590   25.9400 C.2   140  ASN140      0.2266
     80  O         27.2710   22.4910   25.9030 O.2   140  ASN140     -0.2867
     81  CB        25.8220   23.3390   28.0740 C.3   140  ASN140      0.1155
     82  CG        24.8410   23.9380   29.0550 C.2   140  ASN140      0.2627
     83  OD1       23.7600   24.3770   28.6680 O.2   140  ASN140     -0.2716
     84  ND2       25.2100   23.9700   30.3300 N.am  140  ASN140     -0.0877
     85  N         16.5790   13.9640   29.8250 N.3   166  ASP166     -0.1239
     86  CA        16.0870   15.0640   29.0060 C.3   166  ASP166      0.1674
     87  C         16.9820   14.9800   27.7640 C.2   166  ASP166      0.2266
     88  O         18.1580   15.3440   27.8190 O.2   166  ASP166     -0.2867
     89  CB        16.2990   16.4090   29.7390 C.3   166  ASP166      0.1410
     90  CG        15.9330   17.6190   28.8760 C.2   166  ASP166      0.3668
     91  OD1       15.7800   17.4430   27.6510 O.co2 166  ASP166     -0.2456
     92  OD2       15.8170   18.7480   29.4160 O.co2 166  ASP166     -0.2456
     93  N         16.8290   16.6380   24.7620 N.3   168  ALA168     -0.1231
     94  CA        16.5650   17.6760   23.7910 C.3   168  ALA168      0.1694
     95  C         17.5610   17.5520   22.6330 C.2   168  ALA168      0.2591
     96  O         17.1820   17.6900   21.4760 O.2   168  ALA168     -0.2718
     97  CB        16.6500   19.0340   24.4370 C.3   168  ALA168      0.0304
     98  N         18.8260   17.2790   22.9400 N.am  169  ARG169     -0.1980
     99  CA        19.8390   17.1170   21.8950 C.3   169  ARG169      0.1597
    100  C         20.4730   15.7120   21.9790 C.2   169  ARG169      0.2287
    101  O         21.6970   15.5610   21.8480 O.2   169  ARG169     -0.2864
    102  CB        20.9320   18.2040   22.0170 C.3   169  ARG169      0.0334
    103  CG        20.3770   19.6350   21.9360 C.3   169  ARG169      0.0492
    104  CD        21.4430   20.7330   21.8480 C.3   169  ARG169      0.2205
    105  NE        20.8080   22.0410   21.6950 N.pl3 169  ARG169     -0.0865
    106  CZ        20.2300   22.7100   22.6900 C.cat 169  ARG169      0.5346
    107  NH1       20.2190   22.1980   23.9250 N.pl3 169  ARG169      0.1354
    108  NH2       19.6380   23.8770   22.4480 N.pl3 169  ARG169      0.1354
    109  N         13.7520   16.2270   21.3270 N.3   194  CYS194     -0.1235
    110  CA        13.2910   17.4910   20.7830 C.3   194  CYS194      0.1677
    111  C         13.4530   17.4320   19.2660 C.2   194  CYS194      0.2270
    112  O         14.5070   17.0700   18.7550 O.2   194  CYS194     -0.2867
    113  CB        14.0720   18.6630   21.3780 C.3   194  CYS194      0.0956
    114  SG        13.1150   19.5570   22.6600 S.3   194  CYS194     -0.0801
    115  N         12.3870   20.1390   17.2580 N.3   196  SER196     -0.1202
    116  CA        12.4500   21.5290   16.8080 C.3   196  SER196      0.2020
    117  C         13.7810   22.2690   16.9160 C.2   196  SER196      0.2618
    118  O         13.8500   23.4640   16.6620 O.2   196  SER196     -0.2717
    119  CB        11.3690   22.3440   17.5450 C.3   196  SER196      0.2103
    120  OG        11.5880   22.3280   18.9550 O.3   196  SER196     -0.2182
    121  N         14.8400   21.5830   17.3180 N.am  197  LYS197     -0.1979
    122  CA        16.1110   22.2720   17.4040 C.3   197  LYS197      0.1596
    123  C         16.9840   21.8410   16.2440 C.2   197  LYS197      0.2287
    124  O         16.6850   22.1980   15.1140 O.2   197  LYS197     -0.2864
    125  CB        16.7550   22.0080   18.7570 C.3   197  LYS197      0.0298
    126  CG        15.9330   22.6090   19.8880 C.3   197  LYS197      0.0038
    127  CD        16.6670   22.5190   21.2040 C.3   197  LYS197      0.0206
    128  CE        15.8240   21.8020   22.2320 C.3   197  LYS197      0.1093
    129  NZ        14.5550   22.5260   22.5340 N.3   197  LYS197     -0.1314
    130  N         27.1760   32.1350   24.1270 N.3   308  ARG308     -0.1245
    131  CA        27.0150   30.7700   23.6910 C.3   308  ARG308      0.1563
    132  C         26.6120   30.8380   22.2250 C.2   308  ARG308      0.2260
    133  O         25.5970   31.4420   21.8960 O.2   308  ARG308     -0.2867
    134  CB        25.9140   30.0790   24.4910 C.3   308  ARG308      0.0307
    135  CG        25.7080   28.6200   24.1000 C.3   308  ARG308      0.0489
    136  CD        24.3630   28.0710   24.5880 C.3   308  ARG308      0.2205
    137  NE        23.2470   28.6990   23.8840 N.pl3 308  ARG308     -0.0865
    138  CZ        22.0130   28.2000   23.8110 C.cat 308  ARG308      0.5346
    139  NH1       21.7130   27.0490   24.4010 N.pl3 308  ARG308      0.1354
    140  NH2       21.0750   28.8490   23.1290 N.pl3 308  ARG308      0.1354
@<TRIPOS>BOND
     1   124   123    2
     2   123   122    1
     3    10     9    2
     4   118   117    2
     5     9     8    1
     6   116   117    1
     7   116   115    1
     8   116   119    1
     9   117   121   am
    10     4     3    2
    11   121   122    1
    12   122   125    1
    13   119   120    1
    14     8     7    1
    15     8    11    1
    16     3     2    1
    17   112   111    2
    18   125   126    1
    19     1     2    1
    20    11    12    1
    21    11    13    1
    22   111   110    1
    23     2     5    1
    24   126   127    1
    25     5     6    1
    26   110   109    1
    27   110   113    1
    28   127   128    1
    29   113   114    1
    30    96    95    2
    31   105   104    1
    32   105   106    2
    33   101   100    2
    34   104   103    1
    35    99   100    1
    36    99   102    1
    37    99    98    1
    38   133   132    2
    39   103   102    1
    40   132   131    1
    41   128   129    1
    42   108   106    1
    43    95    98   am
    44    95    94    1
    45   106   107    1
    46    14    15    1
    47   140   138    1
    48    20    18    1
    49    15    18    1
    50    15    16    1
    51    76    74    1
    52   131   130    1
    53   131   134    1
    54    94    97    1
    55    94    93    1
    56   138   137    2
    57   138   139    1
    58   137   136    1
    59    75    74    1
    60   135   134    1
    61   135   136    1
    62    18    19    1
    63    16    21   am
    64    16    17    2
    65    21    22    1
    66    74    71    1
    67    22    23    1
    68    70    71    1
    69    71    72    1
    70    80    79    2
    71    79    78    1
    72    23    25   am
    73    23    24    2
    74    72    73    2
    75    25    26    1
    76    78    77    1
    77    78    81    1
    78    91    90   ar
    79    87    88    2
    80    87    86    1
    81    81    82    1
    82    30    29    1
    83    26    29    1
    84    26    27    1
    85    29    31    1
    86    49    47   ar
    87    49    48   ar
    88    83    82    2
    89    27    28    2
    90    90    92   ar
    91    90    89    1
    92    47    45   ar
    93    48    46   ar
    94    86    89    1
    95    86    85    1
    96    82    84   am
    97    32    33    1
    98    63    64    2
    99    63    62    1
   100    45    46   ar
   101    45    44    1
   102    39    37   am
   103    66    67    1
   104    66    65    2
   105    69    67   ar
   106    67    68   ar
   107    37    38    2
   108    37    36    1
   109    44    41    1
   110    62    65    1
   111    62    61    1
   112    33    36    1
   113    33    34    1
   114    53    52    2
   115    54    55    1
   116    54    51    1
   117    57    55   ar
   118    57    59   ar
   119    55    56   ar
   120    59    60   ar
   121    56    58   ar
   122    60    58   ar
   123    34    35    2
   124    41    40    1
   125    41    42    1
   126    52    51    1
   127    51    50    1
   128    42    43    2
