@<TRIPOS>MOLECULE
tmp/4lnlA01.pdb
 105 99 0 0 0
SMALL
GASTEIGER

@<TRIPOS>ATOM
      1  N          6.3490   10.5390   36.5830 N.3    69  HIS69      -0.1241
      2  CA         7.2620    9.8270   37.4900 C.3    69  HIS69       0.1621
      3  C          7.0710   10.1070   39.0020 C.2    69  HIS69       0.2264
      4  O          7.2060    9.2060   39.8460 O.2    69  HIS69      -0.2867
      5  CB         8.6980   10.2070   37.1730 C.3    69  HIS69       0.0745
      6  CG         9.2850    9.4290   36.0470 C.ar   69  HIS69       0.0817
      7  ND1        9.3150    8.0500   36.0220 N.ar   69  HIS69      -0.2268
      8  CD2        9.9150    9.8360   34.9160 C.ar   69  HIS69       0.1154
      9  CE1        9.9470    7.6420   34.9300 C.ar   69  HIS69       0.1986
     10  NE2       10.3170    8.7010   34.2550 N.ar   69  HIS69      -0.2212
     11  N         12.4690   10.0050   44.4210 N.3   131  LYS131     -0.1245
     12  CA        11.8640    9.1000   43.4630 C.3   131  LYS131      0.1561
     13  C         12.5680    9.0160   42.1380 C.2   131  LYS131      0.2260
     14  O         12.6350    7.9390   41.5460 O.2   131  LYS131     -0.2867
     15  CB        10.4120    9.5500   43.2160 C.3   131  LYS131      0.0271
     16  CG         9.6270    8.7980   42.1080 C.3   131  LYS131      0.0035
     17  CD         9.3570    7.3310   42.4750 C.3   131  LYS131      0.0206
     18  CE         8.2510    6.6890   41.6060 C.3   131  LYS131      0.1093
     19  NZ         6.8870    7.2290   41.8920 N.3   131  LYS131     -0.1314
     20  N         20.5050    3.5290   39.8380 N.3   156  THR156     -0.1203
     21  CA        19.0980    3.7340   40.1500 C.3   156  THR156      0.1994
     22  C         18.3550    2.4210   40.3320 C.2   156  THR156      0.2617
     23  O         17.4880    2.3350   41.2000 O.2   156  THR156     -0.2717
     24  CB        18.3570    4.6150   39.0790 C.3   156  THR156      0.1784
     25  OG1       18.5560    4.0810   37.7610 O.3   156  THR156     -0.2211
     26  CG2       18.8710    6.0660   39.1330 C.3   156  THR156      0.0376
     27  N         18.6780    1.3950   39.5410 N.am  157  ARG157     -0.1979
     28  CA        17.9740    0.1090   39.7150 C.3   157  ARG157      0.1597
     29  C         18.2170   -0.3710   41.1400 C.2   157  ARG157      0.2287
     30  O         17.2870   -0.7400   41.8450 O.2   157  ARG157     -0.2864
     31  CB        18.4700   -0.9950   38.7660 C.3   157  ARG157      0.0334
     32  CG        18.4150   -0.7000   37.2710 C.3   157  ARG157      0.0492
     33  CD        17.0720   -0.1770   36.8110 C.3   157  ARG157      0.2205
     34  NE        17.0400    1.2810   36.8340 N.pl3 157  ARG157     -0.0865
     35  CZ        16.0240    2.0030   36.3940 C.cat 157  ARG157      0.5346
     36  NH1       14.9500    1.3950   35.9020 N.pl3 157  ARG157      0.1354
     37  NH2       16.0970    3.3300   36.4220 N.pl3 157  ARG157      0.1354
     38  N         16.2120    1.6160   43.6400 N.3   160  ASN160     -0.1225
     39  CA        14.7950    1.7170   43.3070 C.3   160  ASN160      0.1785
     40  C         14.3660    3.1360   42.9100 C.2   160  ASN160      0.2597
     41  O         13.3400    3.6420   43.3490 O.2   160  ASN160     -0.2718
     42  CB        13.9320    1.1990   44.4800 C.3   160  ASN160      0.1169
     43  CG        12.4670    0.9320   44.0750 C.2   160  ASN160      0.2627
     44  OD1       12.1790    0.4570   42.9700 O.2   160  ASN160     -0.2716
     45  ND2       11.5480    1.2230   44.9820 N.am  160  ASN160     -0.0877
     46  N         15.1590    3.7720   42.0590 N.am  161  LEU161     -0.1966
     47  CA        14.8270    5.1010   41.5820 C.3   161  LEU161      0.1728
     48  C         14.5930    5.0190   40.0750 C.2   161  LEU161      0.2616
     49  O         15.1980    4.1950   39.3930 O.2   161  LEU161     -0.2715
     50  CB        15.9640    6.0680   41.8850 C.3   161  LEU161      0.0311
     51  CG        16.3080    6.2110   43.3670 C.3   161  LEU161      0.0022
     52  CD1       17.5620    7.0710   43.5240 C.3   161  LEU161      0.0001
     53  CD2       15.0980    6.8520   44.0950 C.3   161  LEU161      0.0001
     54  N         13.6950    5.8450   39.5530 N.am  162  ALA162     -0.1977
     55  CA        13.4660    5.8230   38.1110 C.3   162  ALA162      0.1597
     56  C         14.5060    6.7460   37.5050 C.2   162  ALA162      0.2287
     57  O         15.0730    7.5980   38.2120 O.2   162  ALA162     -0.2864
     58  CB        12.0530    6.2990   37.7710 C.3   162  ALA162      0.0319
     59  N         14.5690    4.9600   32.0380 N.3   189  ASP189     -0.1239
     60  CA        13.1880    4.5220   32.0540 C.3   189  ASP189      0.1674
     61  C         12.4520    5.3430   31.0110 C.2   189  ASP189      0.2266
     62  O         11.5960    4.8400   30.2980 O.2   189  ASP189     -0.2867
     63  CB        12.5560    4.7540   33.4370 C.3   189  ASP189      0.1410
     64  CG        13.1820    3.8910   34.4990 C.2   189  ASP189      0.3668
     65  OD1       13.2750    2.6650   34.2810 O.co2 189  ASP189     -0.2456
     66  OD2       13.5830    4.4270   35.5450 O.co2 189  ASP189     -0.2456
     67  N          7.7280    3.3360   28.9270 N.3   210  ASN210     -0.1240
     68  CA         6.9080    2.1440   28.8310 C.3   210  ASN210      0.1653
     69  C          5.4260    2.4970   28.6990 C.2   210  ASN210      0.2266
     70  O          4.9990    3.5970   29.0400 O.2   210  ASN210     -0.2867
     71  CB         7.1560    1.1950   30.0140 C.3   210  ASN210      0.1155
     72  CG         6.7080    1.7650   31.3500 C.2   210  ASN210      0.2627
     73  OD1        5.5440    2.1470   31.5280 O.2   210  ASN210     -0.2716
     74  ND2        7.6300    1.8020   32.3120 N.am  210  ASN210     -0.0877
     75  N          2.7020    1.7890   30.3500 N.3   212  ASP212     -0.1225
     76  CA         1.9900    2.2960   31.5110 C.3   212  ASP212      0.1805
     77  C          2.3890    3.7240   31.8230 C.2   212  ASP212      0.2597
     78  O          1.5420    4.5650   32.1250 O.2   212  ASP212     -0.2718
     79  CB         2.2370    1.4090   32.7220 C.3   212  ASP212      0.1424
     80  CG         1.7180    0.0040   32.5150 C.2   212  ASP212      0.3668
     81  OD1        0.5870   -0.1370   32.0020 O.co2 212  ASP212     -0.2456
     82  OD2        2.4350   -0.9600   32.8680 O.co2 212  ASP212     -0.2456
     83  N          3.6820    3.9970   31.7390 N.am  213  TYR213     -0.1976
     84  CA         4.1890    5.3310   32.0190 C.3   213  TYR213      0.1639
     85  C          3.5760    6.3530   31.0500 C.2   213  TYR213      0.2290
     86  O          3.0500    7.3950   31.4490 O.2   213  TYR213     -0.2864
     87  CB         5.7170    5.3250   31.8890 C.3   213  TYR213      0.0560
     88  CG         6.3570    6.6910   32.0040 C.ar  213  TYR213     -0.0198
     89  CD1        6.5310    7.2970   33.2460 C.ar  213  TYR213     -0.0009
     90  CD2        6.7980    7.3680   30.8670 C.ar  213  TYR213     -0.0009
     91  CE1        7.1370    8.5450   33.3550 C.ar  213  TYR213      0.0417
     92  CE2        7.3960    8.6110   30.9600 C.ar  213  TYR213      0.0417
     93  CZ         7.5670    9.1960   32.2110 C.ar  213  TYR213      0.1957
     94  OH         8.1870   10.4190   32.3060 O.3   213  TYR213     -0.2866
     95  N         -0.0310    7.3310   31.6350 N.3   216  ARG216     -0.1245
     96  CA        -0.2210    8.3650   32.6670 C.3   216  ARG216      0.1563
     97  C          0.1600    9.7300   32.0490 C.2   216  ARG216      0.2260
     98  O         -0.4900   10.7390   32.3030 O.2   216  ARG216     -0.2867
     99  CB         0.6690    8.1180   33.8900 C.3   216  ARG216      0.0307
    100  CG         0.3960    6.8230   34.6520 C.3   216  ARG216      0.0489
    101  CD         0.9400    6.9040   36.0950 C.3   216  ARG216      0.2205
    102  NE         2.3990    7.0380   36.1820 N.pl3 216  ARG216     -0.0865
    103  CZ         3.2600    6.0270   36.0640 C.cat 216  ARG216      0.5346
    104  NH1        2.8080    4.7970   35.8370 N.pl3 216  ARG216      0.1354
    105  NH2        4.5710    6.2340   36.2240 N.pl3 216  ARG216      0.1354
@<TRIPOS>BOND
     1    69    68    1
     2    69    70    2
     3    68    67    1
     4    68    71    1
     5    71    72    1
     6    62    61    2
     7    75    76    1
     8    90    92   ar
     9    90    88   ar
    10    92    93   ar
    11    61    60    1
    12    85    86    2
    13    85    84    1
    14    72    73    2
    15    72    74   am
    16    76    77    1
    17    76    79    1
    18    95    96    1
    19    83    77   am
    20    83    84    1
    21    77    78    2
    22    87    88    1
    23    87    84    1
    24    81    80   ar
    25    88    89   ar
    26    59    60    1
    27    97    98    2
    28    97    96    1
    29    60    63    1
    30    93    94    1
    31    93    91   ar
    32    80    79    1
    33    80    82   ar
    34    96    99    1
    35    89    91   ar
    36    63    64    1
    37    99   100    1
    38    10     8   ar
    39    10     9   ar
    40    65    64   ar
    41    64    66   ar
    42   100   101    1
    43     8     6   ar
    44     9     7   ar
    45   104   103    1
    46    36    35    1
    47     7     6   ar
    48     6     5    1
    49   103   102    2
    50   103   105    1
    51   101   102    1
    52    35    37    1
    53    35    34    2
    54     1     2    1
    55    33    34    1
    56    33    32    1
    57     5     2    1
    58    32    31    1
    59     2     3    1
    60    56    55    1
    61    56    57    2
    62    25    24    1
    63    58    55    1
    64    55    54    1
    65    31    28    1
    66     3     4    2
    67    24    26    1
    68    24    21    1
    69    49    48    2
    70    27    28    1
    71    27    22   am
    72    54    48   am
    73    28    29    1
    74    20    21    1
    75    48    47    1
    76    21    22    1
    77    22    23    2
    78    29    30    2
    79    14    13    2
    80    47    50    1
    81    47    46    1
    82    18    19    1
    83    18    17    1
    84    50    51    1
    85    46    40   am
    86    16    17    1
    87    16    15    1
    88    13    12    1
    89    40    39    1
    90    40    41    2
    91    44    43    2
    92    15    12    1
    93    39    38    1
    94    39    42    1
    95    51    52    1
    96    51    53    1
    97    12    11    1
    98    43    42    1
    99    43    45   am
