@<TRIPOS>MOLECULE
tmp/4lnmA00.pdb
 123 112 0 0 0
SMALL
GASTEIGER

@<TRIPOS>ATOM
      1  N         17.2110   26.5560   17.8050 N.3     8  THR8       -0.1218
      2  CA        15.7530   26.5600   17.8570 C.3     8  THR8        0.1862
      3  C         15.2050   27.4550   16.7430 C.2     8  THR8        0.2287
      4  O         14.0100   27.4270   16.4180 O.2     8  THR8       -0.2866
      5  CB        15.2620   27.1160   19.1870 C.3     8  THR8        0.1770
      6  OG1       15.7290   28.4670   19.3330 O.3     8  THR8       -0.2211
      7  CG2       15.7850   26.2690   20.3400 C.3     8  THR8        0.0375
      8  N          6.0400   21.2840   23.2350 N.3    57  THR57      -0.1203
      9  CA         7.3920   21.7340   23.5640 C.3    57  THR57       0.1994
     10  C          8.1830   20.7680   24.4340 C.2    57  THR57       0.2618
     11  O          7.6410   19.8070   24.9890 O.2    57  THR57      -0.2717
     12  CB         7.3730   23.0740   24.3210 C.3    57  THR57       0.1784
     13  OG1        6.8130   22.8710   25.6280 O.3    57  THR57      -0.2211
     14  CG2        6.5480   24.1160   23.5500 C.3    57  THR57       0.0376
     15  N          9.4790   21.0360   24.5500 N.am   58  GLY58      -0.1942
     16  CA        10.3160   20.1850   25.3740 C.3    58  GLY58       0.2014
     17  C         10.0100   20.5220   26.8210 C.2    58  GLY58       0.2639
     18  O         10.1410   19.6850   27.7280 O.2    58  GLY58      -0.2714
     19  N          9.5910   21.7630   27.0420 N.am   59  THR59      -0.1950
     20  CA         9.2460   22.1850   28.3900 C.3    59  THR59       0.1897
     21  C          8.0720   21.3610   28.9020 C.2    59  THR59       0.2313
     22  O          8.0840   20.9080   30.0550 O.2    59  THR59      -0.2863
     23  CB         8.8850   23.6830   28.4480 C.3    59  THR59       0.1794
     24  OG1       10.0420   24.4610   28.1170 O.3    59  THR59      -0.2208
     25  CG2        8.4030   24.0620   29.8490 C.3    59  THR59       0.0378
     26  N          9.0570   17.6530   29.5420 N.3    62  ASN62      -0.1240
     27  CA         9.6870   17.4160   30.8460 C.3    62  ASN62       0.1653
     28  C          8.7480   17.5330   32.0360 C.2    62  ASN62       0.2266
     29  O          8.7770   16.6990   32.9350 O.2    62  ASN62      -0.2867
     30  CB        10.8830   18.3520   31.0450 C.3    62  ASN62       0.1155
     31  CG        12.1320   17.8280   30.3840 C.2    62  ASN62       0.2627
     32  OD1       12.6510   16.7720   30.7570 O.2    62  ASN62      -0.2716
     33  ND2       12.6160   18.5490   29.3870 N.am   62  ASN62      -0.0877
     34  N         17.8860   22.0640   32.4370 N.3    83  HIS83      -0.1241
     35  CA        16.7170   22.7570   31.9240 C.3    83  HIS83       0.1621
     36  C         15.4590   22.5560   32.7780 C.2    83  HIS83       0.2264
     37  O         14.8300   23.5330   33.2040 O.2    83  HIS83      -0.2867
     38  CB        16.4330   22.3210   30.4900 C.3    83  HIS83       0.0745
     39  CG        15.6460   23.3250   29.7100 C.ar   83  HIS83       0.0817
     40  ND1       16.2430   24.3080   28.9480 N.ar   83  HIS83      -0.2268
     41  CD2       14.3110   23.5190   29.5970 C.ar   83  HIS83       0.1154
     42  CE1       15.3080   25.0620   28.3970 C.ar   83  HIS83       0.1986
     43  NE2       14.1270   24.6010   28.7710 N.ar   83  HIS83      -0.2212
     44  N         12.6910   26.1570   33.3730 N.3    88  GLU88      -0.1245
     45  CA        11.2870   25.8740   33.1340 C.3    88  GLU88       0.1567
     46  C         10.4400   26.4630   34.2550 C.2    88  GLU88       0.2260
     47  O          9.4560   25.8700   34.7210 O.2    88  GLU88      -0.2867
     48  CB        11.0930   24.3630   32.9840 C.3    88  GLU88       0.0388
     49  CG        11.5450   23.8780   31.6050 C.3    88  GLU88       0.1160
     50  CD        11.6390   22.3750   31.4790 C.2    88  GLU88       0.3649
     51  OE1       10.8980   21.6500   32.1800 O.co2  88  GLU88      -0.2457
     52  OE2       12.4560   21.9140   30.6540 O.co2  88  GLU88      -0.2457
     53  N         20.5530   15.1320   31.8360 N.3   136  GLU136     -0.1245
     54  CA        20.3720   15.8840   30.6110 C.3   136  GLU136      0.1567
     55  C         21.4780   15.5740   29.6270 C.2   136  GLU136      0.2260
     56  O         22.6130   16.0230   29.7890 O.2   136  GLU136     -0.2867
     57  CB        20.2050   17.3710   30.9240 C.3   136  GLU136      0.0388
     58  CG        20.3960   18.2900   29.7300 C.3   136  GLU136      0.1160
     59  CD        20.2230   19.7520   30.0950 C.2   136  GLU136      0.3649
     60  OE1       19.1910   20.0920   30.7130 O.co2 136  GLU136     -0.2457
     61  OE2       21.1260   20.5550   29.7810 O.co2 136  GLU136     -0.2457
     62  N         23.4300   15.4910   26.0400 N.3   138  THR138     -0.1218
     63  CA        23.8740   16.7960   25.6550 C.3   138  THR138      0.1862
     64  C         23.5070   17.8220   26.7020 C.2   138  THR138      0.2287
     65  O         22.3590   18.2730   26.7660 O.2   138  THR138     -0.2866
     66  CB        23.7310   17.0080   24.1650 C.3   138  THR138      0.1770
     67  OG1       24.7320   16.2450   23.4850 O.3   138  THR138     -0.2211
     68  CG2       23.9510   18.4710   23.8260 C.3   138  THR138      0.0375
     69  N         16.7860   14.1130   29.7730 N.3   166  ASP166     -0.1239
     70  CA        16.2720   15.2180   28.9810 C.3   166  ASP166      0.1674
     71  C         17.1390   15.2150   27.7350 C.2   166  ASP166      0.2266
     72  O         18.2590   15.7130   27.7580 O.2   166  ASP166     -0.2867
     73  CB        16.4410   16.5410   29.7330 C.3   166  ASP166      0.1410
     74  CG        16.0350   17.7540   28.9000 C.2   166  ASP166      0.3668
     75  OD1       15.8670   17.6340   27.6570 O.co2 166  ASP166     -0.2456
     76  OD2       15.8990   18.8420   29.5020 O.co2 166  ASP166     -0.2456
     77  N         16.8520   16.8460   24.7790 N.3   168  ALA168     -0.1231
     78  CA        16.5280   17.8830   23.8160 C.3   168  ALA168      0.1694
     79  C         17.5030   17.7780   22.6360 C.2   168  ALA168      0.2591
     80  O         17.1250   18.0440   21.4990 O.2   168  ALA168     -0.2718
     81  CB        16.6230   19.2520   24.4620 C.3   168  ALA168      0.0304
     82  N         18.7470   17.3760   22.9080 N.am  169  ARG169     -0.1980
     83  CA        19.7660   17.2280   21.8550 C.3   169  ARG169      0.1597
     84  C         20.5040   15.8930   21.9740 C.2   169  ARG169      0.2287
     85  O         21.7200   15.8370   21.7800 O.2   169  ARG169     -0.2864
     86  CB        20.7820   18.3820   21.9130 C.3   169  ARG169      0.0334
     87  CG        20.1250   19.7160   22.1500 C.3   169  ARG169      0.0492
     88  CD        21.0650   20.9000   22.0270 C.3   169  ARG169      0.2205
     89  NE        20.3570   22.1250   22.4010 N.pl3 169  ARG169     -0.0865
     90  CZ        20.8700   23.3490   22.3520 C.cat 169  ARG169      0.5346
     91  NH1       20.1330   24.3890   22.7170 N.pl3 169  ARG169      0.1354
     92  NH2       22.1130   23.5390   21.9340 N.pl3 169  ARG169      0.1354
     93  N         13.6710   16.4190   21.4970 N.3   194  CYS194     -0.1235
     94  CA        13.2120   17.6500   20.8660 C.3   194  CYS194      0.1677
     95  C         13.4350   17.5820   19.3590 C.2   194  CYS194      0.2270
     96  O         14.5170   17.2340   18.8940 O.2   194  CYS194     -0.2867
     97  CB        13.9300   18.8750   21.4510 C.3   194  CYS194      0.0956
     98  SG        13.0440   19.6150   22.8530 S.3   194  CYS194     -0.0801
     99  N         12.4620   20.2830   17.3560 N.3   196  SER196     -0.1202
    100  CA        12.5650   21.6780   16.9380 C.3   196  SER196      0.2020
    101  C         13.9440   22.3380   17.0400 C.2   196  SER196      0.2618
    102  O         14.0650   23.5350   16.8260 O.2   196  SER196     -0.2717
    103  CB        11.5660   22.5010   17.7530 C.3   196  SER196      0.2103
    104  OG        11.8510   22.3600   19.1410 O.3   196  SER196     -0.2182
    105  N         14.9810   21.5900   17.3850 N.am  197  LYS197     -0.1979
    106  CA        16.3080   22.2010   17.4930 C.3   197  LYS197      0.1596
    107  C         17.1520   21.8580   16.2850 C.2   197  LYS197      0.2287
    108  O         16.8990   22.3470   15.1900 O.2   197  LYS197     -0.2864
    109  CB        17.0220   21.7400   18.7680 C.3   197  LYS197      0.0298
    110  CG        17.2320   22.8440   19.7700 C.3   197  LYS197      0.0038
    111  CD        16.8340   22.4060   21.1700 C.3   197  LYS197      0.0206
    112  CE        16.9970   23.5540   22.1780 C.3   197  LYS197      0.1093
    113  NZ        16.0520   23.3710   23.3290 N.3   197  LYS197     -0.1314
    114  N          7.5970   20.8980   18.4670 N.3   204  GLY204     -0.1210
    115  CA         7.4380   19.5230   18.8970 C.3   204  GLY204      0.1956
    116  C          8.5570   18.8160   19.6230 C.2   204  GLY204      0.2612
    117  O          9.7380   19.0930   19.4120 O.2   204  GLY204     -0.2717
    118  N          8.1510   17.8840   20.4800 N.am  205  SER205     -0.1952
    119  CA         9.0550   17.0650   21.2810 C.3   205  SER205      0.1924
    120  C          8.3640   15.7430   21.5360 C.2   205  SER205      0.2314
    121  O          7.1530   15.6210   21.3670 O.2   205  SER205     -0.2863
    122  CB         9.3680   17.7240   22.6290 C.3   205  SER205      0.2116
    123  OG        10.4640   18.6200   22.5300 O.3   205  SER205     -0.2180
@<TRIPOS>BOND
     1   108   107    2
     2   107   106    1
     3     4     3    2
     4     3     2    1
     5   102   101    2
     6   100   101    1
     7   100    99    1
     8   100   103    1
     9   101   105   am
    10   105   106    1
    11   106   109    1
    12   103   104    1
    13     1     2    1
    14     2     5    1
    15   114   115    1
    16   109   110    1
    17    96    95    2
    18   115   116    1
    19     5     6    1
    20     5     7    1
    21    95    94    1
    22   117   116    2
    23   116   118   am
    24   110   111    1
    25   118   119    1
    26    94    97    1
    27    94    93    1
    28   111   112    1
    29   119   120    1
    30   119   122    1
    31   121   120    2
    32    97    98    1
    33    80    79    2
    34    85    84    2
    35    83    86    1
    36    83    84    1
    37    83    82    1
    38    86    87    1
    39    92    90    1
    40    88    87    1
    41    88    89    1
    42   112   113    1
    43    90    89    2
    44    90    91    1
    45   123   122    1
    46    79    82   am
    47    79    78    1
    48     8     9    1
    49    67    66    1
    50    14    12    1
    51     9    12    1
    52     9    10    1
    53    78    81    1
    54    78    77    1
    55    68    66    1
    56    66    63    1
    57    12    13    1
    58    10    15   am
    59    10    11    2
    60    15    16    1
    61    16    17    1
    62    63    62    1
    63    63    64    1
    64    64    65    2
    65    17    19   am
    66    17    18    2
    67    19    20    1
    68    75    74   ar
    69    71    72    2
    70    71    70    1
    71    24    23    1
    72    20    23    1
    73    20    21    1
    74    42    43   ar
    75    42    40   ar
    76    23    25    1
    77    43    41   ar
    78    74    76   ar
    79    74    73    1
    80    21    22    2
    81    40    39   ar
    82    70    73    1
    83    70    69    1
    84    33    31   am
    85    26    27    1
    86    41    39   ar
    87    55    56    2
    88    55    54    1
    89    39    38    1
    90    58    59    1
    91    58    57    1
    92    61    59   ar
    93    59    60   ar
    94    31    32    2
    95    31    30    1
    96    38    35    1
    97    54    57    1
    98    54    53    1
    99    52    50   ar
   100    27    30    1
   101    27    28    1
   102    50    49    1
   103    50    51   ar
   104    49    48    1
   105    35    34    1
   106    35    36    1
   107    28    29    2
   108    36    37    2
   109    48    45    1
   110    45    44    1
   111    45    46    1
   112    46    47    2
