@<TRIPOS>MOLECULE
tmp/4lnwA01.pdb
 95 87 0 0 0
SMALL
GASTEIGER

@<TRIPOS>ATOM
      1  N         30.3800   21.5090   40.9970 N.3   177  VAL177     -0.1245
      2  CA        31.0750   20.6170   40.0800 C.3   177  VAL177      0.1561
      3  C         31.9310   21.4030   39.0740 C.2   177  VAL177      0.2260
      4  O         33.0980   21.0580   38.8230 O.2   177  VAL177     -0.2867
      5  CB        30.0700   19.7030   39.3420 C.3   177  VAL177      0.0252
      6  CG1       30.7500   19.0090   38.1530 C.3   177  VAL177      0.0019
      7  CG2       29.4740   18.6730   40.3290 C.3   177  VAL177      0.0019
      8  N         36.9110   21.6320   39.0420 N.3   181  SER181     -0.1202
      9  CA        37.5130   20.9660   37.8910 C.3   181  SER181      0.2020
     10  C         39.0260   21.1340   37.9000 C.2   181  SER181      0.2619
     11  O         39.5360   22.2260   38.1750 O.2   181  SER181     -0.2717
     12  CB        36.9490   21.5330   36.5750 C.3   181  SER181      0.2103
     13  OG        37.6400   20.9800   35.4610 O.3   181  SER181     -0.2182
     14  N         39.7480   20.0720   37.5930 N.am  182  THR182     -0.1938
     15  CA        41.2020   20.1860   37.5430 C.3   182  THR182      0.2028
     16  C         41.7570   20.3960   36.1470 C.2   182  THR182      0.2642
     17  O         42.9530   20.2700   35.9410 O.2   182  THR182     -0.2714
     18  CB        41.8720   18.9850   38.1660 C.3   182  THR182      0.1808
     19  OG1       41.4130   17.7930   37.5120 O.3   182  THR182     -0.2208
     20  CG2       41.5190   18.9280   39.6520 C.3   182  THR182      0.0379
     21  N         40.9050   20.7510   35.1900 N.am  183  ASP183     -0.1971
     22  CA        41.3740   21.0440   33.8370 C.3   183  ASP183      0.1709
     23  C         41.8830   22.4640   33.7480 C.2   183  ASP183      0.2293
     24  O         41.3300   23.2710   33.0120 O.2   183  ASP183     -0.2864
     25  CB        40.2490   20.8890   32.8200 C.3   183  ASP183      0.1436
     26  CG        39.4260   19.6690   33.0620 C.2   183  ASP183      0.3671
     27  OD1       39.9320   18.5520   32.8220 O.co2 183  ASP183     -0.2456
     28  OD2       38.2720   19.8160   33.5180 O.co2 183  ASP183     -0.2456
     29  N         40.2650   16.9510   42.8540 N.3   193  GLU193     -0.1245
     30  CA        39.5450   15.8500   42.2100 C.3   193  GLU193      0.1567
     31  C         38.6760   15.0820   43.1980 C.2   193  GLU193      0.2260
     32  O         37.5370   14.7400   42.8850 O.2   193  GLU193     -0.2867
     33  CB        40.5010   14.8880   41.4910 C.3   193  GLU193      0.0388
     34  CG        40.6040   15.1450   39.9830 C.3   193  GLU193      0.1160
     35  CD        39.3650   14.7120   39.2060 C.2   193  GLU193      0.3649
     36  OE1       39.1680   15.2170   38.0800 O.co2 193  GLU193     -0.2457
     37  OE2       38.5950   13.8600   39.7070 O.co2 193  GLU193     -0.2457
     38  N         35.6110   17.1630   43.8480 N.3   196  GLN196     -0.1245
     39  CA        34.6500   17.1070   42.7570 C.3   196  GLN196      0.1566
     40  C         33.9380   15.7550   42.7410 C.2   196  GLN196      0.2260
     41  O         32.7400   15.6970   42.5030 O.2   196  GLN196     -0.2867
     42  CB        35.3080   17.3440   41.4000 C.3   196  GLN196      0.0367
     43  CG        34.2710   17.8020   40.3540 C.3   196  GLN196      0.0905
     44  CD        34.7640   17.6260   38.9550 C.2   196  GLN196      0.2608
     45  OE1       35.3220   16.5770   38.6160 O.2   196  GLN196     -0.2717
     46  NE2       34.5570   18.6380   38.1130 N.am  196  GLN196     -0.0878
     47  N         29.9850   15.2610   42.8480 N.3   200  LEU200     -0.1245
     48  CA        29.2910   14.5470   41.7740 C.3   200  LEU200      0.1561
     49  C         28.4150   13.4170   42.3120 C.2   200  LEU200      0.2260
     50  O         27.2880   13.2230   41.8520 O.2   200  LEU200     -0.2867
     51  CB        30.2910   13.9760   40.7600 C.3   200  LEU200      0.0270
     52  CG        30.7860   15.0080   39.7490 C.3   200  LEU200      0.0019
     53  CD1       32.0690   14.5180   39.0360 C.3   200  LEU200      0.0001
     54  CD2       29.6860   15.3120   38.7330 C.3   200  LEU200      0.0001
     55  N         24.4750   15.9600   32.8650 N.3   222  LEU222     -0.1231
     56  CA        25.8940   15.9020   32.5180 C.3   222  LEU222      0.1693
     57  C         26.1770   16.4730   31.1210 C.2   222  LEU222      0.2591
     58  O         27.1680   17.1760   30.9210 O.2   222  LEU222     -0.2718
     59  CB        26.4290   14.4690   32.6230 C.3   222  LEU222      0.0284
     60  CG        26.3880   13.8790   34.0320 C.3   222  LEU222      0.0019
     61  CD1       26.9000   12.4400   34.0360 C.3   222  LEU222      0.0001
     62  CD2       27.1680   14.7410   35.0050 C.3   222  LEU222      0.0001
     63  N         25.3120   16.1850   30.1560 N.am  223  MET223     -0.1979
     64  CA        25.4970   16.7660   28.8310 C.3   223  MET223      0.1605
     65  C         25.4030   18.2950   28.8960 C.2   223  MET223      0.2287
     66  O         26.1370   18.9870   28.1980 O.2   223  MET223     -0.2864
     67  CB        24.5050   16.1800   27.8350 C.3   223  MET223      0.0413
     68  CG        24.7650   14.6920   27.5380 C.3   223  MET223      0.0598
     69  SD        23.2590   13.8250   27.0870 S.3   223  MET223     -0.1393
     70  CE        22.8750   14.5930   25.5170 C.3   223  MET223      0.0692
     71  N         26.3700   20.1630   31.4350 N.3   225  VAL225     -0.1231
     72  CA        27.6790   20.5820   31.9110 C.3   225  VAL225      0.1692
     73  C         28.6430   20.7190   30.7160 C.2   225  VAL225      0.2592
     74  O         29.3790   21.7160   30.6180 O.2   225  VAL225     -0.2718
     75  CB        28.2600   19.6330   32.9790 C.3   225  VAL225      0.0266
     76  CG1       29.6930   20.0250   33.3230 C.3   225  VAL225      0.0020
     77  CG2       27.3960   19.6430   34.2590 C.3   225  VAL225      0.0020
     78  N         28.6160   19.7550   29.7960 N.am  226  THR226     -0.1953
     79  CA        29.4730   19.8220   28.6190 C.3   226  THR226      0.1897
     80  C         29.1160   21.0410   27.7420 C.2   226  THR226      0.2313
     81  O         29.9970   21.6880   27.1780 O.2   226  THR226     -0.2863
     82  CB        29.4400   18.4890   27.8320 C.3   226  THR226      0.1794
     83  OG1       29.9190   17.4230   28.6730 O.3   226  THR226     -0.2208
     84  CG2       30.3050   18.5690   26.6120 C.3   226  THR226      0.0378
     85  N         30.6600   24.0630   29.4030 N.3   229  ARG229     -0.1245
     86  CA        32.0780   24.0990   29.0750 C.3   229  ARG229      0.1563
     87  C         32.3680   24.6980   27.7050 C.2   229  ARG229      0.2260
     88  O         33.3400   25.4390   27.5470 O.2   229  ARG229     -0.2867
     89  CB        32.6970   22.7000   29.1540 C.3   229  ARG229      0.0307
     90  CG        33.3670   22.4510   30.4600 C.3   229  ARG229      0.0489
     91  CD        32.3550   22.3380   31.5440 C.3   229  ARG229      0.2205
     92  NE        32.9880   22.0850   32.8320 N.pl3 229  ARG229     -0.0865
     93  CZ        33.3560   20.8940   33.2780 C.cat 229  ARG229      0.5346
     94  NH1       33.1780   19.8020   32.5400 N.pl3 229  ARG229      0.1354
     95  NH2       33.9200   20.7970   34.4730 N.pl3 229  ARG229      0.1354
@<TRIPOS>BOND
     1    70    69    1
     2    84    82    1
     3    69    68    1
     4    81    80    2
     5    68    67    1
     6    88    87    2
     7    87    86    1
     8    80    79    1
     9    82    79    1
    10    82    83    1
    11    67    64    1
    12    66    65    2
    13    79    78    1
    14    64    65    1
    15    64    63    1
    16    86    89    1
    17    86    85    1
    18    89    90    1
    19    78    73   am
    20    63    57   am
    21    90    91    1
    22    74    73    2
    23    73    72    1
    24    58    57    2
    25    57    56    1
    26    71    72    1
    27    91    92    1
    28    72    75    1
    29    56    59    1
    30    56    55    1
    31    94    93    1
    32    59    60    1
    33    25    26    1
    34    25    22    1
    35    27    26   ar
    36    92    93    2
    37    75    76    1
    38    75    77    1
    39    24    23    2
    40    26    28   ar
    41    93    95    1
    42    23    22    1
    43    22    21    1
    44    60    61    1
    45    60    62    1
    46    21    16   am
    47    13    12    1
    48    17    16    2
    49    16    15    1
    50    12     9    1
    51    19    18    1
    52    15    14    1
    53    15    18    1
    54    14    10   am
    55     9    10    1
    56     9     8    1
    57    10    11    2
    58    36    35   ar
    59    46    44   am
    60     6     5    1
    61    18    20    1
    62    45    44    2
    63    54    52    1
    64     4     3    2
    65    44    43    1
    66    53    52    1
    67     3     2    1
    68    35    37   ar
    69    35    34    1
    70     5     2    1
    71     5     7    1
    72    52    51    1
    73    34    33    1
    74     2     1    1
    75    43    42    1
    76    51    48    1
    77    42    39    1
    78    33    30    1
    79    48    49    1
    80    48    47    1
    81    50    49    2
    82    30    29    1
    83    30    31    1
    84    41    40    2
    85    40    39    1
    86    39    38    1
    87    32    31    2
