@<TRIPOS>MOLECULE
tmp/4lo5B00.pdb
 133 133 0 0 0
SMALL
GASTEIGER

@<TRIPOS>ATOM
      1  N         -4.9710  -34.3040   47.0990 N.3   258  SER258     -0.1203
      2  CA        -4.9020  -34.5500   48.5420 C.3   258  SER258      0.2005
      3  C         -3.5430  -35.1270   48.9580 C.2   258  SER258      0.2461
      4  O         -3.2660  -36.2980   48.6960 O.2   258  SER258     -0.2732
      5  CB        -6.0250  -35.5090   48.9600 C.3   258  SER258      0.2103
      6  OG        -5.8670  -36.7850   48.3600 O.3   258  SER258     -0.2182
      7  N         -2.7030  -34.3170   49.6310 N.am  259  PRO259     -0.2717
      8  CA        -1.3050  -34.6920   49.8810 C.3   259  PRO259      0.1535
      9  C         -1.1140  -35.7070   51.0020 C.2   259  PRO259      0.2599
     10  O         -0.0650  -36.3520   51.0520 O.2   259  PRO259     -0.2715
     11  CB        -0.6630  -33.3690   50.2850 C.3   259  PRO259      0.0310
     12  CG        -1.7490  -32.6380   50.9740 C.3   259  PRO259      0.0237
     13  CD        -3.0410  -33.0290   50.2620 C.3   259  PRO259      0.0939
     14  N         -2.0930  -35.8360   51.8940 N.am  260  ASN260     -0.1959
     15  CA        -1.9850  -36.7900   52.9970 C.3   260  ASN260      0.1819
     16  C         -2.4220  -38.2010   52.6140 C.2   260  ASN260      0.2621
     17  O         -2.3780  -39.1190   53.4320 O.2   260  ASN260     -0.2715
     18  CB        -2.7810  -36.3150   54.2140 C.3   260  ASN260      0.1195
     19  CG        -2.0180  -35.3140   55.0600 C.2   260  ASN260      0.2630
     20  OD1       -0.7880  -35.3080   55.0750 O.2   260  ASN260     -0.2716
     21  ND2       -2.7490  -34.4640   55.7770 N.am  260  ASN260     -0.0877
     22  N         -2.8530  -38.3620   51.3680 N.am  261  ALA261     -0.1963
     23  CA        -3.2920  -39.6550   50.8660 C.3   261  ALA261      0.1728
     24  C         -2.1110  -40.4130   50.2910 C.2   261  ALA261      0.2616
     25  O         -1.4200  -39.9080   49.4100 O.2   261  ALA261     -0.2715
     26  CB        -4.3550  -39.4700   49.7950 C.3   261  ALA261      0.0334
     27  N         -1.8870  -41.6290   50.7770 N.am  262  LYS262     -0.1977
     28  CA        -0.8590  -42.4890   50.2080 C.3   262  LYS262      0.1596
     29  C         -1.2350  -42.9100   48.7920 C.2   262  LYS262      0.2287
     30  O         -2.3630  -43.3390   48.5450 O.2   262  LYS262     -0.2864
     31  CB        -0.6590  -43.7300   51.0760 C.3   262  LYS262      0.0298
     32  CG         0.2060  -43.5070   52.3000 C.3   262  LYS262      0.0038
     33  CD         0.3350  -44.7830   53.1140 C.3   262  LYS262      0.0206
     34  CE         1.3190  -44.6200   54.2600 C.3   262  LYS262      0.1093
     35  NZ         1.4260  -45.8710   55.0620 N.3   262  LYS262     -0.1314
     36  N         -4.7540  -48.0580   50.6780 N.3   310  ILE310     -0.1231
     37  CA        -5.7160  -48.0150   51.7700 C.3   310  ILE310      0.1692
     38  C         -5.1900  -48.7730   52.9900 C.2   310  ILE310      0.2592
     39  O         -4.8610  -49.9550   52.9000 O.2   310  ILE310     -0.2718
     40  CB        -7.0630  -48.5970   51.3260 C.3   310  ILE310      0.0266
     41  CG1       -7.6970  -47.6900   50.2700 C.3   310  ILE310      0.0019
     42  CG2       -7.9840  -48.7690   52.5140 C.3   310  ILE310      0.0020
     43  CD1       -8.9760  -48.2240   49.7110 C.3   310  ILE310      0.0001
     44  N         -5.1130  -48.0890   54.1300 N.am  311  ASP311     -0.1960
     45  CA        -4.4810  -48.6520   55.3260 C.3   311  ASP311      0.1840
     46  C         -5.4430  -49.0050   56.4640 C.2   311  ASP311      0.2622
     47  O         -5.1950  -49.9390   57.2260 O.2   311  ASP311     -0.2715
     48  CB        -3.4010  -47.7000   55.8520 C.3   311  ASP311      0.1450
     49  CG        -2.0710  -47.8730   55.1410 C.2   311  ASP311      0.3671
     50  OD1       -1.8460  -48.9550   54.5580 O.co2 311  ASP311     -0.2456
     51  OD2       -1.2460  -46.9340   55.1770 O.co2 311  ASP311     -0.2456
     52  N         -6.5360  -48.2600   56.5770 N.am  312  ASN312     -0.1972
     53  CA        -7.4180  -48.3590   57.7400 C.3   312  ASN312      0.1688
     54  C         -8.4640  -49.4730   57.6570 C.2   312  ASN312      0.2292
     55  O         -9.5550  -49.3520   58.2120 O.2   312  ASN312     -0.2864
     56  CB        -8.1020  -47.0100   57.9830 C.3   312  ASN312      0.1181
     57  CG        -8.7440  -46.4500   56.7270 C.2   312  ASN312      0.2629
     58  OD1       -9.3630  -47.1810   55.9520 O.2   312  ASN312     -0.2716
     59  ND2       -8.5900  -45.1480   56.5160 N.am  312  ASN312     -0.0877
     60  N        -18.6520  -51.1240   57.1610 N.3   318  ALA318     -0.1231
     61  CA       -18.6540  -50.2020   56.0320 C.3   318  ALA318      0.1694
     62  C        -17.4600  -49.2510   56.0470 C.2   318  ALA318      0.2592
     63  O        -17.0970  -48.7070   57.0890 O.2   318  ALA318     -0.2718
     64  CB       -19.9560  -49.4170   56.0060 C.3   318  ALA318      0.0304
     65  N        -16.8520  -49.0650   54.8800 N.am  319  HIS319     -0.1962
     66  CA       -15.7210  -48.1590   54.7150 C.3   319  HIS319      0.1787
     67  C        -15.8530  -47.4220   53.3920 C.2   319  HIS319      0.2620
     68  O        -16.1840  -48.0280   52.3750 O.2   319  HIS319     -0.2715
     69  CB       -14.4010  -48.9300   54.7080 C.3   319  HIS319      0.0785
     70  CG       -14.2480  -49.8870   55.8490 C.ar  319  HIS319      0.0821
     71  ND1      -14.7800  -51.1550   55.8280 N.ar  319  HIS319     -0.2267
     72  CD2      -13.6120  -49.7600   57.0390 C.ar  319  HIS319      0.1154
     73  CE1      -14.4830  -51.7730   56.9610 C.ar  319  HIS319      0.1986
     74  NE2      -13.7760  -50.9480   57.7090 N.ar  319  HIS319     -0.2212
     75  N        -15.5940  -46.1200   53.3970 N.am  320  TYR320     -0.1960
     76  CA       -15.6390  -45.3530   52.1540 C.3   320  TYR320      0.1771
     77  C        -14.4270  -44.4390   51.9670 C.2   320  TYR320      0.2620
     78  O        -13.8450  -43.9510   52.9320 O.2   320  TYR320     -0.2715
     79  CB       -16.9510  -44.5690   52.0250 C.3   320  TYR320      0.0574
     80  CG       -17.1240  -43.4530   53.0290 C.ar  320  TYR320     -0.0198
     81  CD1      -16.8490  -42.1380   52.6840 C.ar  320  TYR320     -0.0009
     82  CD2      -17.5730  -43.7130   54.3160 C.ar  320  TYR320     -0.0009
     83  CE1      -17.0120  -41.1110   53.5950 C.ar  320  TYR320      0.0417
     84  CE2      -17.7380  -42.6930   55.2360 C.ar  320  TYR320      0.0417
     85  CZ       -17.4560  -41.3940   54.8690 C.ar  320  TYR320      0.1957
     86  OH       -17.6170  -40.3730   55.7750 O.3   320  TYR320     -0.2866
     87  N        -14.0530  -44.2260   50.7090 N.am  321  TYR321     -0.1960
     88  CA       -12.8630  -43.4560   50.3690 C.3   321  TYR321      0.1771
     89  C        -13.1730  -42.5170   49.2210 C.2   321  TYR321      0.2620
     90  O        -13.5690  -42.9500   48.1390 O.2   321  TYR321     -0.2715
     91  CB       -11.7030  -44.3910   50.0100 C.3   321  TYR321      0.0574
     92  CG       -11.4710  -45.4430   51.0650 C.ar  321  TYR321     -0.0198
     93  CD1      -10.6410  -45.1940   52.1520 C.ar  321  TYR321     -0.0009
     94  CD2      -12.1100  -46.6740   50.9950 C.ar  321  TYR321     -0.0009
     95  CE1      -10.4430  -46.1470   53.1260 C.ar  321  TYR321      0.0417
     96  CE2      -11.9180  -47.6290   51.9690 C.ar  321  TYR321      0.0417
     97  CZ       -11.0850  -47.3640   53.0320 C.ar  321  TYR321      0.1957
     98  OH       -10.8970  -48.3270   54.0010 O.3   321  TYR321     -0.2866
     99  N        -13.0000  -41.2250   49.4750 N.am  322  THR322     -0.1937
    100  CA       -13.3480  -40.1970   48.5100 C.3   322  THR322      0.2028
    101  C        -12.0960  -39.6140   47.8610 C.2   322  THR322      0.2642
    102  O        -11.1190  -39.3010   48.5400 O.2   322  THR322     -0.2714
    103  CB       -14.1560  -39.0620   49.1720 C.3   322  THR322      0.1808
    104  OG1      -15.0930  -39.6140   50.1040 O.3   322  THR322     -0.2208
    105  CG2      -14.9060  -38.2580   48.1270 C.3   322  THR322      0.0379
    106  N        -12.1330  -39.4880   46.5400 N.am  323  ARG323     -0.1963
    107  CA       -11.0550  -38.8680   45.7840 C.3   323  ARG323      0.1729
    108  C        -11.6500  -38.0370   44.6590 C.2   323  ARG323      0.2616
    109  O        -12.8560  -38.0820   44.4130 O.2   323  ARG323     -0.2715
    110  CB       -10.1310  -39.9280   45.1820 C.3   323  ARG323      0.0348
    111  CG        -9.3630  -40.7660   46.1930 C.3   323  ARG323      0.0492
    112  CD        -8.3560  -39.9290   46.9710 C.3   323  ARG323      0.2205
    113  NE        -7.5830  -40.7520   47.8950 N.pl3 323  ARG323     -0.0865
    114  CZ        -7.9220  -40.9790   49.1580 C.cat 323  ARG323      0.5346
    115  NH1       -9.0260  -40.4390   49.6600 N.pl3 323  ARG323      0.1354
    116  NH2       -7.1550  -41.7480   49.9180 N.pl3 323  ARG323      0.1354
    117  N        -10.8040  -37.2780   43.9740 N.am  324  GLN324     -0.1977
    118  CA       -11.2430  -36.5650   42.7880 C.3   324  GLN324      0.1601
    119  C        -11.5040  -37.5940   41.7010 C.2   324  GLN324      0.2287
    120  O        -10.6630  -38.4460   41.4290 O.2   324  GLN324     -0.2864
    121  CB       -10.1740  -35.5800   42.3240 C.3   324  GLN324      0.0394
    122  CG        -9.7840  -34.5500   43.3670 C.3   324  GLN324      0.0908
    123  CD        -8.4890  -33.8390   43.0240 C.2   324  GLN324      0.2608
    124  OE1       -7.3990  -34.3560   43.2800 O.2   324  GLN324     -0.2717
    125  NE2       -8.6010  -32.6520   42.4370 N.am  324  GLN324     -0.0878
    126  N        -16.4390  -35.8320   42.6440 N.3   412  ASN412     -0.1240
    127  CA       -15.7440  -36.8470   43.4150 C.3   412  ASN412      0.1653
    128  C        -16.1880  -38.2290   42.9940 C.2   412  ASN412      0.2266
    129  O        -17.2860  -38.4100   42.4690 O.2   412  ASN412     -0.2867
    130  CB       -16.0060  -36.6780   44.9140 C.3   412  ASN412      0.1155
    131  CG       -15.5410  -35.3400   45.4500 C.2   412  ASN412      0.2627
    132  OD1      -14.3500  -35.1250   45.7030 O.2   412  ASN412     -0.2716
    133  ND2      -16.4900  -34.4450   45.6700 N.am  412  ASN412     -0.0877
@<TRIPOS>BOND
     1   120   119    2
     2   119   118    1
     3   121   118    1
     4   121   122    1
     5   125   123   am
     6   129   128    2
     7   126   127    1
     8   118   117    1
     9   128   127    1
    10   123   124    2
    11   123   122    1
    12   127   130    1
    13   117   108   am
    14   109   108    2
    15   108   107    1
    16   130   131    1
    17   110   107    1
    18   110   111    1
    19   131   133   am
    20   131   132    2
    21   107   106    1
    22   111   112    1
    23   106   101   am
    24   112   113    1
    25     1     2    1
    26   101   100    1
    27   101   102    2
    28   113   114    2
    29   105   103    1
    30    90    89    2
    31     6     5    1
    32   100   103    1
    33   100    99    1
    34     2     3    1
    35     2     5    1
    36    30    29    2
    37     4     3    2
    38    29    28    1
    39     3     7   am
    40   114   115    1
    41   114   116    1
    42   103   104    1
    43    89    99   am
    44    89    88    1
    45    25    24    2
    46     7     8    1
    47     7    13    1
    48    43    41    1
    49    26    23    1
    50     8    11    1
    51     8     9    1
    52    91    88    1
    53    91    92    1
    54    28    27    1
    55    28    31    1
    56    13    12    1
    57    41    40    1
    58    11    12    1
    59    24    27   am
    60    24    23    1
    61    88    87    1
    62    36    37    1
    63    87    77   am
    64    23    22    1
    65    94    92   ar
    66    94    96   ar
    67     9    10    2
    68     9    14   am
    69    92    93   ar
    70    31    32    1
    71    40    37    1
    72    40    42    1
    73    22    16   am
    74    37    38    1
    75    14    15    1
    76    77    76    1
    77    77    78    2
    78    96    97   ar
    79    79    76    1
    80    79    80    1
    81    93    95   ar
    82    76    75    1
    83    32    33    1
    84    68    67    2
    85    16    15    1
    86    16    17    2
    87    81    80   ar
    88    81    83   ar
    89    39    38    2
    90    38    44   am
    91    15    18    1
    92    80    82   ar
    93    97    95   ar
    94    97    98    1
    95    33    34    1
    96    67    75   am
    97    67    66    1
    98    83    85   ar
    99    44    45    1
   100    18    19    1
   101    34    35    1
   102    82    84   ar
   103    50    49   ar
   104    69    66    1
   105    69    70    1
   106    66    65    1
   107    85    84   ar
   108    85    86    1
   109    65    62   am
   110    19    20    2
   111    19    21   am
   112    49    51   ar
   113    49    48    1
   114    45    48    1
   115    45    46    1
   116    71    70   ar
   117    71    73   ar
   118    70    72   ar
   119    58    57    2
   120    64    61    1
   121    61    62    1
   122    61    60    1
   123    62    63    2
   124    46    52   am
   125    46    47    2
   126    59    57   am
   127    52    53    1
   128    57    56    1
   129    73    74   ar
   130    72    74   ar
   131    54    53    1
   132    54    55    2
   133    53    56    1
