@<TRIPOS>MOLECULE
tmp/4lo6B00.pdb
 117 116 0 0 0
SMALL
GASTEIGER

@<TRIPOS>ATOM
      1  N         -4.9710  -34.3810   47.0670 N.3   258  SER258     -0.1217
      2  CA        -4.9060  -34.6420   48.5130 C.3   258  SER258      0.1889
      3  C         -3.5910  -35.3190   48.9500 C.2   258  SER258      0.2288
      4  O         -3.4240  -36.5250   48.7680 O.2   258  SER258     -0.2866
      5  CB        -6.0980  -35.5080   48.9350 C.3   258  SER258      0.2089
      6  OG        -5.9910  -35.8890   50.2980 O.3   258  SER258     -0.2183
      7  N         -2.1450  -36.1620   51.7890 N.3   260  ASN260     -0.1225
      8  CA        -2.0780  -37.1450   52.8720 C.3   260  ASN260      0.1785
      9  C         -2.5850  -38.5340   52.4760 C.2   260  ASN260      0.2597
     10  O         -2.6040  -39.4540   53.2900 O.2   260  ASN260     -0.2718
     11  CB        -2.8340  -36.6460   54.0960 C.3   260  ASN260      0.1169
     12  CG        -2.0880  -35.5570   54.8260 C.2   260  ASN260      0.2627
     13  OD1       -0.8570  -35.5030   54.7920 O.2   260  ASN260     -0.2716
     14  ND2       -2.8280  -34.6790   55.4930 N.am  260  ASN260     -0.0877
     15  N         -3.0110  -38.6670   51.2260 N.am  261  ALA261     -0.1966
     16  CA        -3.4200  -39.9530   50.6830 C.3   261  ALA261      0.1728
     17  C         -2.1840  -40.6870   50.1740 C.2   261  ALA261      0.2616
     18  O         -1.4110  -40.1440   49.3820 O.2   261  ALA261     -0.2715
     19  CB        -4.4140  -39.7540   49.5500 C.3   261  ALA261      0.0334
     20  N         -1.9850  -41.9120   50.6370 N.am  262  LYS262     -0.1977
     21  CA        -0.9130  -42.7460   50.1140 C.3   262  LYS262      0.1596
     22  C         -1.2630  -43.1940   48.7050 C.2   262  LYS262      0.2287
     23  O         -2.3580  -43.7130   48.4590 O.2   262  LYS262     -0.2864
     24  CB        -0.7240  -43.9800   50.9920 C.3   262  LYS262      0.0298
     25  CG         0.1470  -43.7610   52.2000 C.3   262  LYS262      0.0038
     26  CD         0.2630  -45.0460   53.0190 C.3   262  LYS262      0.0206
     27  CE         1.3460  -44.9270   54.0740 C.3   262  LYS262      0.1093
     28  NZ         1.2310  -46.0010   55.1010 N.3   262  LYS262     -0.1314
     29  N         -3.2470  -46.5080   48.2070 N.3   309  ILE309     -0.1231
     30  CA        -3.0290  -47.5200   49.2260 C.3   309  ILE309      0.1692
     31  C         -4.0600  -47.3330   50.3230 C.2   309  ILE309      0.2592
     32  O         -4.0710  -46.3200   51.0200 O.2   309  ILE309     -0.2718
     33  CB        -1.6530  -47.4130   49.8520 C.3   309  ILE309      0.0266
     34  CG1       -0.5950  -47.3410   48.7560 C.3   309  ILE309      0.0019
     35  CG2       -1.4170  -48.6000   50.7810 C.3   309  ILE309      0.0020
     36  CD1       -0.6570  -48.4950   47.8330 C.3   309  ILE309      0.0001
     37  N         -4.9290  -48.3160   50.4860 N.am  310  ILE310     -0.1966
     38  CA        -5.8840  -48.2700   51.5750 C.3   310  ILE310      0.1727
     39  C         -5.3130  -48.9720   52.8070 C.2   310  ILE310      0.2616
     40  O         -4.9230  -50.1490   52.7440 O.2   310  ILE310     -0.2715
     41  CB        -7.2240  -48.8660   51.1450 C.3   310  ILE310      0.0290
     42  CG1       -7.8740  -47.9260   50.1220 C.3   310  ILE310      0.0022
     43  CG2       -8.1130  -49.0880   52.3640 C.3   310  ILE310      0.0023
     44  CD1       -9.1290  -48.4760   49.5160 C.3   310  ILE310      0.0001
     45  N         -5.2710  -48.2560   53.9300 N.am  311  ASP311     -0.1957
     46  CA        -4.5670  -48.7450   55.1210 C.3   311  ASP311      0.1840
     47  C         -5.4560  -49.1330   56.3100 C.2   311  ASP311      0.2622
     48  O         -5.0430  -49.9150   57.1760 O.2   311  ASP311     -0.2715
     49  CB        -3.5340  -47.7060   55.5900 C.3   311  ASP311      0.1450
     50  CG        -2.1410  -47.9720   55.0420 C.2   311  ASP311      0.3671
     51  OD1       -1.9120  -49.0800   54.5060 O.co2 311  ASP311     -0.2456
     52  OD2       -1.2690  -47.0830   55.1590 O.co2 311  ASP311     -0.2456
     53  N         -6.6700  -48.5970   56.3570 N.am  312  ASN312     -0.1972
     54  CA        -7.4780  -48.6660   57.5760 C.3   312  ASN312      0.1688
     55  C         -8.5620  -49.7380   57.5560 C.2   312  ASN312      0.2292
     56  O         -9.6510  -49.5450   58.1000 O.2   312  ASN312     -0.2864
     57  CB        -8.1240  -47.3060   57.8100 C.3   312  ASN312      0.1181
     58  CG        -8.7680  -46.7600   56.5570 C.2   312  ASN312      0.2629
     59  OD1       -9.3350  -47.5130   55.7580 O.2   312  ASN312     -0.2716
     60  ND2       -8.6620  -45.4470   56.3600 N.am  312  ASN312     -0.0877
     61  N        -18.7860  -51.4680   57.1570 N.3   318  ALA318     -0.1231
     62  CA       -18.7550  -50.5530   56.0270 C.3   318  ALA318      0.1694
     63  C        -17.4800  -49.7050   56.0300 C.2   318  ALA318      0.2592
     64  O        -16.9750  -49.3300   57.0880 O.2   318  ALA318     -0.2718
     65  CB       -19.9900  -49.6660   56.0410 C.3   318  ALA318      0.0304
     66  N        -16.9630  -49.4130   54.8410 N.am  319  HIS319     -0.1962
     67  CA       -15.7910  -48.5530   54.6960 C.3   319  HIS319      0.1787
     68  C        -15.9490  -47.7690   53.4000 C.2   319  HIS319      0.2620
     69  O        -16.3650  -48.3260   52.3800 O.2   319  HIS319     -0.2715
     70  CB       -14.4940  -49.3770   54.6220 C.3   319  HIS319      0.0785
     71  CG       -14.3290  -50.3660   55.7330 C.ar  319  HIS319      0.0821
     72  ND1      -14.8530  -51.6400   55.6840 N.ar  319  HIS319     -0.2267
     73  CD2      -13.6920  -50.2710   56.9280 C.ar  319  HIS319      0.1154
     74  CE1      -14.5580  -52.2840   56.7970 C.ar  319  HIS319      0.1986
     75  NE2      -13.8510  -51.4710   57.5730 N.ar  319  HIS319     -0.2212
     76  N        -15.6260  -46.4820   53.4240 N.am  320  TYR320     -0.1960
     77  CA       -15.6780  -45.7040   52.1890 C.3   320  TYR320      0.1771
     78  C        -14.4690  -44.7830   52.0190 C.2   320  TYR320      0.2620
     79  O        -13.8260  -44.3790   52.9950 O.2   320  TYR320     -0.2715
     80  CB       -16.9960  -44.9310   52.0670 C.3   320  TYR320      0.0574
     81  CG       -17.1780  -43.8230   53.0860 C.ar  320  TYR320     -0.0198
     82  CD1      -16.8730  -42.5030   52.7670 C.ar  320  TYR320     -0.0009
     83  CD2      -17.6710  -44.0930   54.3550 C.ar  320  TYR320     -0.0009
     84  CE1      -17.0510  -41.4780   53.6920 C.ar  320  TYR320      0.0417
     85  CE2      -17.8480  -43.0750   55.2870 C.ar  320  TYR320      0.0417
     86  CZ       -17.5350  -41.7710   54.9460 C.ar  320  TYR320      0.1957
     87  OH       -17.7050  -40.7550   55.8600 O.3   320  TYR320     -0.2866
     88  N        -14.1600  -44.4820   50.7610 N.am  321  TYR321     -0.1960
     89  CA       -12.9630  -43.7410   50.3980 C.3   321  TYR321      0.1771
     90  C        -13.3150  -42.7610   49.2890 C.2   321  TYR321      0.2620
     91  O        -13.7840  -43.1520   48.2190 O.2   321  TYR321     -0.2715
     92  CB       -11.8490  -44.7090   49.9660 C.3   321  TYR321      0.0574
     93  CG       -11.5900  -45.7580   51.0260 C.ar  321  TYR321     -0.0198
     94  CD1      -10.6870  -45.5310   52.0550 C.ar  321  TYR321     -0.0009
     95  CD2      -12.2970  -46.9570   51.0290 C.ar  321  TYR321     -0.0009
     96  CE1      -10.4800  -46.4890   53.0540 C.ar  321  TYR321      0.0417
     97  CE2      -12.1040  -47.9100   52.0110 C.ar  321  TYR321      0.0417
     98  CZ       -11.1940  -47.6770   53.0240 C.ar  321  TYR321      0.1957
     99  OH       -11.0060  -48.6390   53.9990 O.3   321  TYR321     -0.2866
    100  N        -13.1160  -41.4820   49.5780 N.am  322  THR322     -0.1937
    101  CA       -13.4790  -40.4000   48.6740 C.3   322  THR322      0.2028
    102  C        -12.2260  -39.8240   48.0150 C.2   322  THR322      0.2642
    103  O        -11.2580  -39.5020   48.6970 O.2   322  THR322     -0.2714
    104  CB       -14.1940  -39.2940   49.4670 C.3   322  THR322      0.1808
    105  OG1      -15.2770  -39.8800   50.1920 O.3   322  THR322     -0.2208
    106  CG2      -14.7340  -38.1980   48.5460 C.3   322  THR322      0.0379
    107  N        -12.2380  -39.7220   46.6880 N.am  323  ARG323     -0.1977
    108  CA       -11.1540  -39.0800   45.9340 C.3   323  ARG323      0.1597
    109  C        -11.7640  -38.2480   44.8170 C.2   323  ARG323      0.2287
    110  O        -12.9300  -38.4530   44.4580 O.2   323  ARG323     -0.2864
    111  CB       -10.2340  -40.1360   45.2930 C.3   323  ARG323      0.0334
    112  CG        -9.5010  -41.0390   46.2720 C.3   323  ARG323      0.0492
    113  CD        -8.4920  -40.2720   47.1300 C.3   323  ARG323      0.2205
    114  NE        -7.7470  -41.2120   47.9680 N.pl3 323  ARG323     -0.0865
    115  CZ        -8.0700  -41.5450   49.2150 C.cat 323  ARG323      0.5346
    116  NH1       -9.1290  -41.0060   49.8090 N.pl3 323  ARG323      0.1354
    117  NH2       -7.3270  -42.4210   49.8690 N.pl3 323  ARG323      0.1354
@<TRIPOS>BOND
     1   110   109    2
     2   109   108    1
     3   111   108    1
     4   111   112    1
     5   108   107    1
     6   112   113    1
     7   107   102   am
     8     1     2    1
     9   113   114    1
    10    36    34    1
    11   114   115    2
    12   102   101    1
    13   102   103    2
    14    29    30    1
    15    91    90    2
    16    23    22    2
    17     2     5    1
    18     2     3    1
    19   106   104    1
    20   101   104    1
    21   101   100    1
    22    22    21    1
    23    34    33    1
    24     4     3    2
    25     5     6    1
    26   115   116    1
    27   115   117    1
    28    30    33    1
    29    30    31    1
    30    90   100   am
    31    90    89    1
    32    18    17    2
    33   104   105    1
    34    44    42    1
    35    19    16    1
    36    33    35    1
    37    92    89    1
    38    92    93    1
    39    21    20    1
    40    21    24    1
    41    42    41    1
    42    17    20   am
    43    17    16    1
    44    31    37   am
    45    31    32    2
    46    89    88    1
    47    37    38    1
    48    16    15    1
    49    88    78   am
    50    24    25    1
    51    93    95   ar
    52    93    94   ar
    53    95    97   ar
    54    41    38    1
    55    41    43    1
    56    15     9   am
    57    38    39    1
    58     7     8    1
    59    97    98   ar
    60    78    77    1
    61    78    79    2
    62    94    96   ar
    63    80    77    1
    64    80    81    1
    65    77    76    1
    66    25    26    1
    67    69    68    2
    68     9     8    1
    69     9    10    2
    70    40    39    2
    71    82    81   ar
    72    82    84   ar
    73    39    45   am
    74     8    11    1
    75    26    27    1
    76    98    96   ar
    77    98    99    1
    78    81    83   ar
    79    68    76   am
    80    68    67    1
    81    84    86   ar
    82    45    46    1
    83    27    28    1
    84    11    12    1
    85    83    85   ar
    86    51    50   ar
    87    70    67    1
    88    70    71    1
    89    67    66    1
    90    13    12    2
    91    12    14   am
    92    66    63   am
    93    86    85   ar
    94    86    87    1
    95    50    52   ar
    96    50    49    1
    97    46    49    1
    98    46    47    1
    99    72    71   ar
   100    72    74   ar
   101    71    73   ar
   102    59    58    2
   103    62    63    1
   104    62    65    1
   105    62    61    1
   106    63    64    2
   107    47    53   am
   108    47    48    2
   109    53    54    1
   110    60    58   am
   111    58    57    1
   112    74    75   ar
   113    73    75   ar
   114    55    54    1
   115    55    56    2
   116    54    57    1
