@<TRIPOS>MOLECULE
tmp/4locD00.pdb
 142 139 0 0 0
SMALL
GASTEIGER

@<TRIPOS>ATOM
      1  N        -40.8020    2.2580   74.7910 N.3     9  TYR9       -0.1241
      2  CA       -41.1980    0.9700   75.3030 C.3     9  TYR9        0.1605
      3  C        -42.0170    0.2360   74.2440 C.2     9  TYR9        0.2264
      4  O        -41.7370   -0.8990   73.8940 O.2     9  TYR9       -0.2867
      5  CB       -41.9580    1.1120   76.6170 C.3     9  TYR9        0.0534
      6  CG       -42.4080   -0.2250   77.0450 C.ar    9  TYR9       -0.0201
      7  CD1      -41.5120   -1.1310   77.5960 C.ar    9  TYR9       -0.0009
      8  CD2      -43.7220   -0.6420   76.7940 C.ar    9  TYR9       -0.0009
      9  CE1      -41.9340   -2.3980   77.9300 C.ar    9  TYR9        0.0417
     10  CE2      -44.1420   -1.9150   77.0950 C.ar    9  TYR9        0.0417
     11  CZ       -43.2350   -2.7880   77.6640 C.ar    9  TYR9        0.1957
     12  OH       -43.6750   -4.0460   77.9960 O.3     9  TYR9       -0.2866
     13  N        -40.1300   -1.1280   71.4380 N.3    12  ASP12      -0.1225
     14  CA       -39.2530   -2.2220   71.8270 C.3    12  ASP12       0.1805
     15  C        -40.0510   -3.5200   71.9360 C.2    12  ASP12       0.2597
     16  O        -39.6480   -4.5780   71.4380 O.2    12  ASP12      -0.2718
     17  CB       -38.5130   -1.8740   73.1470 C.3    12  ASP12       0.1424
     18  CG       -37.1520   -2.5710   73.2790 C.2    12  ASP12       0.3668
     19  OD1      -36.8860   -3.6140   72.7110 O.co2  12  ASP12      -0.2456
     20  OD2      -36.3270   -2.0520   74.0120 O.co2  12  ASP12      -0.2456
     21  N        -41.2210   -3.4310   72.5340 N.am   13  VAL13      -0.1980
     22  CA       -42.0740   -4.6240   72.6720 C.3    13  VAL13       0.1595
     23  C        -42.8080   -5.0050   71.3920 C.2    13  VAL13       0.2287
     24  O        -43.0930   -6.1820   71.1250 O.2    13  VAL13      -0.2864
     25  CB       -43.0100   -4.4660   73.8880 C.3    13  VAL13       0.0276
     26  CG1      -43.9850   -3.3140   73.7260 C.3    13  VAL13       0.0022
     27  CG2      -43.7670   -5.7410   74.1640 C.3    13  VAL13       0.0022
     28  N        -39.6550   -6.6710   69.3740 N.3    16  ASN16      -0.1225
     29  CA       -39.0120   -7.7970   70.0690 C.3    16  ASN16       0.1785
     30  C        -39.9220   -8.6940   70.9250 C.2    16  ASN16       0.2598
     31  O        -39.4930   -9.7360   71.2990 O.2    16  ASN16      -0.2718
     32  CB       -37.9180   -7.2190   70.9910 C.3    16  ASN16       0.1169
     33  CG       -36.8880   -6.4180   70.2190 C.2    16  ASN16       0.2627
     34  OD1      -36.6270   -5.2220   70.4580 O.2    16  ASN16      -0.2716
     35  ND2      -36.3150   -7.0550   69.3050 N.am   16  ASN16      -0.0877
     36  N        -41.1590   -8.3160   71.2190 N.am   17  GLY17      -0.1942
     37  CA       -42.0300   -9.1110   72.1270 C.3    17  GLY17       0.2014
     38  C        -41.7370   -8.8480   73.6020 C.2    17  GLY17       0.2639
     39  O        -40.7550   -8.1890   73.9450 O.2    17  GLY17      -0.2714
     40  N        -42.6100   -9.2880   74.4990 N.am   18  HIS18      -0.1959
     41  CA       -42.2980   -9.1770   75.9370 C.3    18  HIS18       0.1772
     42  C        -41.6010  -10.5030   76.3870 C.2    18  HIS18       0.2462
     43  O        -42.0360  -11.5950   76.0050 O.2    18  HIS18      -0.2730
     44  CB       -43.5440   -8.9140   76.7480 C.3    18  HIS18       0.0785
     45  CG       -43.2680   -8.4520   78.1460 C.ar   18  HIS18       0.0821
     46  ND1      -42.9760   -9.3250   79.1720 N.ar   18  HIS18      -0.2267
     47  CD2      -43.3030   -7.2190   78.7070 C.ar   18  HIS18       0.1154
     48  CE1      -42.8200   -8.6490   80.2980 C.ar   18  HIS18       0.1986
     49  NE2      -43.0170   -7.3660   80.0470 N.ar   18  HIS18      -0.2212
     50  N        -40.4960  -10.4060   77.1130 N.am   19  PRO19      -0.2716
     51  CA       -39.7840  -11.6550   77.5550 C.3    19  PRO19       0.1536
     52  C        -40.7250  -12.6680   78.2870 C.2    19  PRO19       0.2598
     53  O        -40.6860  -13.8500   78.0380 O.2    19  PRO19      -0.2715
     54  CB       -38.7210  -11.1290   78.5330 C.3    19  PRO19       0.0310
     55  CG       -38.5180   -9.7200   78.1040 C.3    19  PRO19       0.0237
     56  CD       -39.8760   -9.2000   77.6850 C.3    19  PRO19       0.0939
     57  N        -41.6140  -12.1700   79.1050 N.am   20  GLU20      -0.1978
     58  CA       -42.6410  -13.0020   79.7680 C.3    20  GLU20       0.1602
     59  C        -43.7490  -13.5430   78.9020 C.2    20  GLU20       0.2287
     60  O        -44.5330  -14.3720   79.3480 O.2    20  GLU20      -0.2864
     61  CB       -43.3150  -12.1720   80.8790 C.3    20  GLU20       0.0415
     62  CG       -42.4340  -11.8390   82.0360 C.3    20  GLU20       0.1163
     63  CD       -42.1690  -13.0510   82.8570 C.2    20  GLU20       0.3649
     64  OE1      -43.1080  -13.5610   83.4740 O.co2  20  GLU20      -0.2457
     65  OE2      -41.0340  -13.4840   82.8700 O.co2  20  GLU20      -0.2457
     66  N        -42.4530   -5.0240   90.2930 N.3   123  MET123     -0.1230
     67  CA       -41.2200   -4.4390   89.7920 C.3   123  MET123      0.1702
     68  C        -40.4530   -5.3650   88.8880 C.2   123  MET123      0.2592
     69  O        -40.0110   -4.9690   87.8570 O.2   123  MET123     -0.2718
     70  CB       -40.2970   -4.0170   90.9290 C.3   123  MET123      0.0401
     71  CG       -40.8770   -2.9160   91.8130 C.3   123  MET123      0.0596
     72  SD       -39.7010   -2.3140   93.0860 S.3   123  MET123     -0.1393
     73  CE       -39.6770   -3.7000   94.2440 C.3   123  MET123      0.0692
     74  N        -40.2740   -6.6000   89.2870 N.am  124  ARG124     -0.1966
     75  CA       -39.3550   -7.4730   88.5810 C.3   124  ARG124      0.1729
     76  C        -39.8770   -7.7920   87.1700 C.2   124  ARG124      0.2616
     77  O        -39.1160   -7.7380   86.1750 O.2   124  ARG124     -0.2715
     78  CB       -39.1890   -8.7420   89.4070 C.3   124  ARG124      0.0348
     79  CG       -38.0480   -9.7000   89.0360 C.3   124  ARG124      0.0492
     80  CD       -38.0550  -10.8170   90.1120 C.3   124  ARG124      0.2205
     81  NE       -36.7060  -11.0910   90.5000 N.pl3 124  ARG124     -0.0865
     82  CZ       -36.1720  -11.1610   91.7370 C.cat 124  ARG124      0.5346
     83  NH1      -34.8420  -11.3760   91.7860 N.pl3 124  ARG124      0.1354
     84  NH2      -36.8770  -11.0720   92.8980 N.pl3 124  ARG124      0.1354
     85  N        -41.1780   -8.0830   87.1060 N.am  125  PHE125     -0.1974
     86  CA       -41.8090   -8.6430   85.9050 C.3   125  PHE125      0.1639
     87  C        -42.8120   -7.7400   85.2040 C.2   125  PHE125      0.2290
     88  O        -43.1780   -8.0170   84.0770 O.2   125  PHE125     -0.2864
     89  CB       -42.5030   -9.9770   86.2560 C.3   125  PHE125      0.0560
     90  CG       -41.5450  -11.0850   86.5790 C.ar  125  PHE125     -0.0200
     91  CD1      -40.6640  -11.5370   85.6430 C.ar  125  PHE125     -0.0042
     92  CD2      -41.5370  -11.6900   87.8390 C.ar  125  PHE125     -0.0042
     93  CE1      -39.7740  -12.5730   85.9340 C.ar  125  PHE125     -0.0003
     94  CE2      -40.6550  -12.7260   88.1400 C.ar  125  PHE125     -0.0003
     95  CZ       -39.7650  -13.1560   87.1990 C.ar  125  PHE125     -0.0000
     96  N        -42.5530   -4.0500   85.5850 N.3   127  THR127     -0.1218
     97  CA       -42.0110   -2.7010   85.5520 C.3   127  THR127      0.1862
     98  C        -43.0150   -1.6880   86.0690 C.2   127  THR127      0.2287
     99  O        -43.3350   -0.6890   85.4060 O.2   127  THR127     -0.2866
    100  CB       -41.5680   -2.3500   84.0940 C.3   127  THR127      0.1770
    101  OG1      -41.0660   -3.5130   83.4590 O.3   127  THR127     -0.2211
    102  CG2      -40.5190   -1.3270   84.0510 C.3   127  THR127      0.0375
    103  N        -35.0650    0.8900   84.5440 N.3   525  ALA525     -0.1245
    104  CA       -36.0410    0.6090   83.5140 C.3   525  ALA525      0.1562
    105  C        -37.1120    1.7050   83.4310 C.2   525  ALA525      0.2260
    106  O        -37.5620    2.0460   82.3420 O.2   525  ALA525     -0.2867
    107  CB       -36.6920   -0.7690   83.7600 C.3   525  ALA525      0.0290
    108  N        -38.0310    3.7350   80.0600 N.3   529  TYR529     -0.1241
    109  CA       -39.3280    3.3900   79.4460 C.3   529  TYR529      0.1605
    110  C        -40.5350    4.2230   79.9170 C.2   529  TYR529      0.2264
    111  O        -41.6500    4.1430   79.3640 O.2   529  TYR529     -0.2867
    112  CB       -39.5590    1.9390   79.6900 C.3   529  TYR529      0.0534
    113  CG       -38.6800    1.0200   78.9080 C.ar  529  TYR529     -0.0201
    114  CD1      -38.6050    1.1110   77.4990 C.ar  529  TYR529     -0.0009
    115  CD2      -38.0080   -0.0110   79.5240 C.ar  529  TYR529     -0.0009
    116  CE1      -37.8360    0.2230   76.7720 C.ar  529  TYR529      0.0417
    117  CE2      -37.2270   -0.9060   78.7960 C.ar  529  TYR529      0.0417
    118  CZ       -37.1350   -0.7920   77.4310 C.ar  529  TYR529      0.1957
    119  OH       -36.3400   -1.6790   76.7040 O.3   529  TYR529     -0.2866
    120  N        -49.1140   -3.4710   76.9130 N.3   540  TYR540     -0.1241
    121  CA       -47.9870   -3.7470   77.7710 C.3   540  TYR540      0.1605
    122  C        -47.2430   -5.0410   77.3050 C.2   540  TYR540      0.2264
    123  O        -45.9850   -5.0610   77.1450 O.2   540  TYR540     -0.2867
    124  CB       -48.3900   -3.8840   79.2280 C.3   540  TYR540      0.0534
    125  CG       -47.1860   -4.2710   80.0370 C.ar  540  TYR540     -0.0201
    126  CD1      -46.2100   -3.3160   80.3190 C.ar  540  TYR540     -0.0009
    127  CD2      -46.9530   -5.5880   80.4050 C.ar  540  TYR540     -0.0009
    128  CE1      -45.0490   -3.6360   80.9860 C.ar  540  TYR540      0.0417
    129  CE2      -45.8020   -5.9140   81.1090 C.ar  540  TYR540      0.0417
    130  CZ       -44.8540   -4.9310   81.3870 C.ar  540  TYR540      0.1957
    131  OH       -43.6910   -5.2080   82.0230 O.3   540  TYR540     -0.2866
    132  N        -33.4530   -7.3400   69.0750 N.3   594  ARG594     -0.1245
    133  CA       -32.9640   -8.2480   70.1200 C.3   594  ARG594      0.1563
    134  C        -32.9550   -9.7350   69.7550 C.2   594  ARG594      0.2260
    135  O        -32.7850  -10.5870   70.6230 O.2   594  ARG594     -0.2867
    136  CB       -33.7920   -8.0580   71.3820 C.3   594  ARG594      0.0307
    137  CG       -33.7320   -6.6420   71.9100 C.3   594  ARG594      0.0489
    138  CD       -34.5840   -6.5390   73.1410 C.3   594  ARG594      0.2205
    139  NE       -34.6930   -5.1940   73.7050 N.pl3 594  ARG594     -0.0865
    140  CZ       -33.7050   -4.5070   74.2760 C.cat 594  ARG594      0.5346
    141  NH1      -32.4750   -4.9770   74.3580 N.pl3 594  ARG594      0.1354
    142  NH2      -33.9390   -3.3100   74.7630 N.pl3 594  ARG594      0.1354
@<TRIPOS>BOND
     1   132   133    1
     2    35    33   am
     3    28    29    1
     4   134   133    1
     5   134   135    2
     6    29    30    1
     7    29    32    1
     8   133   136    1
     9    33    34    2
    10    33    32    1
    11    30    36   am
    12    30    31    2
    13    24    23    2
    14    36    37    1
    15   136   137    1
    16    23    22    1
    17    13    14    1
    18    16    15    2
    19    14    15    1
    20    14    17    1
    21   137   138    1
    22    15    21   am
    23    37    38    1
    24    21    22    1
    25    22    25    1
    26    19    18   ar
    27   138   139    1
    28    17    18    1
    29    18    20   ar
    30    38    39    2
    31    38    40   am
    32   139   140    2
    33    26    25    1
    34    25    27    1
    35     4     3    2
    36     3     2    1
    37   140   141    1
    38   140   142    1
    39    40    41    1
    40     1     2    1
    41     2     5    1
    42    41    42    1
    43    41    44    1
    44    43    42    2
    45    42    50   am
    46     5     6    1
    47   119   118    1
    48    44    45    1
    49   116   118   ar
    50   116   114   ar
    51     8     6   ar
    52     8    10   ar
    53   120   121    1
    54     6     7   ar
    55    10    11   ar
    56    50    51    1
    57    50    56    1
    58   123   122    2
    59   122   121    1
    60   118   117   ar
    61   114   113   ar
    62    51    52    1
    63    51    54    1
    64     7     9   ar
    65    11     9   ar
    66    11    12    1
    67    56    55    1
    68   121   124    1
    69    53    52    2
    70    55    54    1
    71    45    47   ar
    72    45    46   ar
    73    52    57   am
    74    47    49   ar
    75   117   115   ar
    76    59    60    2
    77    59    58    1
    78   113   115   ar
    79   113   112    1
    80    57    58    1
    81    46    48   ar
    82   124   125    1
    83   111   110    2
    84   109   112    1
    85   109   110    1
    86   109   108    1
    87    58    61    1
    88   125   126   ar
    89   125   127   ar
    90    49    48   ar
    91   126   128   ar
    92   127   129   ar
    93    61    62    1
    94   128   130   ar
    95   129   130   ar
    96   130   131    1
    97    62    63    1
    98   106   105    2
    99    63    65   ar
   100    63    64   ar
   101   105   104    1
   102   101   100    1
   103   104   107    1
   104   104   103    1
   105   102   100    1
   106    88    87    2
   107   100    97    1
   108    87    86    1
   109    99    98    2
   110    97    96    1
   111    97    98    1
   112    91    93   ar
   113    91    90   ar
   114    86    89    1
   115    86    85    1
   116    93    95   ar
   117    77    76    2
   118    89    90    1
   119    90    92   ar
   120    85    76   am
   121    76    75    1
   122    95    94   ar
   123    92    94   ar
   124    69    68    2
   125    75    74    1
   126    75    78    1
   127    68    74   am
   128    68    67    1
   129    79    78    1
   130    79    80    1
   131    67    66    1
   132    67    70    1
   133    80    81    1
   134    81    82    2
   135    70    71    1
   136    82    83    1
   137    82    84    1
   138    71    72    1
   139    72    73    1
