@<TRIPOS>MOLECULE
tmp/4lojA00.pdb
 124 120 0 0 0
SMALL
GASTEIGER

@<TRIPOS>ATOM
      1  N         41.0190   13.7620   24.3810 N.3     7  SER7       -0.1202
      2  CA        41.4270   15.0140   23.7740 C.3     7  SER7        0.2020
      3  C         40.9310   16.2310   24.5950 C.2     7  SER7        0.2618
      4  O         41.6520   17.2140   24.8290 O.2     7  SER7       -0.2717
      5  CB        40.8480   15.0890   22.3550 C.3     7  SER7        0.2103
      6  OG        40.8580   16.4000   21.8190 O.3     7  SER7       -0.2182
      7  N         39.7190   16.1230   25.0960 N.am    8  TYR8       -0.1975
      8  CA        39.1290   17.2400   25.8850 C.3     8  TYR8        0.1639
      9  C         39.8470   17.3790   27.2130 C.2     8  TYR8        0.2290
     10  O         39.9970   18.4890   27.7550 O.2     8  TYR8       -0.2864
     11  CB        37.6510   16.9820   26.0690 C.3     8  TYR8        0.0560
     12  CG        36.8740   18.1170   26.6570 C.ar    8  TYR8       -0.0198
     13  CD1       36.7770   19.3380   25.9980 C.ar    8  TYR8       -0.0009
     14  CD2       36.2260   17.9850   27.8680 C.ar    8  TYR8       -0.0009
     15  CE1       36.0490   20.3810   26.5660 C.ar    8  TYR8        0.0417
     16  CE2       35.5000   19.0260   28.4270 C.ar    8  TYR8        0.0417
     17  CZ        35.3980   20.2110   27.7410 C.ar    8  TYR8        0.1957
     18  OH        34.7190   21.2080   28.3460 O.3     8  TYR8       -0.2866
     19  N         44.0420   18.1750   26.0920 N.3    11  GLY11      -0.1210
     20  CA        44.1490   19.4400   25.4410 C.3    11  GLY11       0.1956
     21  C         43.4320   20.6190   26.0560 C.2    11  GLY11       0.2611
     22  O         43.5370   21.7370   25.5680 O.2    11  GLY11      -0.2717
     23  N         42.6550   20.3760   27.0990 N.am   12  TYR12      -0.1976
     24  CA        41.9110   21.5050   27.7030 C.3    12  TYR12       0.1639
     25  C         41.8200   21.4590   29.2170 C.2    12  TYR12       0.2290
     26  O         42.4600   22.2610   29.8820 O.2    12  TYR12      -0.2864
     27  CB        40.5410   21.5740   27.0090 C.3    12  TYR12       0.0560
     28  CG        39.6980   22.7530   27.4660 C.ar   12  TYR12      -0.0198
     29  CD1       40.1470   24.0660   27.2950 C.ar   12  TYR12      -0.0009
     30  CD2       38.4570   22.5670   28.0740 C.ar   12  TYR12      -0.0009
     31  CE1       39.4000   25.1470   27.7010 C.ar   12  TYR12       0.0417
     32  CE2       37.7210   23.6530   28.4540 C.ar   12  TYR12       0.0417
     33  CZ        38.1920   24.9240   28.2950 C.ar   12  TYR12       0.1957
     34  OH        37.4460   26.0520   28.6900 O.3    12  TYR12      -0.2866
     35  N         51.8190   26.2700   23.0320 N.3    77  ARG77      -0.1231
     36  CA        51.2120   24.9680   22.7120 C.3    77  ARG77       0.1694
     37  C         51.4690   24.5510   21.2840 C.2    77  ARG77       0.2591
     38  O         51.0020   25.1890   20.3240 O.2    77  ARG77      -0.2718
     39  CB        49.6900   25.0480   22.9250 C.3    77  ARG77       0.0321
     40  CG        49.2550   25.3720   24.3350 C.3    77  ARG77       0.0489
     41  CD        49.1790   24.1310   25.2250 C.3    77  ARG77       0.2205
     42  NE        48.2600   23.1830   24.6750 N.pl3  77  ARG77      -0.0865
     43  CZ        48.4990   21.9080   24.4500 C.cat  77  ARG77       0.5346
     44  NH1       49.6710   21.3410   24.8700 N.pl3  77  ARG77       0.1354
     45  NH2       47.5410   21.1900   23.8730 N.pl3  77  ARG77       0.1354
     46  N         52.2570   23.4690   21.1170 N.am   78  ALA78      -0.1980
     47  CA        52.4310   22.8420   19.7870 C.3    78  ALA78       0.1597
     48  C         52.9040   23.8310   18.7230 C.2    78  ALA78       0.2287
     49  O         52.4160   23.8230   17.5910 O.2    78  ALA78      -0.2864
     50  CB        51.1640   22.1410   19.3550 C.3    78  ALA78       0.0319
     51  N         52.5130   27.0870   18.8350 N.3    80  ILE80      -0.1245
     52  CA        51.8100   28.3330   18.8980 C.3    80  ILE80       0.1561
     53  C         52.2040   29.0600   20.1990 C.2    80  ILE80       0.2260
     54  O         51.9530   28.5890   21.2990 O.2    80  ILE80      -0.2867
     55  CB        50.2900   28.1180   18.8120 C.3    80  ILE80       0.0252
     56  CG1       49.9810   27.5090   17.4470 C.3    80  ILE80       0.0019
     57  CG2       49.5790   29.4570   19.0360 C.3    80  ILE80       0.0019
     58  CD1       48.5530   27.1210   17.2760 C.3    80  ILE80       0.0001
     59  N         49.1830   30.6040   22.9850 N.3    83  ARG83      -0.1231
     60  CA        47.8240   30.1730   22.6640 C.3    83  ARG83       0.1694
     61  C         46.9460   30.5990   23.8570 C.2    83  ARG83       0.2592
     62  O         47.3330   30.4780   25.0080 O.2    83  ARG83      -0.2718
     63  CB        47.7460   28.6590   22.4410 C.3    83  ARG83       0.0321
     64  CG        46.3540   28.1800   22.2300 C.3    83  ARG83       0.0489
     65  CD        46.2960   26.7920   21.6090 C.3    83  ARG83       0.2205
     66  NE        44.9240   26.2580   21.6640 N.pl3  83  ARG83      -0.0865
     67  CZ        44.6130   25.0380   21.3070 C.cat  83  ARG83       0.5346
     68  NH1       45.5330   24.2220   20.8260 N.pl3  83  ARG83       0.1354
     69  NH2       43.3620   24.6260   21.4530 N.pl3  83  ARG83       0.1354
     70  N         45.7640   31.0900   23.5430 N.am   84  VAL84      -0.1966
     71  CA        44.9120   31.7020   24.5590 C.3    84  VAL84       0.1727
     72  C         43.7260   30.8110   24.9040 C.2    84  VAL84       0.2616
     73  O         42.9670   30.3300   24.0460 O.2    84  VAL84      -0.2715
     74  CB        44.3900   33.0670   24.0370 C.3    84  VAL84       0.0290
     75  CG1       43.4440   33.7330   25.0490 C.3    84  VAL84       0.0023
     76  CG2       45.5300   33.9680   23.6310 C.3    84  VAL84       0.0023
     77  N         43.5360   30.6770   26.2140 N.am   85  TYR85      -0.1960
     78  CA        42.4450   29.9100   26.7830 C.3    85  TYR85       0.1771
     79  C         41.5960   30.9220   27.5530 C.2    85  TYR85       0.2620
     80  O         42.0790   31.7150   28.3670 O.2    85  TYR85      -0.2715
     81  CB        42.9740   28.7590   27.6640 C.3    85  TYR85       0.0574
     82  CG        43.7070   27.7050   26.8930 C.ar   85  TYR85      -0.0198
     83  CD1       45.0270   27.8930   26.5290 C.ar   85  TYR85      -0.0009
     84  CD2       43.0810   26.6150   26.3770 C.ar   85  TYR85      -0.0009
     85  CE1       45.6970   26.9520   25.7420 C.ar   85  TYR85       0.0417
     86  CE2       43.7610   25.6650   25.5890 C.ar   85  TYR85       0.0417
     87  CZ        45.0890   25.8450   25.3170 C.ar   85  TYR85       0.1957
     88  OH        45.7580   24.9490   24.5320 O.3    85  TYR85      -0.2866
     89  N         40.3270   30.9750   27.2170 N.am   86  SER86      -0.1950
     90  CA        39.4160   31.9910   27.7300 C.3    86  SER86       0.1924
     91  C         38.1650   31.3600   28.2520 C.2    86  SER86       0.2314
     92  O         37.7400   30.2810   27.8320 O.2    86  SER86      -0.2863
     93  CB        39.0010   32.9570   26.6230 C.3    86  SER86       0.2116
     94  OG        40.0590   33.3890   25.8300 O.3    86  SER86      -0.2180
     95  N         30.0050   27.3390   29.9490 N.3   105  GLU105     -0.1245
     96  CA        30.2840   27.0430   28.5760 C.3   105  GLU105      0.1567
     97  C         29.7740   25.6360   28.2150 C.2   105  GLU105      0.2260
     98  O         29.5020   24.8240   29.0850 O.2   105  GLU105     -0.2867
     99  CB        31.8000   27.1360   28.2940 C.3   105  GLU105      0.0388
    100  CG        32.6010   26.1020   28.9870 C.3   105  GLU105      0.1160
    101  CD        34.0910   26.4210   29.0490 C.2   105  GLU105      0.3649
    102  OE1       34.4370   27.5070   29.4130 O.co2 105  GLU105     -0.2457
    103  OE2       34.9000   25.5070   28.7430 O.co2 105  GLU105     -0.2457
    104  N         32.8290   21.5600   24.0500 N.3   108  THR108     -0.1204
    105  CA        33.0170   21.7610   22.6060 C.3   108  THR108      0.1979
    106  C         33.0030   20.5030   21.7000 C.2   108  THR108      0.2459
    107  O         32.5200   20.5870   20.5680 O.2   108  THR108     -0.2732
    108  CB        34.3320   22.5370   22.3640 C.3   108  THR108      0.1783
    109  OG1       35.3230   22.0930   23.3570 O.3   108  THR108     -0.2211
    110  CG2       34.1250   23.9520   22.6590 C.3   108  THR108      0.0376
    111  N         33.4550   19.3470   22.1950 N.am  109  PRO109     -0.2728
    112  CA        33.4410   18.1670   21.3380 C.3   109  PRO109      0.1401
    113  C         32.0300   17.7130   20.9060 C.2   109  PRO109      0.2269
    114  O         31.8860   17.0680   19.8660 O.2   109  PRO109     -0.2865
    115  CB        34.0730   17.0800   22.1730 C.3   109  PRO109      0.0296
    116  CG        34.9950   17.8240   23.0780 C.3   109  PRO109      0.0237
    117  CD        34.2530   19.0860   23.4300 C.3   109  PRO109      0.0939
    118  N         31.2330   19.1100   17.6150 N.3   112  THR112     -0.1218
    119  CA        31.8720   18.3040   16.5840 C.3   112  THR112      0.1862
    120  C         31.0730   17.0700   16.2350 C.2   112  THR112      0.2287
    121  O         30.8940   16.7560   15.0560 O.2   112  THR112     -0.2866
    122  CB        33.3090   17.8840   17.0030 C.3   112  THR112      0.1770
    123  OG1       34.1460   19.0170   16.8470 O.3   112  THR112     -0.2211
    124  CG2       33.8610   16.7960   16.1390 C.3   112  THR112      0.0375
@<TRIPOS>BOND
     1   121   120    2
     2   124   122    1
     3   120   119    1
     4   119   122    1
     5   119   118    1
     6   123   122    1
     7    58    56    1
     8    56    55    1
     9    49    48    2
    10    48    47    1
    11    55    52    1
    12    55    57    1
    13    51    52    1
    14    52    53    1
    15    50    47    1
    16    47    46    1
    17   114   113    2
    18    53    54    2
    19    38    37    2
    20   107   106    2
    21    68    67    1
    22   113   112    1
    23    46    37   am
    24    37    36    1
    25    67    69    1
    26    67    66    2
    27   112   115    1
    28   112   111    1
    29    65    66    1
    30    65    64    1
    31   106   111   am
    32   106   105    1
    33     6     5    1
    34   115   116    1
    35   111   117    1
    36    64    63    1
    37     5     2    1
    38   108   105    1
    39   108   110    1
    40   108   109    1
    41    63    60    1
    42   105   104    1
    43    60    59    1
    44    60    61    1
    45    36    39    1
    46    36    35    1
    47    39    40    1
    48   116   117    1
    49    70    61   am
    50    70    71    1
    51    76    74    1
    52     2     1    1
    53     2     3    1
    54    61    62    2
    55    45    43    1
    56    74    71    1
    57    74    75    1
    58    73    72    2
    59    40    41    1
    60    43    42    2
    61    43    44    1
    62    88    87    1
    63    71    72    1
    64     3     4    2
    65     3     7   am
    66    42    41    1
    67    72    77   am
    68     7     8    1
    69    87    86   ar
    70    87    85   ar
    71    20    21    1
    72    20    19    1
    73    22    21    2
    74    86    84   ar
    75    85    83   ar
    76    94    93    1
    77     8    11    1
    78     8     9    1
    79    13    15   ar
    80    13    12   ar
    81    21    23   am
    82    11    12    1
    83    77    78    1
    84    84    82   ar
    85    83    82   ar
    86    15    17   ar
    87    93    90    1
    88    12    14   ar
    89    78    79    1
    90    78    81    1
    91    82    81    1
    92    27    28    1
    93    27    24    1
    94    23    24    1
    95     9    10    2
    96    89    79   am
    97    89    90    1
    98    29    28   ar
    99    29    31   ar
   100    28    30   ar
   101    79    80    2
   102    31    33   ar
   103    24    25    1
   104    90    91    1
   105    17    18    1
   106    17    16   ar
   107    92    91    2
   108    14    16   ar
   109    30    32   ar
   110    97    96    1
   111    97    98    2
   112    99    96    1
   113    99   100    1
   114    33    32   ar
   115    33    34    1
   116    96    95    1
   117   103   101   ar
   118   100   101    1
   119   101   102   ar
   120    25    26    2
