@<TRIPOS>MOLECULE
tmp/4loyA02.pdb
 200 198 0 0 0
SMALL
GASTEIGER

@<TRIPOS>ATOM
      1  N          5.8190   -6.3280   17.4850 N.3    43  HIS43      -0.1241
      2  CA         5.9620   -7.6960   17.9820 C.3    43  HIS43       0.1621
      3  C          6.6820   -7.7600   19.3300 C.2    43  HIS43       0.2264
      4  O          6.5630   -8.7670   20.0160 O.2    43  HIS43      -0.2867
      5  CB         6.5700   -8.6580   16.9460 C.3    43  HIS43       0.0745
      6  CG         8.0500   -8.5910   16.8800 C.ar   43  HIS43       0.0817
      7  ND1        8.6920   -7.8040   15.9530 N.ar   43  HIS43      -0.2268
      8  CD2        8.9690   -9.1910   17.6670 C.ar   43  HIS43       0.1154
      9  CE1        9.9830   -7.9220   16.2170 C.ar   43  HIS43       0.1986
     10  NE2       10.1920   -8.7350   17.2630 N.ar   43  HIS43      -0.2212
     11  N          2.5540  -10.2760   20.4950 N.3    47  TYR47      -0.1241
     12  CA         2.8430  -11.4440   19.6670 C.3    47  TYR47       0.1605
     13  C          2.0580  -12.6770   20.1770 C.2    47  TYR47       0.2264
     14  O          2.6200  -13.5380   20.8600 O.2    47  TYR47      -0.2867
     15  CB         4.3630  -11.6950   19.5010 C.3    47  TYR47       0.0534
     16  CG         4.6670  -12.6220   18.3430 C.ar   47  TYR47      -0.0201
     17  CD1        4.3550  -12.2610   17.0340 C.ar   47  TYR47      -0.0009
     18  CD2        5.2650  -13.8630   18.5560 C.ar   47  TYR47      -0.0009
     19  CE1        4.6060  -13.1220   15.9640 C.ar   47  TYR47       0.0417
     20  CE2        5.5380  -14.7250   17.4930 C.ar   47  TYR47       0.0417
     21  CZ         5.1970  -14.3540   16.1990 C.ar   47  TYR47       0.1957
     22  OH         5.4460  -15.2080   15.1510 O.3    47  TYR47      -0.2866
     23  N          3.3140  -16.4780   20.8160 N.3    50  TRP50      -0.1241
     24  CA         4.1850  -16.6690   21.9880 C.3    50  TRP50       0.1605
     25  C          3.5070  -16.2340   23.3000 C.2    50  TRP50       0.2264
     26  O          4.2000  -16.1300   24.3110 O.2    50  TRP50      -0.2867
     27  CB         5.4770  -15.8460   21.8120 C.3    50  TRP50       0.0550
     28  CG         6.5170  -16.4380   20.8980 C.ar   50  TRP50       0.0003
     29  CD1        6.3300  -17.3770   19.9240 C.ar   50  TRP50       0.0946
     30  CD2        7.8990  -16.0540   20.8240 C.ar   50  TRP50       0.0152
     31  NE1        7.5170  -17.6260   19.2730 N.ar   50  TRP50      -0.2442
     32  CE2        8.4990  -16.8390   19.8160 C.ar   50  TRP50       0.0810
     33  CE3        8.6900  -15.1220   21.5190 C.ar   50  TRP50       0.0012
     34  CZ2        9.8590  -16.7280   19.4890 C.ar   50  TRP50       0.0191
     35  CZ3       10.0350  -15.0080   21.1930 C.ar   50  TRP50       0.0001
     36  CH2       10.6110  -15.8190   20.2040 C.ar   50  TRP50       0.0015
     37  N          2.4960  -13.3040   24.0550 N.3    52  LYS52      -0.1245
     38  CA         3.0580  -12.0090   24.3980 C.3    52  LYS52       0.1561
     39  C          2.0030  -10.9310   24.1660 C.2    52  LYS52       0.2260
     40  O          1.5120  -10.7750   23.0520 O.2    52  LYS52      -0.2867
     41  CB         4.3210  -11.7390   23.5700 C.3    52  LYS52       0.0271
     42  CG         4.9380  -10.3530   23.8030 C.3    52  LYS52       0.0035
     43  CD         6.3200  -10.2140   23.1340 C.3    52  LYS52       0.0206
     44  CE         7.4250  -10.8670   23.9410 C.3    52  LYS52       0.1093
     45  NZ         8.6280  -11.1460   23.1270 N.3    52  LYS52      -0.1314
     46  N          0.8070  -13.4450    9.9250 N.3    94  GLU94      -0.1182
     47  CA         1.5030  -13.9140    8.7320 C.3    94  GLU94       0.1915
     48  C          2.9880  -13.5270    8.6100 C.2    94  GLU94       0.2634
     49  O          3.8380  -14.4170    8.6100 O.2    94  GLU94      -0.2714
     50  CB         0.7180  -13.4300    7.4740 C.2    94  GLU94       0.0085
     51  CG         1.2930  -13.8580    6.1330 C.2    94  GLU94       0.0835
     52  CD         0.7590  -13.1550    4.8950 C.2    94  GLU94       0.3877
     53  OE1       -0.1860  -12.3380    5.0070 O.co2  94  GLU94      -0.2406
     54  OE2        1.3150  -13.4130    3.8030 O.co2  94  GLU94      -0.2406
     55  N          3.2860  -12.2340    8.3860 N.am   95  ASN95      -0.1958
     56  CA         4.6150  -11.7680    8.0470 C.3    95  ASN95       0.1819
     57  C          5.1220  -10.5470    8.8230 C.2    95  ASN95       0.2621
     58  O          6.1200   -9.9550    8.4080 O.2    95  ASN95      -0.2715
     59  CB         4.6270  -11.4630    6.5300 C.3    95  ASN95       0.1195
     60  CG         3.5530  -10.4740    6.0910 C.2    95  ASN95       0.2630
     61  OD1        2.7990   -9.9260    6.9080 O.2    95  ASN95      -0.2716
     62  ND2        3.4120  -10.2820    4.7890 N.am   95  ASN95      -0.0877
     63  N          4.4330  -10.1450    9.9270 N.am   96  LEU96      -0.1977
     64  CA         4.8050   -8.9570   10.7220 C.3    96  LEU96       0.1596
     65  C          4.7210   -7.6800    9.8730 C.2    96  LEU96       0.2287
     66  O          5.4920   -6.7340   10.0720 O.2    96  LEU96      -0.2864
     67  CB         6.1840   -9.0950   11.4110 C.3    96  LEU96       0.0297
     68  CG         6.3930  -10.2840   12.3810 C.3    96  LEU96       0.0022
     69  CD1        7.7670  -10.1840   13.0770 C.3    96  LEU96       0.0001
     70  CD2        5.2590  -10.4020   13.4130 C.3    96  LEU96       0.0001
     71  N          8.2310  -16.4540    2.6840 N.3   172  ILE172     -0.1245
     72  CA         7.3290  -15.4670    3.3040 C.3   172  ILE172      0.1561
     73  C          6.9830  -14.3640    2.2970 C.2   172  ILE172      0.2260
     74  O          7.8600  -13.9510    1.5340 O.2   172  ILE172     -0.2867
     75  CB         8.0100  -14.8730    4.5880 C.3   172  ILE172      0.0252
     76  CG1        8.3990  -15.9680    5.6070 C.3   172  ILE172      0.0019
     77  CG2        7.1890  -13.7450    5.2540 C.3   172  ILE172      0.0019
     78  CD1        7.2290  -16.8880    6.1190 C.3   172  ILE172      0.0001
     79  N         24.4190   -9.4050   10.9650 N.3   192  ASP192     -0.1225
     80  CA        22.9550   -9.3770   11.0520 C.3   192  ASP192      0.1805
     81  C         22.5160   -9.0400   12.4550 C.2   192  ASP192      0.2598
     82  O         23.2940   -9.1810   13.4010 O.2   192  ASP192     -0.2718
     83  CB        22.3910  -10.7940   10.7040 C.3   192  ASP192      0.1424
     84  CG        20.9070  -10.8790   10.3570 C.2   192  ASP192      0.3668
     85  OD1       20.2470   -9.8110   10.2600 O.co2 192  ASP192     -0.2456
     86  OD2       20.4000  -12.0140   10.2060 O.co2 192  ASP192     -0.2456
     87  N         21.2310   -8.6900   12.5990 N.am  193  ALA193     -0.1966
     88  CA        20.5940   -8.5690   13.8900 C.3   193  ALA193      0.1728
     89  C         20.2320  -10.0190   14.3170 C.2   193  ALA193      0.2616
     90  O         20.3260  -10.9660   13.5200 O.2   193  ALA193     -0.2715
     91  CB        19.3310   -7.7250   13.7770 C.3   193  ALA193      0.0334
     92  N         19.8780  -10.1990   15.5870 N.am  194  CYS194     -0.1954
     93  CA        19.4920  -11.5090   16.1290 C.3   194  CYS194      0.1843
     94  C         18.4890  -11.3050   17.2510 C.2   194  CYS194      0.2625
     95  O         18.0910  -10.1680   17.4960 O.2   194  CYS194     -0.2714
     96  CB        20.7130  -12.3030   16.5940 C.3   194  CYS194      0.0997
     97  SG        20.4610  -14.1060   16.6340 S.3   194  CYS194     -0.0797
     98  N         18.0480  -12.4100   17.9060 N.am  195  GLU195     -0.1977
     99  CA        17.1120  -12.3890   19.0230 C.3   195  GLU195      0.1602
    100  C         17.5860  -11.3890   20.0820 C.2   195  GLU195      0.2287
    101  O         18.7290  -11.4630   20.5280 O.2   195  GLU195     -0.2864
    102  CB        16.9820  -13.8020   19.6300 C.3   195  GLU195      0.0415
    103  CG        15.5850  -14.1100   20.1430 C.3   195  GLU195      0.1163
    104  CD        15.1720  -13.5010   21.4710 C.2   195  GLU195      0.3649
    105  OE1       16.0590  -13.2190   22.3090 O.co2 195  GLU195     -0.2457
    106  OE2       13.9490  -13.3590   21.6960 O.co2 195  GLU195     -0.2457
    107  N         15.5070   -7.0530   17.9450 N.3   198  SER198     -0.1217
    108  CA        14.1880   -6.7020   17.3890 C.3   198  SER198      0.1889
    109  C         13.6630   -5.4590   18.0580 C.2   198  SER198      0.2288
    110  O         13.8560   -5.3030   19.2670 O.2   198  SER198     -0.2866
    111  CB        13.1940   -7.8440   17.6270 C.3   198  SER198      0.2089
    112  OG        13.1800   -8.7470   16.5400 O.3   198  SER198     -0.2183
    113  N         14.3330   -3.0070   13.3400 N.3   218  VAL218     -0.1231
    114  CA        14.6660   -4.4390   13.2900 C.3   218  VAL218      0.1692
    115  C         13.3790   -5.2470   13.4580 C.2   218  VAL218      0.2593
    116  O         12.7030   -5.0950   14.4780 O.2   218  VAL218     -0.2718
    117  CB        15.7200   -4.8350   14.3430 C.3   218  VAL218      0.0266
    118  CG1       16.0460   -6.3310   14.2210 C.3   218  VAL218      0.0020
    119  CG2       16.9830   -3.9920   14.1700 C.3   218  VAL218      0.0020
    120  N         13.0150   -6.0510   12.4420 N.am  219  SER219     -0.1938
    121  CA        11.7300   -6.7690   12.5050 C.3   219  SER219      0.2055
    122  C         11.8760   -8.2950   12.6430 C.2   219  SER219      0.2643
    123  O         11.4640   -8.8450   13.6710 O.2   219  SER219     -0.2714
    124  CB        10.8390   -6.3780   11.3160 C.3   219  SER219      0.2130
    125  OG         9.5590   -6.9740   11.3880 O.3   219  SER219     -0.2179
    126  N         12.4100   -8.9870   11.6270 N.am  220  TRP220     -0.1959
    127  CA        12.5710  -10.4440   11.6870 C.3   220  TRP220      0.1771
    128  C         13.5960  -10.9320   10.6670 C.2   220  TRP220      0.2620
    129  O         14.0070  -10.1830    9.7850 O.2   220  TRP220     -0.2715
    130  CB        11.2100  -11.1710   11.4780 C.3   220  TRP220      0.0590
    131  CG        10.5820  -10.8900   10.1500 C.ar  220  TRP220      0.0006
    132  CD1        9.7700   -9.8400    9.8270 C.ar  220  TRP220      0.0946
    133  CD2       10.7250  -11.6680    8.9580 C.ar  220  TRP220      0.0152
    134  NE1        9.3930   -9.9220    8.5090 N.ar  220  TRP220     -0.2442
    135  CE2        9.9670  -11.0320    7.9490 C.ar  220  TRP220      0.0810
    136  CE3       11.4350  -12.8360    8.6370 C.ar  220  TRP220      0.0012
    137  CZ2        9.9080  -11.5190    6.6400 C.ar  220  TRP220      0.0191
    138  CZ3       11.3380  -13.3440    7.3530 C.ar  220  TRP220      0.0001
    139  CH2       10.6040  -12.6750    6.3620 C.ar  220  TRP220      0.0015
    140  N         14.0110  -12.1730   10.8340 N.am  221  GLY221     -0.1940
    141  CA        14.9320  -12.8680    9.9410 C.3   221  GLY221      0.2014
    142  C         14.7840  -14.3570   10.1470 C.2   221  GLY221      0.2639
    143  O         14.3210  -14.7910   11.2010 O.2   221  GLY221     -0.2714
    144  N         15.1190  -15.1550    9.1370 N.am  222  GLU222     -0.1963
    145  CA        15.0130  -16.5940    9.2920 C.3   222  GLU222      0.1733
    146  C         16.3310  -17.0380    9.9050 C.2   222  GLU222      0.2617
    147  O         17.3250  -17.2340    9.2130 O.2   222  GLU222     -0.2715
    148  CB        14.6240  -17.2630    7.9710 C.3   222  GLU222      0.0429
    149  CG        13.2380  -16.7910    7.5540 C.3   222  GLU222      0.1163
    150  CD        12.7540  -17.2140    6.1810 C.2   222  GLU222      0.3649
    151  OE1       13.4700  -16.9630    5.1890 O.co2 222  GLU222     -0.2457
    152  OE2       11.6200  -17.7320    6.0920 O.co2 222  GLU222     -0.2457
    153  N         16.3210  -17.0800   11.2300 N.am  223  GLY223     -0.1940
    154  CA        17.4880  -17.3480   12.0520 C.3   223  GLY223      0.2014
    155  C         18.2590  -16.0480   12.1760 C.2   223  GLY223      0.2639
    156  O         17.6410  -14.9780   12.2230 O.2   223  GLY223     -0.2714
    157  N         19.6100  -16.1220   12.2260 N.am  224  CYS224     -0.1967
    158  CA        20.4850  -14.9420   12.2760 C.3   224  CYS224      0.1712
    159  C         21.7240  -15.1870   11.4570 C.2   224  CYS224      0.2296
    160  O         22.3980  -16.1840   11.6810 O.2   224  CYS224     -0.2864
    161  CB        20.8720  -14.5680   13.7050 C.3   224  CYS224      0.0983
    162  SG        19.5190  -14.5870   14.8900 S.3   224  CYS224     -0.0798
    163  N         22.3950  -16.0910    8.4940 N.3   226  ARG226     -0.1245
    164  CA        22.4790  -17.3070    7.6830 C.3   226  ARG226      0.1563
    165  C         22.7960  -16.9010    6.2560 C.2   226  ARG226      0.2260
    166  O         22.2490  -15.8970    5.7740 O.2   226  ARG226     -0.2867
    167  CB        21.1580  -18.1060    7.7060 C.3   226  ARG226      0.0307
    168  CG        20.8610  -18.8470    8.9950 C.3   226  ARG226      0.0489
    169  CD        19.6940  -19.8010    8.7740 C.3   226  ARG226      0.2205
    170  NE        18.9830  -20.1130   10.0140 N.pl3 226  ARG226     -0.0865
    171  CZ        17.7310  -20.5550   10.0750 C.cat 226  ARG226      0.5346
    172  NH1       17.0260  -20.7340    8.9610 N.pl3 226  ARG226      0.1354
    173  NH2       17.1650  -20.8030   11.2480 N.pl3 226  ARG226      0.1354
    174  N         18.0990   -9.7990    6.7580 N.3   231  GLY231     -0.1210
    175  CA        17.3090   -9.2490    7.8460 C.3   231  GLY231      0.1956
    176  C         16.2150   -8.3860    7.2540 C.2   231  GLY231      0.2612
    177  O         16.4520   -7.6830    6.2600 O.2   231  GLY231     -0.2717
    178  N         14.9940   -8.4580    7.8370 N.am  232  PHE232     -0.1962
    179  CA        13.8390   -7.6830    7.3880 C.3   232  PHE232      0.1771
    180  C         13.5510   -6.5910    8.3910 C.2   232  PHE232      0.2619
    181  O         13.5570   -6.8330    9.6070 O.2   232  PHE232     -0.2715
    182  CB        12.6190   -8.5880    7.1300 C.3   232  PHE232      0.0574
    183  CG        12.7830   -9.3770    5.8520 C.ar  232  PHE232     -0.0200
    184  CD1       13.5040  -10.5710    5.8360 C.ar  232  PHE232     -0.0042
    185  CD2       12.3280   -8.8690    4.6410 C.ar  232  PHE232     -0.0042
    186  CE1       13.7120  -11.2730    4.6320 C.ar  232  PHE232     -0.0003
    187  CE2       12.5100   -9.5870    3.4450 C.ar  232  PHE232     -0.0003
    188  CZ        13.2120  -10.7720    3.4460 C.ar  232  PHE232     -0.0000
    189  N         13.3300   -5.3810    7.8620 N.am  233  TYR233     -0.1974
    190  CA        13.1280   -4.1740    8.6250 C.3   233  TYR233      0.1639
    191  C         11.8320   -3.4750    8.2620 C.2   233  TYR233      0.2290
    192  O         11.4930   -3.3590    7.0920 O.2   233  TYR233     -0.2864
    193  CB        14.3120   -3.2060    8.4070 C.3   233  TYR233      0.0560
    194  CG        15.6510   -3.8030    8.7840 C.ar  233  TYR233     -0.0198
    195  CD1       16.3300   -4.6570    7.9120 C.ar  233  TYR233     -0.0009
    196  CD2       16.2400   -3.5200   10.0080 C.ar  233  TYR233     -0.0009
    197  CE1       17.5030   -5.3020    8.3040 C.ar  233  TYR233      0.0417
    198  CE2       17.4470   -4.1170   10.3850 C.ar  233  TYR233      0.0417
    199  CZ        18.0810   -4.9940    9.5220 C.ar  233  TYR233      0.1957
    200  OH        19.2910   -5.5610    9.8830 O.3   233  TYR233     -0.2866
@<TRIPOS>BOND
     1    74    73    2
     2    73    72    1
     3    71    72    1
     4    72    75    1
     5   187   188   ar
     6   187   185   ar
     7   188   186   ar
     8    54    52   ar
     9    75    77    1
    10    75    76    1
    11   186   184   ar
    12   185   183   ar
    13    62    60   am
    14    52    53   ar
    15    52    51    1
    16   151   150   ar
    17    76    78    1
    18   166   165    2
    19   184   183   ar
    20   183   182    1
    21    60    59    1
    22    60    61    2
    23   152   150   ar
    24    51    50    2
    25   150   149    1
    26   165   164    1
    27   177   176    2
    28   139   137   ar
    29   139   138   ar
    30    59    56    1
    31   137   135   ar
    32   174   175    1
    33   192   191    2
    34   182   179    1
    35   176   178   am
    36   176   175    1
    37   138   136   ar
    38   179   178    1
    39   179   180    1
    40    50    47    1
    41   149   148    1
    42   164   167    1
    43   164   163    1
    44   167   168    1
    45   189   180   am
    46   189   190    1
    47   195   197   ar
    48   195   194   ar
    49   135   134   ar
    50   135   133   ar
    51   148   145    1
    52    56    55    1
    53    56    57    1
    54   191   190    1
    55   197   199   ar
    56    55    48   am
    57   180   181    2
    58   193   190    1
    59   193   194    1
    60    58    57    2
    61   134   132   ar
    62    49    48    2
    63    48    47    1
    64   136   133   ar
    65    47    46    1
    66   169   168    1
    67   169   170    1
    68   194   196   ar
    69    57    63   am
    70   133   131   ar
    71   172   171    1
    72   144   145    1
    73   144   142   am
    74   147   146    2
    75   145   146    1
    76   199   200    1
    77   199   198   ar
    78   129   128    2
    79   132   131   ar
    80    65    66    2
    81    65    64    1
    82   146   153   am
    83    63    64    1
    84   141   142    1
    85   141   140    1
    86   196   198   ar
    87   170   171    2
    88   171   173    1
    89   142   143    2
    90   131   130    1
    91    86    84   ar
    92    85    84   ar
    93    84    83    1
    94   128   140   am
    95   128   127    1
    96    83    80    1
    97    64    67    1
    98    79    80    1
    99    80    81    1
   100   153   154    1
   101   124   125    1
   102   124   121    1
   103    67    68    1
   104   159   160    2
   105   159   158    1
   106   130   127    1
   107   126   127    1
   108   126   122   am
   109   154   155    1
   110   155   156    2
   111   155   157   am
   112   157   158    1
   113   158   161    1
   114    68    69    1
   115    68    70    1
   116   120   121    1
   117   120   115   am
   118    81    87   am
   119    81    82    2
   120   121   122    1
   121    87    88    1
   122   122   123    2
   123   114   113    1
   124   114   115    1
   125   114   117    1
   126   115   116    2
   127    90    89    2
   128   161   162    1
   129    91    88    1
   130    88    89    1
   131   119   117    1
   132   118   117    1
   133    89    92   am
   134   162    97    1
   135    22    21    1
   136    92    93    1
   137     7     9   ar
   138     7     6   ar
   139    19    21   ar
   140    19    17   ar
   141    93    96    1
   142    93    94    1
   143    21    20   ar
   144     9    10   ar
   145   112   111    1
   146    96    97    1
   147     6     5    1
   148     6     8   ar
   149     5     2    1
   150    17    16   ar
   151    94    95    2
   152    94    98   am
   153    10     8   ar
   154   108   111    1
   155   108   107    1
   156   108   109    1
   157     1     2    1
   158    20    18   ar
   159    98    99    1
   160     2     3    1
   161   109   110    2
   162    16    18   ar
   163    16    15    1
   164    99   102    1
   165    99   100    1
   166    31    32   ar
   167    31    29   ar
   168     3     4    2
   169    34    32   ar
   170    34    36   ar
   171    15    12    1
   172   102   103    1
   173    12    13    1
   174    12    11    1
   175    32    30   ar
   176    29    28   ar
   177   100   101    2
   178   103   104    1
   179    13    14    2
   180    36    35   ar
   181    23    24    1
   182    30    28   ar
   183    30    33   ar
   184    28    27    1
   185    35    33   ar
   186   104   106   ar
   187   104   105   ar
   188    27    24    1
   189    24    25    1
   190    40    39    2
   191    45    44    1
   192    43    42    1
   193    43    44    1
   194    25    26    2
   195    41    42    1
   196    41    38    1
   197    37    38    1
   198    39    38    1
