@<TRIPOS>MOLECULE
tmp/4lp0A00.pdb
 121 110 0 0 0
SMALL
GASTEIGER

@<TRIPOS>ATOM
      1  N         22.0830   28.5140   -2.4580 N.3    32  ILE32      -0.1245
      2  CA        21.6050   29.5970   -1.5590 C.3    32  ILE32       0.1561
      3  C         20.3540   30.2560   -2.1360 C.2    32  ILE32       0.2260
      4  O         19.3830   30.5140   -1.4160 O.2    32  ILE32      -0.2867
      5  CB        22.7250   30.6350   -1.3040 C.3    32  ILE32       0.0252
      6  CG1       23.9530   29.9880   -0.6590 C.3    32  ILE32       0.0019
      7  CG2       22.2260   31.7320   -0.3680 C.3    32  ILE32       0.0019
      8  CD1       23.6900   29.2190    0.6060 C.3    32  ILE32       0.0001
      9  N         17.2650   28.1200   -1.4450 N.3    35  ASN35      -0.1225
     10  CA        16.7330   28.2830   -0.0820 C.3    35  ASN35       0.1785
     11  C         15.8430   29.5330    0.0240 C.2    35  ASN35       0.2597
     12  O         14.8020   29.4870    0.6960 O.2    35  ASN35      -0.2718
     13  CB        17.8560   28.3930    0.9600 C.3    35  ASN35       0.1169
     14  CG        18.5760   27.0630    1.1470 C.2    35  ASN35       0.2627
     15  OD1       18.0700   26.0360    0.7330 O.2    35  ASN35      -0.2716
     16  ND2       19.7970   27.1010    1.6520 N.am   35  ASN35      -0.0877
     17  N         16.2250   30.6380   -0.6350 N.am   36  ALA36      -0.1979
     18  CA        15.3970   31.8400   -0.6340 C.3    36  ALA36       0.1597
     19  C         14.0640   31.6080   -1.4520 C.2    36  ALA36       0.2287
     20  O         12.9940   32.0550   -1.0830 O.2    36  ALA36      -0.2864
     21  CB        16.1970   32.9950   -1.1890 C.3    36  ALA36       0.0319
     22  N         11.5780   29.5270    0.4840 N.3    39  GLU39      -0.1245
     23  CA        10.8590   30.3450    1.4420 C.3    39  GLU39       0.1567
     24  C          9.7550   31.1940    0.7430 C.2    39  GLU39       0.2260
     25  O          8.6180   31.3040    1.2640 O.2    39  GLU39      -0.2867
     26  CB        11.8900   31.2370    2.1600 C.3    39  GLU39       0.0388
     27  CG        11.3540   32.1080    3.2780 C.3    39  GLU39       0.1160
     28  CD        10.8110   31.3620    4.4720 C.2    39  GLU39       0.3649
     29  OE1       10.7990   30.0970    4.5000 O.co2  39  GLU39      -0.2457
     30  OE2       10.4190   32.0980    5.4360 O.co2  39  GLU39      -0.2457
     31  N         23.0390   36.8250   -1.1570 N.3    60  VAL60      -0.1245
     32  CA        21.6650   36.5610   -1.5020 C.3    60  VAL60       0.1561
     33  C         20.8640   37.0150   -0.2780 C.2    60  VAL60       0.2260
     34  O         21.1520   36.5710    0.8530 O.2    60  VAL60      -0.2867
     35  CB        21.3600   35.0540   -1.7460 C.3    60  VAL60       0.0252
     36  CG1       19.9160   34.8250   -2.1380 C.3    60  VAL60       0.0019
     37  CG2       22.2620   34.4330   -2.8070 C.3    60  VAL60       0.0019
     38  N         16.8470   37.5160    1.1990 N.3    62  ASP62      -0.1239
     39  CA        15.4420   37.3770    1.0900 C.3    62  ASP62       0.1674
     40  C         14.6990   38.1940    2.1840 C.2    62  ASP62       0.2266
     41  O         15.3200   38.7050    3.1130 O.2    62  ASP62      -0.2867
     42  CB        15.0400   35.8590    1.0210 C.3    62  ASP62       0.1410
     43  CG        15.0040   35.1630    2.3640 C.2    62  ASP62       0.3668
     44  OD1       14.6070   35.7690    3.4090 O.co2  62  ASP62      -0.2456
     45  OD2       15.4030   33.9590    2.4070 O.co2  62  ASP62      -0.2456
     46  N         10.7530   34.7280    6.5160 N.3    65  ARG65      -0.1231
     47  CA        10.5710   34.7260    7.9830 C.3    65  ARG65       0.1694
     48  C         11.8770   34.9840    8.7900 C.2    65  ARG65       0.2593
     49  O         11.8230   35.3590    9.9630 O.2    65  ARG65      -0.2718
     50  CB        10.0230   33.3550    8.4390 C.3    65  ARG65       0.0321
     51  CG         8.6090   33.1040    7.9530 C.3    65  ARG65       0.0489
     52  CD         8.1890   31.6480    8.2130 C.3    65  ARG65       0.2205
     53  NE         8.8310   30.7440    7.2770 N.pl3  65  ARG65      -0.0865
     54  CZ         8.5470   29.4600    7.1930 C.cat  65  ARG65       0.5346
     55  NH1        7.6270   28.9320    8.0240 N.pl3  65  ARG65       0.1354
     56  NH2        9.1270   28.7170    6.2850 N.pl3  65  ARG65       0.1354
     57  N         13.0190   34.7930    8.1530 N.am   66  GLY66      -0.1942
     58  CA        14.2860   34.7120    8.8530 C.3    66  GLY66       0.2014
     59  C         14.4860   33.2840    9.3200 C.2    66  GLY66       0.2639
     60  O         13.5480   32.6800    9.8700 O.2    66  GLY66      -0.2714
     61  N         15.6890   32.7480    9.1350 N.am   67  MET67      -0.1963
     62  CA        16.0070   31.4740    9.7780 C.3    67  MET67       0.1722
     63  C         15.7510   31.5400   11.3040 C.2    67  MET67       0.2458
     64  O         15.8490   32.6480   11.8990 O.2    67  MET67      -0.2730
     65  CB        17.4200   31.0620    9.5290 C.3    67  MET67       0.0427
     66  CG        17.8150   30.8470    8.0950 C.3    67  MET67       0.0599
     67  SD        19.5270   30.1840    8.1100 S.3    67  MET67      -0.1393
     68  CE        19.5000   29.3120    6.5250 C.3    67  MET67       0.0692
     69  N         15.4390   30.3940   11.9440 N.am   68  PRO68      -0.2727
     70  CA        15.1800   30.4580   13.3940 C.3    68  PRO68       0.1402
     71  C         16.4190   30.9120   14.1470 C.2    68  PRO68       0.2269
     72  O         17.5320   30.5970   13.7590 O.2    68  PRO68      -0.2865
     73  CB        14.7870   29.0060   13.7810 C.3    68  PRO68       0.0296
     74  CG        14.3780   28.3640   12.4610 C.3    68  PRO68       0.0237
     75  CD        15.2350   29.0210   11.3920 C.3    68  PRO68       0.0939
     76  N         20.5580   27.1470   16.3310 N.3    78  THR78      -0.1218
     77  CA        19.9790   26.3850   15.1940 C.3    78  THR78       0.1862
     78  C         20.7180   26.6880   13.8540 C.2    78  THR78       0.2287
     79  O         20.9770   25.7950   13.0590 O.2    78  THR78      -0.2866
     80  CB        18.4720   26.6790   15.0700 C.3    78  THR78       0.1770
     81  OG1       17.8190   26.3320   16.2650 O.3    78  THR78      -0.2211
     82  CG2       17.8750   25.8550   13.9790 C.3    78  THR78       0.0375
     83  N         22.4910   24.2660   11.0440 N.3    82  ILE82      -0.1245
     84  CA        22.1560   24.2650    9.6550 C.3    82  ILE82       0.1561
     85  C         23.4330   24.4320    8.8200 C.2    82  ILE82       0.2260
     86  O         23.6090   23.7640    7.7870 O.2    82  ILE82      -0.2867
     87  CB        21.1830   25.4470    9.2970 C.3    82  ILE82       0.0252
     88  CG1       19.8030   25.2500    9.9100 C.3    82  ILE82       0.0019
     89  CG2       20.9560   25.5940    7.7940 C.3    82  ILE82       0.0019
     90  CD1       19.0080   26.5400    9.9370 C.3    82  ILE82       0.0001
     91  N         23.0580   24.8510    2.5670 N.3    90  SER90      -0.1217
     92  CA        23.7300   25.8680    3.4100 C.3    90  SER90       0.1889
     93  C         25.0890   25.3290    3.9040 C.2    90  SER90       0.2288
     94  O         26.0750   26.0120    3.8490 O.2    90  SER90      -0.2866
     95  CB        22.8300   26.2170    4.6250 C.3    90  SER90       0.2089
     96  OG        21.5790   26.8430    4.1770 O.3    90  SER90      -0.2183
     97  N         14.4940   39.4230   12.4270 N.3   106  ARG106     -0.1245
     98  CA        13.1220   39.0830   12.8530 C.3   106  ARG106      0.1563
     99  C         12.9030   39.4830   14.2970 C.2   106  ARG106      0.2260
    100  O         13.8820   39.6550   15.0740 O.2   106  ARG106     -0.2867
    101  CB        12.8220   37.5990   12.7100 C.3   106  ARG106      0.0307
    102  CG        13.9050   36.6900   13.2590 C.3   106  ARG106      0.0489
    103  CD        13.6260   35.2190   12.8950 C.3   106  ARG106      0.2205
    104  NE        12.4270   34.7690   13.6030 N.pl3 106  ARG106     -0.0865
    105  CZ        11.7840   33.6180   13.3350 C.cat 106  ARG106      0.5346
    106  NH1       12.1610   32.8140   12.3520 N.pl3 106  ARG106      0.1354
    107  NH2       10.6910   33.2980   14.0660 N.pl3 106  ARG106      0.1354
    108  N         16.4860   36.7790    5.6770 N.3   138  THR138     -0.1218
    109  CA        17.7900   36.1530    5.8110 C.3   138  THR138      0.1862
    110  C         18.6870   36.7110    4.7140 C.2   138  THR138      0.2287
    111  O         18.2910   36.7320    3.5270 O.2   138  THR138     -0.2866
    112  CB        17.6900   34.6080    5.7400 C.3   138  THR138      0.1770
    113  OG1       16.7080   34.1770    6.7280 O.3   138  THR138     -0.2211
    114  CG2       19.0200   33.9360    5.9410 C.3   138  THR138      0.0375
    115  N         22.6710   35.9290    3.2320 N.3   140  VAL140     -0.1245
    116  CA        23.8480   35.0870    3.2640 C.3   140  VAL140      0.1561
    117  C         24.8490   35.6550    2.3160 C.2   140  VAL140      0.2260
    118  O         24.5550   35.9020    1.1110 O.2   140  VAL140     -0.2867
    119  CB        23.5200   33.6020    2.9310 C.3   140  VAL140      0.0252
    120  CG1       24.7440   32.7730    2.8970 C.3   140  VAL140      0.0019
    121  CG2       22.5010   33.0410    3.9370 C.3   140  VAL140      0.0019
@<TRIPOS>BOND
     1    37    35    1
     2     1     2    1
     3    36    35    1
     4     3     2    1
     5     3     4    2
     6    35    32    1
     7     2     5    1
     8    32    31    1
     9    32    33    1
    10    19    20    2
    11    19    18    1
    12     9    10    1
    13     5     6    1
    14     5     7    1
    15    21    18    1
    16     6     8    1
    17    17    18    1
    18    17    11   am
    19    33    34    2
    20    10    11    1
    21    10    13    1
    22    11    12    2
    23    22    23    1
    24    15    14    2
    25    24    25    2
    26    24    23    1
    27    13    14    1
    28    42    39    1
    29    42    43    1
    30    39    38    1
    31    39    40    1
    32   118   117    2
    33    14    16   am
    34    23    26    1
    35    26    27    1
    36    40    41    2
    37   117   116    1
    38    43    45   ar
    39    43    44   ar
    40    91    92    1
    41   120   119    1
    42   119   116    1
    43   119   121    1
    44   115   116    1
    45    27    28    1
    46    92    93    1
    47    92    95    1
    48   111   110    2
    49    94    93    2
    50    96    95    1
    51    28    29   ar
    52    28    30   ar
    53   110   109    1
    54   108   109    1
    55   112   109    1
    56   112   114    1
    57   112   113    1
    58    56    54    1
    59    46    47    1
    60    68    67    1
    61    54    53    2
    62    54    55    1
    63    53    52    1
    64    86    85    2
    65    89    87    1
    66    51    52    1
    67    51    50    1
    68    47    50    1
    69    47    48    1
    70    66    67    1
    71    66    65    1
    72    57    48   am
    73    57    58    1
    74    48    49    2
    75    85    84    1
    76    58    59    1
    77    61    59   am
    78    61    62    1
    79    87    84    1
    80    87    88    1
    81    59    60    2
    82    65    62    1
    83    84    83    1
    84    62    63    1
    85    88    90    1
    86    63    64    2
    87    63    69   am
    88    75    69    1
    89    75    74    1
    90    69    70    1
    91   106   105    1
    92    97    98    1
    93    74    73    1
    94   101    98    1
    95   101   102    1
    96    98    99    1
    97   103   102    1
    98   103   104    1
    99    79    78    2
   100   105   104    2
   101   105   107    1
   102    70    73    1
   103    70    71    1
   104    72    71    2
   105    78    77    1
   106    82    80    1
   107    99   100    2
   108    80    77    1
   109    80    81    1
   110    77    76    1
