@<TRIPOS>MOLECULE
tmp/4lp6B00.pdb
 127 125 0 0 0
SMALL
GASTEIGER

@<TRIPOS>ATOM
      1  N         -6.5140  -14.5340   64.3940 N.3     1  HIS1       -0.1226
      2  CA        -6.0750  -13.4200   63.5270 C.3     1  HIS1        0.1752
      3  C         -6.7420  -13.5130   62.1520 C.2     1  HIS1        0.2596
      4  O         -6.6280  -14.5370   61.4690 O.2     1  HIS1       -0.2718
      5  CB        -4.5460  -13.4380   63.3650 C.3     1  HIS1        0.0759
      6  CG        -3.9820  -12.1330   62.8910 C.ar    1  HIS1        0.0818
      7  ND1       -4.7000  -10.9640   62.9620 N.ar    1  HIS1       -0.2268
      8  CD2       -2.7740  -11.8000   62.3610 C.ar    1  HIS1        0.1154
      9  CE1       -3.9760   -9.9750   62.4770 C.ar    1  HIS1        0.1986
     10  NE2       -2.8040  -10.4490   62.0970 N.ar    1  HIS1       -0.2212
     11  N         -7.4230  -12.4420   61.7410 N.am    2  TRP2       -0.1976
     12  CA        -8.0630  -12.3940   60.4100 C.3     2  TRP2        0.1640
     13  C         -7.0350  -12.5030   59.3310 C.2     2  TRP2        0.2290
     14  O         -5.8950  -12.1980   59.5430 O.2     2  TRP2       -0.2864
     15  CB        -8.8510  -11.1100   60.2390 C.3     2  TRP2        0.0576
     16  CG        -8.0100   -9.8990   60.1810 C.ar    2  TRP2        0.0006
     17  CD1       -7.6370   -9.1400   61.2180 C.ar    2  TRP2        0.0946
     18  CD2       -7.4780   -9.2680   59.0040 C.ar    2  TRP2        0.0152
     19  NE1       -6.9020   -8.0550   60.7840 N.ar    2  TRP2       -0.2442
     20  CE2       -6.7830   -8.1190   59.4270 C.ar    2  TRP2        0.0810
     21  CE3       -7.5550   -9.5420   57.6460 C.ar    2  TRP2        0.0012
     22  CZ2       -6.1240   -7.2630   58.5430 C.ar    2  TRP2        0.0191
     23  CZ3       -6.9430   -8.6810   56.7580 C.ar    2  TRP2        0.0001
     24  CH2       -6.2170   -7.5590   57.2040 C.ar    2  TRP2        0.0015
     25  N        -15.8810  -11.5130   64.1250 N.3    16  ASP16      -0.1225
     26  CA       -15.2180  -10.5380   64.9860 C.3    16  ASP16       0.1805
     27  C        -15.5460   -9.0850   64.6410 C.2    16  ASP16       0.2597
     28  O        -15.3660   -8.2020   65.4880 O.2    16  ASP16      -0.2718
     29  CB       -13.6990  -10.7360   64.9410 C.3    16  ASP16       0.1424
     30  CG       -13.2680  -12.0290   65.6100 C.2    16  ASP16       0.3668
     31  OD1      -13.8700  -12.3640   66.6500 O.co2  16  ASP16      -0.2456
     32  OD2      -12.3520  -12.7240   65.1070 O.co2  16  ASP16      -0.2456
     33  N        -15.9970   -8.8420   63.4040 N.am   17  PHE17      -0.1976
     34  CA       -16.2300   -7.4890   62.8850 C.3    17  PHE17       0.1639
     35  C        -17.6320   -7.3980   62.2660 C.2    17  PHE17       0.2290
     36  O        -17.7980   -7.4880   61.0370 O.2    17  PHE17      -0.2864
     37  CB       -15.1390   -7.1240   61.8460 C.3    17  PHE17       0.0560
     38  CG       -13.7450   -7.2820   62.3660 C.ar   17  PHE17      -0.0200
     39  CD1      -13.1460   -6.2760   63.0750 C.ar   17  PHE17      -0.0042
     40  CD2      -13.0320   -8.4470   62.1270 C.ar   17  PHE17      -0.0042
     41  CE1      -11.8750   -6.4360   63.5730 C.ar   17  PHE17      -0.0003
     42  CE2      -11.7460   -8.6080   62.5870 C.ar   17  PHE17      -0.0003
     43  CZ       -11.1720   -7.6050   63.3440 C.ar   17  PHE17      -0.0000
     44  N          3.1260   -6.3860   56.7580 N.3    59  ASN59      -0.1240
     45  CA         2.3970   -6.4660   57.9720 C.3    59  ASN59       0.1653
     46  C          1.6320   -7.7860   58.0500 C.2    59  ASN59       0.2266
     47  O          0.7290   -7.9130   58.8690 O.2    59  ASN59      -0.2867
     48  CB         1.4310   -5.2870   58.0720 C.3    59  ASN59       0.1155
     49  CG         0.4320   -5.2610   56.9300 C.2    59  ASN59       0.2627
     50  OD1        0.2420   -6.2550   56.2280 O.2    59  ASN59      -0.2716
     51  ND2       -0.1910   -4.1030   56.7210 N.am   59  ASN59      -0.0877
     52  N         -0.3920   -8.9510   55.7680 N.3    61  HIS61      -0.1241
     53  CA        -1.6040   -8.8730   54.9650 C.3    61  HIS61       0.1621
     54  C         -1.3040   -8.2810   53.5780 C.2    61  HIS61       0.2264
     55  O         -1.8180   -8.7140   52.5540 O.2    61  HIS61      -0.2867
     56  CB        -2.6620   -8.0380   55.7140 C.3    61  HIS61       0.0745
     57  CG        -2.9190   -8.4890   57.1260 C.ar   61  HIS61       0.0817
     58  ND1       -3.6410   -9.6190   57.4280 N.ar   61  HIS61      -0.2268
     59  CD2       -2.5770   -7.9460   58.3110 C.ar   61  HIS61       0.1154
     60  CE1       -3.7290   -9.7590   58.7350 C.ar   61  HIS61       0.1986
     61  NE2       -3.0590   -8.7780   59.2940 N.ar   61  HIS61      -0.2212
     62  N          3.1260   -2.1020   52.9510 N.3    64  ASN64      -0.1240
     63  CA         2.8070   -0.6630   52.9410 C.3    64  ASN64       0.1653
     64  C          4.0460    0.1860   52.7560 C.2    64  ASN64       0.2266
     65  O          5.0380   -0.0340   53.4250 O.2    64  ASN64      -0.2867
     66  CB         2.1790   -0.2570   54.3020 C.3    64  ASN64       0.1155
     67  CG         0.7600   -0.7890   54.4930 C.2    64  ASN64       0.2627
     68  OD1        0.1380   -1.3540   53.6040 O.2    64  ASN64      -0.2716
     69  ND2        0.2380   -0.5760   55.6630 N.am   64  ASN64      -0.0877
     70  N         -4.3470   10.9920   61.7090 N.3   127  PHE127     -0.1241
     71  CA        -4.9470    9.8300   61.1100 C.3   127  PHE127      0.1605
     72  C         -5.8950    9.1410   62.0970 C.2   127  PHE127      0.2264
     73  O         -7.0490    8.7710   61.7620 O.2   127  PHE127     -0.2867
     74  CB        -3.8540    8.8620   60.6580 C.3   127  PHE127      0.0534
     75  CG        -4.3840    7.6050   60.0510 C.ar  127  PHE127     -0.0203
     76  CD1       -4.8170    7.5930   58.7610 C.ar  127  PHE127     -0.0042
     77  CD2       -4.4620    6.4410   60.7910 C.ar  127  PHE127     -0.0042
     78  CE1       -5.3280    6.4330   58.1930 C.ar  127  PHE127     -0.0003
     79  CE2       -4.9630    5.2700   60.2350 C.ar  127  PHE127     -0.0003
     80  CZ        -5.4060    5.2800   58.9260 C.ar  127  PHE127     -0.0000
     81  N         -9.9430    8.3730   61.1710 N.3   131  VAL131     -0.1231
     82  CA       -10.6080    7.1030   60.8340 C.3   131  VAL131      0.1692
     83  C        -11.8940    6.9060   61.6100 C.2   131  VAL131      0.2591
     84  O        -12.7200    6.0900   61.2390 O.2   131  VAL131     -0.2718
     85  CB        -9.7260    5.8590   61.0250 C.3   131  VAL131      0.0266
     86  CG1       -8.5390    5.9120   60.1050 C.3   131  VAL131      0.0020
     87  CG2       -9.2700    5.7040   62.4780 C.3   131  VAL131      0.0020
     88  N        -12.0970    7.6700   62.6710 N.am  132  GLN132     -0.1979
     89  CA       -13.3420    7.5750   63.4130 C.3   132  GLN132      0.1601
     90  C        -14.4810    8.3620   62.7800 C.2   132  GLN132      0.2287
     91  O        -15.6140    8.2410   63.2240 O.2   132  GLN132     -0.2864
     92  CB       -13.1010    7.9870   64.8530 C.3   132  GLN132      0.0394
     93  CG       -12.2020    6.9970   65.5900 C.3   132  GLN132      0.0908
     94  CD       -11.5660    7.6250   66.8180 C.2   132  GLN132      0.2608
     95  OE1      -12.1440    8.5420   67.4270 O.2   132  GLN132     -0.2717
     96  NE2      -10.3720    7.1490   67.1890 N.am  132  GLN132     -0.0878
     97  N          6.3030  -11.5650   57.3590 N.3   166  LYS166     -0.1245
     98  CA         5.6030  -10.6970   58.2940 C.3   166  LYS166      0.1561
     99  C          6.5290  -10.1060   59.3200 C.2   166  LYS166      0.2260
    100  O          7.3610  -10.8210   59.8790 O.2   166  LYS166     -0.2867
    101  CB         4.5060  -11.4710   59.0460 C.3   166  LYS166      0.0271
    102  CG         3.6300  -10.6100   59.9100 C.3   166  LYS166      0.0035
    103  CD         2.6200  -11.4370   60.7150 C.3   166  LYS166      0.0206
    104  CE         1.7430  -10.4930   61.5340 C.3   166  LYS166      0.1093
    105  NZ         0.6690  -11.1950   62.2610 N.3   166  LYS166     -0.1314
    106  N        -10.3240   -5.5160   57.9760 N.3   197  PRO197     -0.2103
    107  CA       -10.5380   -5.1950   59.3590 C.3   197  PRO197      0.1489
    108  C         -9.6050   -4.1230   59.8530 C.2   197  PRO197      0.2417
    109  O         -8.4180   -4.1540   59.5340 O.2   197  PRO197     -0.2734
    110  CB       -10.2930   -6.5240   60.0560 C.3   197  PRO197      0.0282
    111  CG       -10.7560   -7.5530   59.0610 C.3   197  PRO197      0.0208
    112  CD       -10.1940   -6.9860   57.7820 C.3   197  PRO197      0.0893
    113  N        -10.1410   -3.1300   60.6010 N.am  198  PRO198     -0.2729
    114  CA       -11.4890   -3.1840   61.1510 C.3   198  PRO198      0.1401
    115  C        -12.6700   -2.6700   60.3180 C.2   198  PRO198      0.2269
    116  O        -13.7540   -2.5250   60.8740 O.2   198  PRO198     -0.2865
    117  CB       -11.3390   -2.3800   62.4360 C.3   198  PRO198      0.0296
    118  CG       -10.3430   -1.3270   62.0800 C.3   198  PRO198      0.0237
    119  CD        -9.4040   -1.9490   61.0870 C.3   198  PRO198      0.0939
    120  N        -13.8190    0.0190   58.9290 N.3   200  LEU200     -0.1245
    121  CA       -14.5200    1.2150   59.3500 C.3   200  LEU200      0.1561
    122  C        -15.0830    1.9100   58.1260 C.2   200  LEU200      0.2260
    123  O        -14.4690    1.8740   57.0860 O.2   200  LEU200     -0.2867
    124  CB       -13.5750    2.1540   60.0880 C.3   200  LEU200      0.0270
    125  CG       -12.9700    1.5690   61.3540 C.3   200  LEU200      0.0019
    126  CD1      -11.9450    2.5210   61.9440 C.3   200  LEU200      0.0001
    127  CD2      -14.0600    1.2110   62.3810 C.3   200  LEU200      0.0001
@<TRIPOS>BOND
     1    55    54    2
     2    64    63    1
     3    64    65    2
     4    63    62    1
     5    63    66    1
     6    54    53    1
     7    68    67    2
     8    66    67    1
     9    67    69   am
    10    53    56    1
    11    53    52    1
    12    56    57    1
    13    50    49    2
    14    51    49   am
    15    44    45    1
    16    23    24   ar
    17    23    21   ar
    18    49    48    1
    19   123   122    2
    20    57    58   ar
    21    57    59   ar
    22    24    22   ar
    23    97    98    1
    24    58    60   ar
    25    21    18   ar
    26   112   106    1
    27   112   111    1
    28    45    46    1
    29    45    48    1
    30   106   107    1
    31    46    47    2
    32   122   121    1
    33    78    76   ar
    34    78    80   ar
    35    98   101    1
    36    98    99    1
    37    59    61   ar
    38    22    20   ar
    39    60    61   ar
    40    76    75   ar
    41    80    79   ar
    42   120   121    1
    43    18    20   ar
    44    18    16   ar
    45   101   102    1
    46   111   110    1
    47    99   100    2
    48    13    14    2
    49    13    12    1
    50   121   124    1
    51   107   108    1
    52   107   110    1
    53    20    19   ar
    54   109   108    2
    55   108   113   am
    56   102   103    1
    57    75    74    1
    58    75    77   ar
    59   124   125    1
    60    86    85    1
    61    16    15    1
    62    16    17   ar
    63    79    77   ar
    64    15    12    1
    65   115   116    2
    66   115   114    1
    67    12    11    1
    68   113   119    1
    69   113   114    1
    70    74    71    1
    71   103   104    1
    72    19    17   ar
    73    82    85    1
    74    82    81    1
    75    82    83    1
    76    85    87    1
    77    36    35    2
    78   119   118    1
    79    71    70    1
    80    71    72    1
    81   114   117    1
    82    84    83    2
    83   125   126    1
    84   125   127    1
    85     4     3    2
    86   104   105    1
    87    83    88   am
    88    11     3   am
    89    73    72    2
    90    37    38    1
    91    37    34    1
    92   118   117    1
    93    10     8   ar
    94    10     9   ar
    95    40    38   ar
    96    40    42   ar
    97     3     2    1
    98    35    34    1
    99     8     6   ar
   100    38    39   ar
   101     9     7   ar
   102    42    43   ar
   103    88    89    1
   104    90    91    2
   105    90    89    1
   106    34    33    1
   107     6     7   ar
   108     6     5    1
   109    39    41   ar
   110    43    41   ar
   111     5     2    1
   112    33    27   am
   113    89    92    1
   114     2     1    1
   115    25    26    1
   116    27    26    1
   117    27    28    2
   118    92    93    1
   119    29    26    1
   120    29    30    1
   121    32    30   ar
   122    93    94    1
   123    30    31   ar
   124    94    96   am
   125    94    95    2
