@<TRIPOS>MOLECULE
tmp/4lp6B01.pdb
 159 155 0 0 0
SMALL
GASTEIGER

@<TRIPOS>ATOM
      1  N          0.0830    6.4520   53.3370 N.3    89  GLN89      -0.1245
      2  CA         0.6690    5.2120   52.8200 C.3    89  GLN89       0.1566
      3  C         -0.0280    4.7290   51.5770 C.2    89  GLN89       0.2260
      4  O         -1.1560    5.1360   51.2930 O.2    89  GLN89      -0.2867
      5  CB         0.6100    4.0930   53.8620 C.3    89  GLN89       0.0367
      6  CG        -0.7830    3.7480   54.3630 C.3    89  GLN89       0.0905
      7  CD        -1.3770    2.4690   53.7950 C.2    89  GLN89       0.2608
      8  OE1       -0.9840    1.9770   52.7090 O.2    89  GLN89      -0.2717
      9  NE2       -2.3290    1.9040   54.5150 N.am   89  GLN89      -0.0878
     10  N         -0.4240    0.7470   49.2780 N.3    91  HIS91      -0.1241
     11  CA        -0.3020   -0.6670   49.3030 C.3    91  HIS91       0.1621
     12  C         -1.0980   -1.1770   48.1490 C.2    91  HIS91       0.2264
     13  O         -1.7310   -0.4100   47.4440 O.2    91  HIS91      -0.2867
     14  CB        -0.8110   -1.2410   50.6140 C.3    91  HIS91       0.0745
     15  CG        -2.2590   -1.0270   50.8160 C.ar   91  HIS91       0.0817
     16  ND1       -2.7760    0.1280   51.3970 N.ar   91  HIS91      -0.2268
     17  CD2       -3.3200   -1.7810   50.4490 C.ar   91  HIS91       0.1154
     18  CE1       -4.0880    0.0550   51.3990 C.ar   91  HIS91       0.1986
     19  NE2       -4.4460   -1.0930   50.8360 N.ar   91  HIS91      -0.2212
     20  N         -3.3020   -4.8410   46.5620 N.3    93  HIS93      -0.1241
     21  CA        -3.8990   -6.1400   46.7020 C.3    93  HIS93       0.1621
     22  C         -3.6950   -6.8240   45.3430 C.2    93  HIS93       0.2264
     23  O         -3.8000   -6.1430   44.3010 O.2    93  HIS93      -0.2867
     24  CB        -5.4100   -5.9980   46.9620 C.3    93  HIS93       0.0745
     25  CG        -5.7310   -5.1530   48.1390 C.ar   93  HIS93       0.0817
     26  ND1       -5.9760   -5.6930   49.3800 N.ar   93  HIS93      -0.2268
     27  CD2       -5.8030   -3.8130   48.2850 C.ar   93  HIS93       0.1154
     28  CE1       -6.2190   -4.7170   50.2320 C.ar   93  HIS93       0.1986
     29  NE2       -6.1640   -3.5770   49.5870 N.ar   93  HIS93      -0.2212
     30  N         -3.7900    1.1550   46.2350 N.3   116  HIS116     -0.1241
     31  CA        -4.5620    2.0110   47.1320 C.3   116  HIS116      0.1621
     32  C         -3.6350    3.0150   47.7350 C.2   116  HIS116      0.2264
     33  O         -2.7530    2.6580   48.5090 O.2   116  HIS116     -0.2867
     34  CB        -5.2110    1.2070   48.2420 C.3   116  HIS116      0.0745
     35  CG        -6.3520    0.3790   47.8010 C.ar  116  HIS116      0.0817
     36  ND1       -6.8180   -0.6960   48.5380 N.ar  116  HIS116     -0.2268
     37  CD2       -7.1210    0.4400   46.6930 C.ar  116  HIS116      0.1154
     38  CE1       -7.8480   -1.2420   47.9120 C.ar  116  HIS116      0.1986
     39  NE2       -8.0710   -0.5610   46.8020 N.ar  116  HIS116     -0.2212
     40  N         -3.5760    5.8910   50.3100 N.3   118  VAL118     -0.1245
     41  CA        -4.4160    6.1930   51.4540 C.3   118  VAL118      0.1561
     42  C         -4.1410    7.5940   51.9880 C.2   118  VAL118      0.2260
     43  O         -2.9830    7.9840   52.2020 O.2   118  VAL118     -0.2867
     44  CB        -4.1710    5.1350   52.5230 C.3   118  VAL118      0.0252
     45  CG1       -5.0990    5.3560   53.6890 C.3   118  VAL118      0.0019
     46  CG2       -4.4140    3.7490   51.9250 C.3   118  VAL118      0.0019
     47  N         -4.3470   10.9920   61.7090 N.3   127  PHE127     -0.1227
     48  CA        -4.9470    9.8300   61.1100 C.3   127  PHE127      0.1736
     49  C         -5.8950    9.1410   62.0970 C.2   127  PHE127      0.2596
     50  O         -7.0490    8.7710   61.7620 O.2   127  PHE127     -0.2718
     51  CB        -3.8540    8.8620   60.6580 C.3   127  PHE127      0.0547
     52  CG        -4.3840    7.6050   60.0510 C.ar  127  PHE127     -0.0202
     53  CD1       -4.8170    7.5930   58.7610 C.ar  127  PHE127     -0.0042
     54  CD2       -4.4620    6.4410   60.7910 C.ar  127  PHE127     -0.0042
     55  CE1       -5.3280    6.4330   58.1930 C.ar  127  PHE127     -0.0003
     56  CE2       -4.9630    5.2700   60.2350 C.ar  127  PHE127     -0.0003
     57  CZ        -5.4060    5.2800   58.9260 C.ar  127  PHE127     -0.0000
     58  N         -5.4130    9.0040   63.3320 N.am  128  GLY128     -0.1942
     59  CA        -6.1190    8.2610   64.3750 C.3   128  GLY128      0.2014
     60  C         -7.4820    8.8070   64.7130 C.2   128  GLY128      0.2638
     61  O         -8.4060    8.0350   65.0440 O.2   128  GLY128     -0.2714
     62  N         -7.6290   10.1200   64.6350 N.am  129  LYS129     -0.1977
     63  CA        -8.9570   10.7220   64.8180 C.3   129  LYS129      0.1596
     64  C         -9.7400   10.6770   63.5030 C.2   129  LYS129      0.2287
     65  O        -10.9760   10.5560   63.5040 O.2   129  LYS129     -0.2864
     66  CB        -8.8490   12.1690   65.3720 C.3   129  LYS129      0.0298
     67  CG        -8.4030   12.2880   66.8090 C.3   129  LYS129      0.0038
     68  CD        -8.5840   11.0830   67.7110 C.3   129  LYS129      0.0206
     69  CE        -7.2720   10.3500   67.9870 C.3   129  LYS129      0.1093
     70  NZ        -7.4030    9.0120   68.6290 N.3   129  LYS129     -0.1314
     71  N         -9.9430    8.3730   61.1710 N.3   131  VAL131     -0.1231
     72  CA       -10.6080    7.1030   60.8340 C.3   131  VAL131      0.1692
     73  C        -11.8940    6.9060   61.6100 C.2   131  VAL131      0.2591
     74  O        -12.7200    6.0900   61.2390 O.2   131  VAL131     -0.2718
     75  CB        -9.7260    5.8590   61.0250 C.3   131  VAL131      0.0266
     76  CG1       -8.5390    5.9120   60.1050 C.3   131  VAL131      0.0020
     77  CG2       -9.2700    5.7040   62.4780 C.3   131  VAL131      0.0020
     78  N        -12.0970    7.6700   62.6710 N.am  132  GLN132     -0.1979
     79  CA       -13.3420    7.5750   63.4130 C.3   132  GLN132      0.1601
     80  C        -14.4810    8.3620   62.7800 C.2   132  GLN132      0.2287
     81  O        -15.6140    8.2410   63.2240 O.2   132  GLN132     -0.2864
     82  CB       -13.1010    7.9870   64.8530 C.3   132  GLN132      0.0394
     83  CG       -12.2020    6.9970   65.5900 C.3   132  GLN132      0.0908
     84  CD       -11.5660    7.6250   66.8180 C.2   132  GLN132      0.2608
     85  OE1      -12.1440    8.5420   67.4270 O.2   132  GLN132     -0.2717
     86  NE2      -10.3720    7.1490   67.1890 N.am  132  GLN132     -0.0878
     87  N        -11.1970    9.5600   55.5870 N.3   137  LEU137     -0.1245
     88  CA       -10.1110    9.1770   54.6960 C.3   137  LEU137      0.1561
     89  C        -10.5410    9.2550   53.2640 C.2   137  LEU137      0.2260
     90  O        -11.7010    9.1290   52.9690 O.2   137  LEU137     -0.2867
     91  CB        -9.7150    7.7220   54.9450 C.3   137  LEU137      0.0270
     92  CG        -9.2340    7.2250   56.2730 C.3   137  LEU137      0.0019
     93  CD1       -8.7290    5.7790   56.0560 C.3   137  LEU137      0.0001
     94  CD2       -8.1310    8.0940   56.8250 C.3   137  LEU137      0.0001
     95  N         -9.2890    7.2250   49.7490 N.3   139  VAL139     -0.1245
     96  CA        -8.3880    6.2640   49.1310 C.3   139  VAL139      0.1561
     97  C         -8.5320    6.3630   47.6110 C.2   139  VAL139      0.2260
     98  O         -9.6210    6.2800   47.0910 O.2   139  VAL139     -0.2867
     99  CB        -8.6600    4.8040   49.5560 C.3   139  VAL139      0.0252
    100  CG1       -7.6110    3.8720   48.9160 C.3   139  VAL139      0.0019
    101  CG2       -8.6090    4.6730   51.0760 C.3   139  VAL139      0.0019
    102  N        -12.8560    0.7880   54.7640 N.3   194  LEU194     -0.1231
    103  CA       -11.6170    0.0870   54.6560 C.3   194  LEU194      0.1693
    104  C        -12.0200   -1.2800   54.1650 C.2   194  LEU194      0.2593
    105  O        -13.0650   -1.7620   54.5610 O.2   194  LEU194     -0.2718
    106  CB       -10.9470   -0.0580   55.9990 C.3   194  LEU194      0.0284
    107  CG       -10.8220    1.1440   56.9180 C.3   194  LEU194      0.0019
    108  CD1      -10.0840    0.6830   58.1830 C.3   194  LEU194      0.0001
    109  CD2      -10.1030    2.2590   56.1690 C.3   194  LEU194      0.0001
    110  N        -11.1870   -1.9190   53.3270 N.am  195  THR195     -0.1939
    111  CA       -11.4730   -3.2680   52.7800 C.3   195  THR195      0.2028
    112  C        -10.8350   -4.3820   53.5700 C.2   195  THR195      0.2643
    113  O        -10.9250   -5.5550   53.1780 O.2   195  THR195     -0.2714
    114  CB       -10.9840   -3.4310   51.3380 C.3   195  THR195      0.1808
    115  OG1       -9.5610   -3.3480   51.3020 O.3   195  THR195     -0.2208
    116  CG2      -11.5740   -2.3160   50.4180 C.3   195  THR195      0.0379
    117  N        -10.1720   -4.0100   54.6690 N.am  196  THR196     -0.1937
    118  CA        -9.6600   -4.9490   55.6590 C.3   196  THR196      0.2013
    119  C        -10.1980   -4.5450   57.0200 C.2   196  THR196      0.2484
    120  O        -10.4420   -3.3810   57.2190 O.2   196  THR196     -0.2729
    121  CB        -8.1160   -4.8910   55.7620 C.3   196  THR196      0.1807
    122  OG1       -7.6900   -3.5660   56.0660 O.3   196  THR196     -0.2208
    123  CG2       -7.4960   -5.2750   54.4730 C.3   196  THR196      0.0379
    124  N        -10.3240   -5.5160   57.9760 N.am  197  PRO197     -0.2715
    125  CA       -10.5380   -5.1950   59.3590 C.3   197  PRO197      0.1521
    126  C         -9.6050   -4.1230   59.8530 C.2   197  PRO197      0.2440
    127  O         -8.4180   -4.1540   59.5340 O.2   197  PRO197     -0.2731
    128  CB       -10.2930   -6.5240   60.0560 C.3   197  PRO197      0.0310
    129  CG       -10.7560   -7.5530   59.0610 C.3   197  PRO197      0.0237
    130  CD       -10.1940   -6.9860   57.7820 C.3   197  PRO197      0.0939
    131  N        -10.1410   -3.1300   60.6010 N.am  198  PRO198     -0.2727
    132  CA       -11.4890   -3.1840   61.1510 C.3   198  PRO198      0.1402
    133  C        -12.6700   -2.6700   60.3180 C.2   198  PRO198      0.2269
    134  O        -13.7540   -2.5250   60.8740 O.2   198  PRO198     -0.2865
    135  CB       -11.3390   -2.3800   62.4360 C.3   198  PRO198      0.0296
    136  CG       -10.3430   -1.3270   62.0800 C.3   198  PRO198      0.0237
    137  CD        -9.4040   -1.9490   61.0870 C.3   198  PRO198      0.0939
    138  N        -13.8190    0.0190   58.9290 N.3   200  LEU200     -0.1245
    139  CA       -14.5200    1.2150   59.3500 C.3   200  LEU200      0.1561
    140  C        -15.0830    1.9100   58.1260 C.2   200  LEU200      0.2260
    141  O        -14.4690    1.8740   57.0860 O.2   200  LEU200     -0.2867
    142  CB       -13.5750    2.1540   60.0880 C.3   200  LEU200      0.0270
    143  CG       -12.9700    1.5690   61.3540 C.3   200  LEU200      0.0019
    144  CD1      -11.9450    2.5210   61.9440 C.3   200  LEU200      0.0001
    145  CD2      -14.0600    1.2110   62.3810 C.3   200  LEU200      0.0001
    146  N        -14.1250    6.7970   48.4780 N.3   205  TRP205     -0.1241
    147  CA       -13.4320    6.0680   47.4490 C.3   205  TRP205      0.1605
    148  C        -13.4190    6.9000   46.1430 C.2   205  TRP205      0.2264
    149  O        -14.4160    7.4700   45.7430 O.2   205  TRP205     -0.2867
    150  CB       -14.1120    4.7010   47.2300 C.3   205  TRP205      0.0550
    151  CG       -13.6240    3.7230   48.2350 C.ar  205  TRP205      0.0003
    152  CD1      -14.2580    3.3130   49.3810 C.ar  205  TRP205      0.0946
    153  CD2      -12.3670    3.0910   48.2150 C.ar  205  TRP205      0.0152
    154  NE1      -13.4630    2.3930   50.0490 N.ar  205  TRP205     -0.2442
    155  CE2      -12.2890    2.2650   49.3530 C.ar  205  TRP205      0.0810
    156  CE3      -11.3110    3.0780   47.2910 C.ar  205  TRP205      0.0012
    157  CZ2      -11.1890    1.4400   49.6030 C.ar  205  TRP205      0.0191
    158  CZ3      -10.2170    2.2870   47.5470 C.ar  205  TRP205      0.0001
    159  CH2      -10.1530    1.4930   48.7260 C.ar  205  TRP205      0.0015
@<TRIPOS>BOND
     1    23    22    2
     2    22    21    1
     3   149   148    2
     4   148   147    1
     5    30    31    1
     6    20    21    1
     7    37    39   ar
     8    37    35   ar
     9    21    24    1
    10    39    38   ar
    11    24    25    1
    12    98    97    2
    13    31    32    1
    14    31    34    1
    15   150   147    1
    16   150   151    1
    17   156   158   ar
    18   156   153   ar
    19    13    12    2
    20   147   146    1
    21   158   159   ar
    22    97    96    1
    23    32    33    2
    24    35    34    1
    25    35    36   ar
    26    38    36   ar
    27    25    27   ar
    28    25    26   ar
    29    12    11    1
    30   153   151   ar
    31   153   155   ar
    32   151   152   ar
    33    27    29   ar
    34   159   157   ar
    35   100    99    1
    36    96    99    1
    37    96    95    1
    38    10    11    1
    39    11    14    1
    40   155   157   ar
    41   155   154   ar
    42    26    28   ar
    43   152   154   ar
    44    99   101    1
    45    29    28   ar
    46    40    41    1
    47   116   114    1
    48    17    15   ar
    49    17    19   ar
    50    14    15    1
    51    15    16   ar
    52    19    18   ar
    53     4     3    2
    54   115   114    1
    55   114   111    1
    56    16    18   ar
    57    41    42    1
    58    41    44    1
    59     3     2    1
    60    46    44    1
    61    42    43    2
    62    44    45    1
    63     8     7    2
    64   111   110    1
    65   111   112    1
    66     2     1    1
    67     2     5    1
    68    90    89    2
    69   113   112    2
    70    89    88    1
    71   110   104   am
    72   112   117   am
    73     7     6    1
    74     7     9   am
    75     5     6    1
    76   104   105    2
    77   104   103    1
    78   123   121    1
    79   103   102    1
    80   103   106    1
    81   117   118    1
    82    88    91    1
    83    88    87    1
    84    91    92    1
    85   118   121    1
    86   118   119    1
    87   121   122    1
    88   106   107    1
    89    93    92    1
    90   109   107    1
    91    92    94    1
    92   107   108    1
    93   119   120    2
    94   119   124   am
    95   141   140    2
    96   130   124    1
    97   130   129    1
    98   124   125    1
    99   140   139    1
   100    55    53   ar
   101    55    57   ar
   102    53    52   ar
   103    57    56   ar
   104   138   139    1
   105   129   128    1
   106   139   142    1
   107   125   126    1
   108   125   128    1
   109   127   126    2
   110   126   131   am
   111    52    51    1
   112    52    54   ar
   113   142   143    1
   114    76    75    1
   115    56    54   ar
   116   133   134    2
   117   133   132    1
   118   131   137    1
   119   131   132    1
   120    51    48    1
   121    72    75    1
   122    72    71    1
   123    72    73    1
   124    75    77    1
   125   137   136    1
   126    48    47    1
   127    48    49    1
   128   132   135    1
   129    74    73    2
   130   143   144    1
   131   143   145    1
   132    73    78   am
   133    50    49    2
   134   136   135    1
   135    49    58   am
   136    78    79    1
   137    80    81    2
   138    80    79    1
   139    58    59    1
   140    79    82    1
   141    64    65    2
   142    64    63    1
   143    59    60    1
   144    62    60   am
   145    62    63    1
   146    60    61    2
   147    63    66    1
   148    82    83    1
   149    66    67    1
   150    83    84    1
   151    67    68    1
   152    84    86   am
   153    84    85    2
   154    68    69    1
   155    69    70    1
