@<TRIPOS>MOLECULE
tmp/4lp8A00.pdb
 70 64 0 0 0
SMALL
GASTEIGER

@<TRIPOS>ATOM
      1  N          8.6990   37.5520   40.8280 N.3    37  ILE37      -0.1245
      2  CA         8.2200   38.7670   41.4960 C.3    37  ILE37       0.1561
      3  C          8.1860   38.5450   42.9840 C.2    37  ILE37       0.2260
      4  O          8.6980   39.3770   43.7220 O.2    37  ILE37      -0.2867
      5  CB         6.8300   39.1800   40.9140 C.3    37  ILE37       0.0252
      6  CG1        6.9260   39.5600   39.4010 C.3    37  ILE37       0.0019
      7  CG2        6.1210   40.2740   41.7340 C.3    37  ILE37       0.0019
      8  CD1        8.1300   40.5850   38.8670 C.3    37  ILE37       0.0001
      9  N         11.7540   38.1300   44.3360 N.3    40  LEU40      -0.1231
     10  CA        12.4290   39.4270   44.3620 C.3    40  LEU40       0.1693
     11  C         11.9270   40.2740   45.5550 C.2    40  LEU40       0.2592
     12  O         12.7350   40.9130   46.2370 O.2    40  LEU40      -0.2718
     13  CB        12.2430   40.1660   43.0330 C.3    40  LEU40       0.0284
     14  CG        12.8280   41.5680   42.9510 C.3    40  LEU40       0.0019
     15  CD1       14.3670   41.5220   42.9550 C.3    40  LEU40       0.0001
     16  CD2       12.2830   42.3070   41.7310 C.3    40  LEU40       0.0001
     17  N         10.6080   40.2310   45.8200 N.am   41  TYR41      -0.1976
     18  CA         9.9430   40.8840   46.9510 C.3    41  TYR41       0.1639
     19  C         10.5250   40.3590   48.2730 C.2    41  TYR41       0.2290
     20  O         10.9070   41.1570   49.1290 O.2    41  TYR41      -0.2864
     21  CB         8.4200   40.6260   46.8610 C.3    41  TYR41       0.0560
     22  CG         7.5840   40.9950   48.0700 C.ar   41  TYR41      -0.0198
     23  CD1        7.3060   42.3250   48.3700 C.ar   41  TYR41      -0.0009
     24  CD2        6.9460   40.0130   48.8240 C.ar   41  TYR41      -0.0009
     25  CE1        6.4450   42.6690   49.4120 C.ar   41  TYR41       0.0417
     26  CE2        6.1030   40.3440   49.8860 C.ar   41  TYR41       0.0417
     27  CZ         5.8510   41.6730   50.1730 C.ar   41  TYR41       0.1957
     28  OH         5.0030   42.0010   51.2110 O.3    41  TYR41      -0.2866
     29  N         14.5200   41.2340   48.5360 N.3    44  THR44      -0.1218
     30  CA        14.7140   42.6480   48.8930 C.3    44  THR44       0.1862
     31  C         14.4420   42.9010   50.4050 C.2    44  THR44       0.2287
     32  O         15.2130   43.6110   51.0410 O.2    44  THR44      -0.2866
     33  CB        13.8260   43.5300   48.0330 C.3    44  THR44       0.1770
     34  OG1       14.1280   43.2510   46.6730 O.3    44  THR44      -0.2211
     35  CG2       14.0550   44.9960   48.3020 C.3    44  THR44       0.0375
     36  N          8.3490   48.5430   53.6310 N.3    78  MET78      -0.1245
     37  CA         8.3060   48.4190   52.1730 C.3    78  MET78       0.1570
     38  C          6.8830   48.3910   51.6030 C.2    78  MET78       0.2261
     39  O          6.6820   48.9120   50.5130 O.2    78  MET78      -0.2867
     40  CB         9.0390   47.1730   51.7160 C.3    78  MET78       0.0387
     41  CG         9.7860   47.3890   50.4150 C.3    78  MET78       0.0595
     42  SD        10.3380   45.8450   49.6760 S.3    78  MET78      -0.1393
     43  CE         8.8620   45.2970   49.0760 C.3    78  MET78       0.0692
     44  N         11.9990   52.4200   47.4190 N.3   103  CYS103     -0.1221
     45  CA        12.2090   51.1630   46.6540 C.3   103  CYS103      0.1808
     46  C         10.9200   50.3770   46.4770 C.2   103  CYS103      0.2601
     47  O         10.7110   49.7980   45.4210 O.2   103  CYS103     -0.2717
     48  CB        13.2520   50.2750   47.3310 C.3   103  CYS103      0.0970
     49  SG        14.9320   50.9270   47.2940 S.3   103  CYS103     -0.0800
     50  N         10.1590   50.2360   47.5600 N.am  104  GLY104     -0.1957
     51  CA         8.9320   49.4520   47.5940 C.3   104  GLY104      0.1869
     52  C          7.8330   50.1050   46.8080 C.2   104  GLY104      0.2309
     53  O          7.1860   49.4630   45.9800 O.2   104  GLY104     -0.2863
     54  N          9.3060   49.9950   42.9850 N.3   107  GLY107     -0.1210
     55  CA         9.4130   48.6080   42.5370 C.3   107  GLY107      0.1956
     56  C          8.1120   47.8380   42.5110 C.2   107  GLY107      0.2611
     57  O          7.8720   47.0760   41.5720 O.2   107  GLY107     -0.2717
     58  N          7.2330   48.0560   43.4900 N.am  108  LEU108     -0.1979
     59  CA         5.9490   47.3320   43.4770 C.3   108  LEU108      0.1596
     60  C          4.9970   47.9060   42.4470 C.2   108  LEU108      0.2287
     61  O          4.2140   47.1450   41.8920 O.2   108  LEU108     -0.2864
     62  CB         5.2740   47.2260   44.8520 C.3   108  LEU108      0.0297
     63  CG         5.9820   46.2570   45.7930 C.3   108  LEU108      0.0022
     64  CD1        5.8590   46.6890   47.2280 C.3   108  LEU108      0.0001
     65  CD2        5.5390   44.8230   45.5710 C.3   108  LEU108      0.0001
     66  N          6.2060   46.3220   39.0860 N.3   111  ALA111     -0.1245
     67  CA         5.7960   44.9120   39.0790 C.3   111  ALA111      0.1562
     68  C          4.3220   44.7780   38.7330 C.2   111  ALA111      0.2260
     69  O          3.9790   43.9960   37.8480 O.2   111  ALA111     -0.2867
     70  CB         6.0840   44.2620   40.4340 C.3   111  ALA111      0.0290
@<TRIPOS>BOND
     1    69    68    2
     2    68    67    1
     3     8     6    1
     4    67    66    1
     5    67    70    1
     6     6     5    1
     7     1     2    1
     8     5     2    1
     9     5     7    1
    10     2     3    1
    11    57    56    2
    12    16    14    1
    13    61    60    2
    14    60    59    1
    15    56    55    1
    16    56    58   am
    17    55    54    1
    18    14    15    1
    19    14    13    1
    20     3     4    2
    21    13    10    1
    22    59    58    1
    23    59    62    1
    24     9    10    1
    25    10    11    1
    26    62    63    1
    27    47    46    2
    28    11    17   am
    29    11    12    2
    30    65    63    1
    31    63    64    1
    32    17    18    1
    33    53    52    2
    34    46    45    1
    35    46    50   am
    36    45    48    1
    37    45    44    1
    38    34    33    1
    39    52    51    1
    40    21    18    1
    41    21    22    1
    42    18    19    1
    43    49    48    1
    44    50    51    1
    45    33    35    1
    46    33    30    1
    47    22    23   ar
    48    22    24   ar
    49    19    20    2
    50    23    25   ar
    51    29    30    1
    52    24    26   ar
    53    30    31    1
    54    43    42    1
    55    25    27   ar
    56    42    41    1
    57    26    27   ar
    58    27    28    1
    59    31    32    2
    60    41    40    1
    61    39    38    2
    62    38    37    1
    63    40    37    1
    64    37    36    1
