@<TRIPOS>MOLECULE
tmp/4lpbA00.pdb
 121 110 0 0 0
SMALL
GASTEIGER

@<TRIPOS>ATOM
      1  N         22.2600   28.7670   -2.4130 N.3    32  ILE32      -0.1245
      2  CA        21.8060   29.8390   -1.5250 C.3    32  ILE32       0.1561
      3  C         20.5470   30.4970   -2.0860 C.2    32  ILE32       0.2260
      4  O         19.5870   30.7490   -1.3490 O.2    32  ILE32      -0.2867
      5  CB        22.9120   30.8890   -1.2810 C.3    32  ILE32       0.0252
      6  CG1       24.1640   30.2250   -0.6880 C.3    32  ILE32       0.0019
      7  CG2       22.4110   31.9870   -0.3520 C.3    32  ILE32       0.0019
      8  CD1       23.9050   29.4140    0.5780 C.3    32  ILE32       0.0001
      9  N         17.4440   28.4020   -1.3950 N.3    35  ASN35      -0.1225
     10  CA        16.9270   28.5730   -0.0320 C.3    35  ASN35       0.1785
     11  C         15.9940   29.7880    0.0630 C.2    35  ASN35       0.2597
     12  O         14.9330   29.7080    0.6830 O.2    35  ASN35      -0.2718
     13  CB        18.0660   28.6720    0.9840 C.3    35  ASN35       0.1169
     14  CG        18.8330   27.3670    1.1260 C.2    35  ASN35       0.2627
     15  OD1       18.3300   26.2940    0.7830 O.2    35  ASN35      -0.2716
     16  ND2       20.0580   27.4540    1.6230 N.am   35  ASN35      -0.0877
     17  N         16.3750   30.8870   -0.5890 N.am   36  ALA36      -0.1979
     18  CA        15.5260   32.0820   -0.6530 C.3    36  ALA36       0.1597
     19  C         14.2590   31.8180   -1.4660 C.2    36  ALA36       0.2287
     20  O         13.1710   32.2670   -1.1040 O.2    36  ALA36      -0.2864
     21  CB        16.2930   33.2550   -1.2480 C.3    36  ALA36       0.0319
     22  N         11.7430   29.7100    0.4660 N.3    39  GLU39      -0.1245
     23  CA        11.0610   30.5550    1.4320 C.3    39  GLU39       0.1567
     24  C          9.9560   31.3840    0.7620 C.2    39  GLU39       0.2260
     25  O          8.8470   31.4820    1.2920 O.2    39  GLU39      -0.2867
     26  CB        12.0810   31.4500    2.1410 C.3    39  GLU39       0.0388
     27  CG        11.5230   32.3270    3.2500 C.3    39  GLU39       0.1160
     28  CD        11.0340   31.5640    4.4680 C.2    39  GLU39       0.3649
     29  OE1       11.0220   30.3140    4.4630 O.co2  39  GLU39      -0.2457
     30  OE2       10.6670   32.2380    5.4540 O.co2  39  GLU39      -0.2457
     31  N         23.2210   37.0470   -1.2350 N.3    60  VAL60      -0.1245
     32  CA        21.8240   36.7720   -1.5450 C.3    60  VAL60       0.1561
     33  C         21.0200   37.2490   -0.3460 C.2    60  VAL60       0.2260
     34  O         21.3210   36.8590    0.7850 O.2    60  VAL60      -0.2867
     35  CB        21.5490   35.2690   -1.7500 C.3    60  VAL60       0.0252
     36  CG1       20.1010   35.0510   -2.1910 C.3    60  VAL60       0.0019
     37  CG2       22.5150   34.6790   -2.7630 C.3    60  VAL60       0.0019
     38  N         16.9810   37.7550    1.1540 N.3    62  ASP62      -0.1239
     39  CA        15.5420   37.5990    1.0450 C.3    62  ASP62       0.1674
     40  C         14.8440   38.3650    2.1620 C.2    62  ASP62       0.2266
     41  O         15.4870   38.9020    3.0780 O.2    62  ASP62      -0.2867
     42  CB        15.1340   36.1130    1.0070 C.3    62  ASP62       0.1410
     43  CG        15.2580   35.4110    2.3520 C.2    62  ASP62       0.3668
     44  OD1       14.9020   36.0020    3.3970 O.co2  62  ASP62      -0.2456
     45  OD2       15.6770   34.2300    2.3540 O.co2  62  ASP62      -0.2456
     46  N         10.9650   34.8600    6.5190 N.3    65  ARG65      -0.1231
     47  CA        10.8050   34.8530    7.9770 C.3    65  ARG65       0.1694
     48  C         12.1070   35.0930    8.7400 C.2    65  ARG65       0.2593
     49  O         12.0780   35.4730    9.9160 O.2    65  ARG65      -0.2718
     50  CB        10.2150   33.5210    8.4390 C.3    65  ARG65       0.0321
     51  CG         8.7960   33.2810    7.9720 C.3    65  ARG65       0.0489
     52  CD         8.3460   31.8630    8.2730 C.3    65  ARG65       0.2205
     53  NE         8.9540   30.8850    7.3720 N.pl3  65  ARG65      -0.0865
     54  CZ         8.6010   29.6040    7.3110 C.cat  65  ARG65       0.5346
     55  NH1        7.6560   29.1240    8.1120 N.pl3  65  ARG65       0.1354
     56  NH2        9.2080   28.7940    6.4530 N.pl3  65  ARG65       0.1354
     57  N         13.2370   34.8650    8.0760 N.am   66  GLY66      -0.1942
     58  CA        14.5300   34.8300    8.7390 C.3    66  GLY66       0.2014
     59  C         14.7600   33.4230    9.2450 C.2    66  GLY66       0.2639
     60  O         13.8320   32.7790    9.7390 O.2    66  GLY66      -0.2714
     61  N         15.9820   32.9220    9.1030 N.am   67  MET67      -0.1963
     62  CA        16.3300   31.6270    9.6810 C.3    67  MET67       0.1722
     63  C         16.0580   31.6540   11.1820 C.2    67  MET67       0.2458
     64  O         16.1580   32.7130   11.8070 O.2    67  MET67      -0.2730
     65  CB        17.8020   31.3070    9.4540 C.3    67  MET67       0.0427
     66  CG        18.1480   30.8960    8.0560 C.3    67  MET67       0.0599
     67  SD        19.8630   30.3550    7.9950 S.3    67  MET67      -0.1393
     68  CE        19.8800   29.4700    6.4360 C.3    67  MET67       0.0692
     69  N         15.7150   30.4930   11.7700 N.am   68  PRO68      -0.2727
     70  CA        15.5140   30.4480   13.2180 C.3    68  PRO68       0.1402
     71  C         16.7240   30.9800   13.9860 C.2    68  PRO68       0.2269
     72  O         17.8570   30.6290   13.6690 O.2    68  PRO68      -0.2865
     73  CB        15.3210   28.9540   13.5020 C.3    68  PRO68       0.0296
     74  CG        14.8390   28.3810   12.2230 C.3    68  PRO68       0.0237
     75  CD        15.4920   29.1770   11.1390 C.3    68  PRO68       0.0939
     76  N         20.8570   27.3490   16.1790 N.3    78  THR78      -0.1218
     77  CA        20.2880   26.5890   15.0630 C.3    78  THR78       0.1862
     78  C         20.9750   26.9260   13.7330 C.2    78  THR78       0.2287
     79  O         21.2490   26.0350   12.9250 O.2    78  THR78      -0.2866
     80  CB        18.7780   26.8600   14.9370 C.3    78  THR78       0.1770
     81  OG1       18.1240   26.4510   16.1440 O.3    78  THR78      -0.2211
     82  CG2       18.1830   26.1090   13.7530 C.3    78  THR78       0.0375
     83  N         22.8360   24.4410   10.9470 N.3    82  ILE82      -0.1245
     84  CA        22.4770   24.4480    9.5260 C.3    82  ILE82       0.1561
     85  C         23.7100   24.6510    8.6370 C.2    82  ILE82       0.2260
     86  O         23.8230   24.0390    7.5710 O.2    82  ILE82      -0.2867
     87  CB        21.4480   25.5640    9.2110 C.3    82  ILE82       0.0252
     88  CG1       20.1090   25.2880    9.9040 C.3    82  ILE82       0.0019
     89  CG2       21.2160   25.6860    7.7120 C.3    82  ILE82       0.0019
     90  CD1       19.2100   26.5120    9.9620 C.3    82  ILE82       0.0001
     91  N         23.3550   24.9920    2.4560 N.3    91  SER91      -0.1217
     92  CA        24.0280   26.0020    3.2730 C.3    91  SER91       0.1889
     93  C         25.3920   25.5230    3.7700 C.2    91  SER91       0.2288
     94  O         26.3850   26.2420    3.6620 O.2    91  SER91      -0.2866
     95  CB        23.1510   26.4020    4.4620 C.3    91  SER91       0.2089
     96  OG        21.9410   26.9930    4.0160 O.3    91  SER91      -0.2183
     97  N         14.6760   39.5960   12.4040 N.3   107  ARG107     -0.1245
     98  CA        13.3330   39.2300   12.8490 C.3   107  ARG107      0.1563
     99  C         13.1010   39.6460   14.3000 C.2   107  ARG107      0.2260
    100  O         14.0530   39.8060   15.0730 O.2   107  ARG107     -0.2867
    101  CB        13.0810   37.7280   12.6960 C.3   107  ARG107      0.0307
    102  CG        14.1390   36.8390   13.3230 C.3   107  ARG107      0.0489
    103  CD        13.8730   35.3870   12.9920 C.3   107  ARG107      0.2205
    104  NE        12.6400   34.9120   13.6130 N.pl3 107  ARG107     -0.0865
    105  CZ        12.0250   33.7710   13.3060 C.cat 107  ARG107      0.5346
    106  NH1       12.5200   32.9690   12.3730 N.pl3 107  ARG107      0.1354
    107  NH2       10.9050   33.4330   13.9360 N.pl3 107  ARG107      0.1354
    108  N         16.6540   36.9320    5.6020 N.3   139  THR139     -0.1218
    109  CA        17.9700   36.3200    5.7340 C.3   139  THR139      0.1862
    110  C         18.8700   36.8650    4.6300 C.2   139  THR139      0.2287
    111  O         18.4340   37.0150    3.4840 O.2   139  THR139     -0.2866
    112  CB        17.8880   34.7800    5.6220 C.3   139  THR139      0.1770
    113  OG1       16.9890   34.2690    6.6140 O.3   139  THR139     -0.2211
    114  CG2       19.2590   34.1360    5.8080 C.3   139  THR139      0.0375
    115  N         22.8400   36.1710    3.1550 N.3   141  VAL141     -0.1245
    116  CA        24.0290   35.3340    3.1940 C.3   141  VAL141      0.1561
    117  C         25.0410   35.9050    2.2140 C.2   141  VAL141      0.2260
    118  O         24.7040   36.1530    1.0610 O.2   141  VAL141     -0.2867
    119  CB        23.7020   33.8720    2.8220 C.3   141  VAL141      0.0252
    120  CG1       24.9660   33.0230    2.7630 C.3   141  VAL141      0.0019
    121  CG2       22.7000   33.2780    3.8090 C.3   141  VAL141      0.0019
@<TRIPOS>BOND
     1    37    35    1
     2     1     2    1
     3    36    35    1
     4     3     2    1
     5     3     4    2
     6    35    32    1
     7    32    31    1
     8    32    33    1
     9     2     5    1
    10    19    20    2
    11    19    18    1
    12     9    10    1
    13     5     6    1
    14     5     7    1
    15    21    18    1
    16     6     8    1
    17    18    17    1
    18    17    11   am
    19    33    34    2
    20    10    11    1
    21    10    13    1
    22    11    12    2
    23    22    23    1
    24    24    25    2
    25    24    23    1
    26    15    14    2
    27    13    14    1
    28    42    39    1
    29    42    43    1
    30    39    38    1
    31    39    40    1
    32   118   117    2
    33    14    16   am
    34    23    26    1
    35    26    27    1
    36    40    41    2
    37   117   116    1
    38    43    45   ar
    39    43    44   ar
    40    91    92    1
    41   120   119    1
    42   119   116    1
    43   119   121    1
    44   115   116    1
    45    27    28    1
    46    92    93    1
    47    92    95    1
    48   111   110    2
    49    94    93    2
    50    96    95    1
    51    29    28   ar
    52    28    30   ar
    53   110   109    1
    54   108   109    1
    55   112   109    1
    56   112   114    1
    57   112   113    1
    58    68    67    1
    59    56    54    1
    60    46    47    1
    61    54    53    2
    62    54    55    1
    63    53    52    1
    64    86    85    2
    65    89    87    1
    66    51    52    1
    67    51    50    1
    68    47    50    1
    69    47    48    1
    70    67    66    1
    71    66    65    1
    72    57    58    1
    73    57    48   am
    74    85    84    1
    75    58    59    1
    76    48    49    2
    77    61    59   am
    78    61    62    1
    79    87    84    1
    80    87    88    1
    81    59    60    2
    82    65    62    1
    83    84    83    1
    84    62    63    1
    85    88    90    1
    86    75    69    1
    87    75    74    1
    88    63    69   am
    89    63    64    2
    90    69    70    1
    91    74    73    1
    92   106   105    1
    93    97    98    1
    94   101    98    1
    95   101   102    1
    96    98    99    1
    97    79    78    2
    98   103   102    1
    99   103   104    1
   100    70    73    1
   101    70    71    1
   102   105   104    2
   103   105   107    1
   104    72    71    2
   105    78    77    1
   106    82    80    1
   107    99   100    2
   108    80    77    1
   109    80    81    1
   110    77    76    1
