@<TRIPOS>MOLECULE
tmp/4lpcD00.pdb
 126 124 0 0 0
SMALL
GASTEIGER

@<TRIPOS>ATOM
      1  N         11.1150   35.0180   29.2790 N.3   138  ARG138     -0.1231
      2  CA        12.0230   35.8400   30.0810 C.3   138  ARG138      0.1694
      3  C         11.8400   37.3170   29.7380 C.2   138  ARG138      0.2592
      4  O         11.3540   37.6450   28.6670 O.2   138  ARG138     -0.2718
      5  CB        13.4730   35.4470   29.8140 C.3   138  ARG138      0.0321
      6  CG        13.9120   34.2000   30.4840 C.3   138  ARG138      0.0489
      7  CD        15.4210   34.0760   30.4810 C.3   138  ARG138      0.2205
      8  NE        15.8000   32.7450   30.9600 N.pl3 138  ARG138     -0.0865
      9  CZ        16.9820   32.1500   30.7580 C.cat 138  ARG138      0.5346
     10  NH1       17.9500   32.7680   30.0780 N.pl3 138  ARG138      0.1354
     11  NH2       17.1870   30.9210   31.2360 N.pl3 138  ARG138      0.1354
     12  N         12.2580   38.2090   30.6290 N.am  139  ARG139     -0.1966
     13  CA        12.2580   39.6440   30.3390 C.3   139  ARG139      0.1729
     14  C         13.5730   40.2760   30.7730 C.2   139  ARG139      0.2616
     15  O         14.3010   39.6990   31.5780 O.2   139  ARG139     -0.2715
     16  CB        11.1220   40.3330   31.0740 C.3   139  ARG139      0.0348
     17  CG         9.7260   39.8870   30.6870 C.3   139  ARG139      0.0492
     18  CD         9.3110   40.4050   29.3210 C.3   139  ARG139      0.2205
     19  NE         7.9190   40.0630   29.0110 N.pl3 139  ARG139     -0.0865
     20  CZ         6.8870   40.8210   29.3600 C.cat 139  ARG139      0.5346
     21  NH1        7.1100   41.9460   30.0290 N.pl3 139  ARG139      0.1354
     22  NH2        5.6460   40.4660   29.0540 N.pl3 139  ARG139      0.1354
     23  N         13.8930   41.4560   30.2500 N.am  140  HIS140     -0.1959
     24  CA        15.0140   42.2170   30.8150 C.3   140  HIS140      0.1787
     25  C         14.6530   42.7540   32.1980 C.2   140  HIS140      0.2620
     26  O         13.5100   43.1560   32.4260 O.2   140  HIS140     -0.2715
     27  CB        15.4060   43.3520   29.9030 C.3   140  HIS140      0.0785
     28  CG        15.9580   42.8980   28.5980 C.ar  140  HIS140      0.0821
     29  ND1       15.1750   42.7450   27.4720 N.ar  140  HIS140     -0.2267
     30  CD2       17.2180   42.5640   28.2350 C.ar  140  HIS140      0.1154
     31  CE1       15.9320   42.3410   26.4680 C.ar  140  HIS140      0.1986
     32  NE2       17.1760   42.2260   26.9030 N.ar  140  HIS140     -0.2212
     33  N         15.6210   42.7590   33.1150 N.am  141  THR141     -0.1951
     34  CA        15.3410   43.0480   34.5410 C.3   141  THR141      0.1897
     35  C         14.8860   44.4730   34.8590 C.2   141  THR141      0.2313
     36  O         13.7820   44.6780   35.3690 O.2   141  THR141     -0.2863
     37  CB        16.4990   42.6180   35.4840 C.3   141  THR141      0.1794
     38  OG1       17.7590   42.8010   34.8250 O.3   141  THR141     -0.2208
     39  CG2       16.3450   41.1540   35.8600 C.3   141  THR141      0.0378
     40  N         11.6920   45.5000   32.1430 N.3   144  ASN144     -0.1240
     41  CA        10.6610   44.4880   31.8850 C.3   144  ASN144      0.1653
     42  C         10.3730   44.2690   30.4070 C.2   144  ASN144      0.2266
     43  O          9.2770   43.8590   30.0460 O.2   144  ASN144     -0.2867
     44  CB         9.3560   44.7700   32.6390 C.3   144  ASN144      0.1155
     45  CG         8.5390   43.4940   32.8770 C.2   144  ASN144      0.2627
     46  OD1        7.3170   43.4800   32.7200 O.2   144  ASN144     -0.2716
     47  ND2        9.2250   42.4130   33.2410 N.am  144  ASN144     -0.0877
     48  N          3.4850   29.8950   41.0470 N.3   436  ARG436     -0.1245
     49  CA         2.3970   30.7140   40.5110 C.3   436  ARG436      0.1563
     50  C          1.9230   30.2940   39.1090 C.2   436  ARG436      0.2260
     51  O          2.6940   29.7710   38.3170 O.2   436  ARG436     -0.2867
     52  CB         2.8210   32.1770   40.4820 C.3   436  ARG436      0.0307
     53  CG         2.9740   32.7850   41.8790 C.3   436  ARG436      0.0489
     54  CD         3.1470   34.2790   41.7780 C.3   436  ARG436      0.2205
     55  NE         4.3330   34.6100   41.0020 N.pl3 436  ARG436     -0.0865
     56  CZ         4.7900   35.8490   40.8240 C.cat 436  ARG436      0.5346
     57  NH1        4.1490   36.8770   41.3650 N.pl3 436  ARG436      0.1354
     58  NH2        5.8820   36.0620   40.1030 N.pl3 436  ARG436      0.1354
     59  N          1.7720   33.8510   33.8590 N.3   439  ASN439     -0.1240
     60  CA         1.4200   35.2530   33.5430 C.3   439  ASN439      0.1653
     61  C          2.0400   35.6740   32.1970 C.2   439  ASN439      0.2266
     62  O          3.2620   35.8600   32.0840 O.2   439  ASN439     -0.2867
     63  CB         1.8930   36.1760   34.6630 C.3   439  ASN439      0.1155
     64  CG         1.3500   37.6240   34.5520 C.2   439  ASN439      0.2627
     65  OD1        1.6210   38.4420   35.4420 O.2   439  ASN439     -0.2716
     66  ND2        0.6090   37.9430   33.4850 N.am  439  ASN439     -0.0877
     67  N          4.3350   38.9290   32.0930 N.3   442  ALA442     -0.1231
     68  CA         5.5500   38.9930   32.8940 C.3   442  ALA442      0.1694
     69  C          6.4630   37.8180   32.5470 C.2   442  ALA442      0.2593
     70  O          6.0370   36.8530   31.9520 O.2   442  ALA442     -0.2718
     71  CB         5.2040   38.9700   34.4030 C.3   442  ALA442      0.0304
     72  N          7.7190   37.9130   32.9500 N.am  443  SER443     -0.1938
     73  CA         8.6610   36.8260   32.8310 C.3   443  SER443      0.2055
     74  C          8.1760   35.6580   33.6830 C.2   443  SER443      0.2643
     75  O          7.2540   35.8100   34.4950 O.2   443  SER443     -0.2714
     76  CB        10.0250   37.3200   33.3190 C.3   443  SER443      0.2130
     77  OG        10.8480   36.2540   33.7550 O.3   443  SER443     -0.2179
     78  N          8.7840   34.4890   33.5060 N.am  444  LEU444     -0.1963
     79  CA         8.5100   33.3720   34.4090 C.3   444  LEU444      0.1728
     80  C          9.3020   33.6020   35.6940 C.2   444  LEU444      0.2616
     81  O         10.2120   34.4460   35.7230 O.2   444  LEU444     -0.2715
     82  CB         8.9130   32.0400   33.7970 C.3   444  LEU444      0.0311
     83  CG         8.1460   31.4980   32.5990 C.3   444  LEU444      0.0022
     84  CD1        8.9950   30.4340   31.8730 C.3   444  LEU444      0.0001
     85  CD2        6.7720   30.9610   32.9790 C.3   444  LEU444      0.0001
     86  N          8.9630   32.8360   36.7360 N.am  445  ASP445     -0.1957
     87  CA         9.5040   33.0380   38.0710 C.3   445  ASP445      0.1840
     88  C         10.8650   32.3670   38.1970 C.2   445  ASP445      0.2622
     89  O         11.0540   31.4780   39.0370 O.2   445  ASP445     -0.2715
     90  CB         8.5430   32.4740   39.1230 C.3   445  ASP445      0.1450
     91  CG         7.2640   33.3020   39.2670 C.2   445  ASP445      0.3671
     92  OD1        6.3340   32.8380   39.9530 O.co2 445  ASP445     -0.2456
     93  OD2        7.1780   34.4060   38.7000 O.co2 445  ASP445     -0.2456
     94  N         11.8060   32.7960   37.3570 N.am  446  TRP446     -0.1960
     95  CA        13.1570   32.2560   37.3790 C.3   446  TRP446      0.1771
     96  C         13.8660   32.6270   38.6690 C.2   446  TRP446      0.2619
     97  O         15.0080   32.2130   38.8900 O.2   446  TRP446     -0.2715
     98  CB        13.9820   32.8080   36.2250 C.3   446  TRP446      0.0590
     99  CG        13.4570   32.4560   34.8680 C.ar  446  TRP446      0.0006
    100  CD1       12.6850   33.2410   34.0520 C.ar  446  TRP446      0.0946
    101  CD2       13.6690   31.2310   34.1640 C.ar  446  TRP446      0.0152
    102  NE1       12.4040   32.5750   32.8840 N.ar  446  TRP446     -0.2442
    103  CE2       12.9980   31.3390   32.9240 C.ar  446  TRP446      0.0810
    104  CE3       14.3760   30.0610   34.4500 C.ar  446  TRP446      0.0012
    105  CZ2       13.0060   30.3110   31.9750 C.ar  446  TRP446      0.0191
    106  CZ3       14.3790   29.0410   33.5130 C.ar  446  TRP446      0.0001
    107  CH2       13.7040   29.1780   32.2850 C.ar  446  TRP446      0.0015
    108  N         13.2270   33.4330   39.5100 N.am  447  HIS447     -0.1973
    109  CA        13.8670   33.7730   40.7780 C.3   447  HIS447      0.1656
    110  C         13.8300   32.5650   41.6980 C.2   447  HIS447      0.2291
    111  O         14.5730   32.4990   42.6520 O.2   447  HIS447     -0.2864
    112  CB        13.2530   35.0150   41.4270 C.3   447  HIS447      0.0771
    113  CG        11.8580   34.8190   41.9290 C.ar  447  HIS447      0.0820
    114  ND1       10.7430   35.1000   41.1660 N.ar  447  HIS447     -0.2267
    115  CD2       11.3930   34.3950   43.1290 C.ar  447  HIS447      0.1154
    116  CE1        9.6530   34.8440   41.8680 C.ar  447  HIS447      0.1986
    117  NE2       10.0190   34.4140   43.0630 N.ar  447  HIS447     -0.2212
    118  N         17.1240   30.9380   41.9630 N.3   450  GLU450     -0.1245
    119  CA        18.1970   31.7770   42.4750 C.3   450  GLU450      0.1567
    120  C         18.6410   31.3360   43.8560 C.2   450  GLU450      0.2260
    121  O         17.8180   30.9310   44.6810 O.2   450  GLU450     -0.2867
    122  CB        17.7930   33.2560   42.4620 C.3   450  GLU450      0.0388
    123  CG        18.0670   33.9130   41.1030 C.3   450  GLU450      0.1160
    124  CD        17.4260   35.2950   40.9190 C.2   450  GLU450      0.3649
    125  OE1       17.1780   35.9980   41.9280 O.co2 450  GLU450     -0.2457
    126  OE2       17.1770   35.6800   39.7470 O.co2 450  GLU450     -0.2457
@<TRIPOS>BOND
     1    31    32   ar
     2    31    29   ar
     3    32    30   ar
     4    29    28   ar
     5    30    28   ar
     6    28    27    1
     7     4     3    2
     8    19    18    1
     9    19    20    2
    10    22    20    1
    11     1     2    1
    12    18    17    1
    13    20    21    1
    14     3     2    1
    15     3    12   am
    16     5     2    1
    17     5     6    1
    18    27    24    1
    19    43    42    2
    20    10     9    1
    21    23    14   am
    22    23    24    1
    23    13    12    1
    24    13    14    1
    25    13    16    1
    26    42    41    1
    27     7     6    1
    28     7     8    1
    29    17    16    1
    30     9     8    2
    31     9    11    1
    32    14    15    2
    33    24    25    1
    34    84    83    1
    35    41    40    1
    36    41    44    1
    37    70    69    2
    38   105   107   ar
    39   105   103   ar
    40    62    61    2
    41    67    68    1
    42    61    60    1
    43    25    26    2
    44    25    33   am
    45   107   106   ar
    46    69    68    1
    47    69    72   am
    48    83    85    1
    49    83    82    1
    50    44    45    1
    51    46    45    2
    52    73    72    1
    53    73    76    1
    54    73    74    1
    55    45    47   am
    56   102   103   ar
    57   102   100   ar
    58    68    71    1
    59   103   101   ar
    60    33    34    1
    61    76    77    1
    62    66    64   am
    63    78    74   am
    64    78    79    1
    65   106   104   ar
    66    60    59    1
    67    60    63    1
    68    74    75    2
    69    82    79    1
    70   100    99   ar
    71   101   104   ar
    72   101    99   ar
    73    79    80    1
    74    34    35    1
    75    34    37    1
    76    64    63    1
    77    64    65    2
    78    38    37    1
    79    35    36    2
    80    99    98    1
    81    37    39    1
    82    80    81    2
    83    80    86   am
    84    98    95    1
    85    86    87    1
    86    94    95    1
    87    94    88   am
    88    95    96    1
    89    87    88    1
    90    87    90    1
    91    88    89    2
    92    51    50    2
    93    96    97    2
    94    96   108   am
    95    93    91   ar
    96    50    49    1
    97    90    91    1
    98    91    92   ar
    99   108   109    1
   100   126   124   ar
   101    58    56    1
   102    52    49    1
   103    52    53    1
   104    49    48    1
   105   109   112    1
   106   109   110    1
   107    56    55    2
   108    56    57    1
   109   124   123    1
   110   124   125   ar
   111    55    54    1
   112   123   122    1
   113   114   116   ar
   114   114   113   ar
   115   112   113    1
   116   110   111    2
   117    54    53    1
   118   116   117   ar
   119   113   115   ar
   120   118   119    1
   121   122   119    1
   122   119   120    1
   123   117   115   ar
   124   120   121    2
