@<TRIPOS>MOLECULE
tmp/4lpcD03.pdb
 106 105 0 0 0
SMALL
GASTEIGER

@<TRIPOS>ATOM
      1  N          2.4710   22.2600   40.1640 N.3   396  LEU396     -0.1231
      2  CA         2.9450   22.0720   41.5220 C.3   396  LEU396      0.1693
      3  C          1.8110   22.2380   42.5480 C.2   396  LEU396      0.2592
      4  O          1.6290   21.3940   43.4060 O.2   396  LEU396     -0.2718
      5  CB         4.1050   23.0150   41.8320 C.3   396  LEU396      0.0284
      6  CG         4.5930   22.8670   43.2830 C.3   396  LEU396      0.0019
      7  CD1        5.0270   21.4280   43.5650 C.3   396  LEU396      0.0001
      8  CD2        5.7280   23.8420   43.5570 C.3   396  LEU396      0.0001
      9  N          1.0390   23.3090   42.4210 N.am  397  ASP397     -0.1974
     10  CA        -0.0390   23.6190   43.3620 C.3   397  ASP397      0.1709
     11  C         -1.2270   22.6590   43.3480 C.2   397  ASP397      0.2293
     12  O         -2.1240   22.7720   44.1810 O.2   397  ASP397     -0.2864
     13  CB        -0.5350   25.0570   43.1700 C.3   397  ASP397      0.1436
     14  CG         0.2620   26.0600   43.9830 C.2   397  ASP397      0.3671
     15  OD1       -0.1780   27.2290   44.0940 O.co2 397  ASP397     -0.2456
     16  OD2        1.3330   25.6780   44.5100 O.co2 397  ASP397     -0.2456
     17  N          5.3990   20.1600   51.8510 N.3   403  ALA403     -0.1245
     18  CA         6.3020   20.6290   50.8020 C.3   403  ALA403      0.1562
     19  C          7.0910   19.5060   50.1450 C.2   403  ALA403      0.2260
     20  O          7.0800   19.3720   48.9320 O.2   403  ALA403     -0.2867
     21  CB         7.2390   21.7010   51.3390 C.3   403  ALA403      0.0290
     22  N          4.7800   17.3950   48.0340 N.3   406  LYS406     -0.1231
     23  CA         4.3110   18.0720   46.8370 C.3   406  LYS406      0.1693
     24  C          5.3200   17.8890   45.7010 C.2   406  LYS406      0.2592
     25  O          4.9450   17.4670   44.6190 O.2   406  LYS406     -0.2718
     26  CB         4.0620   19.5650   47.1030 C.3   406  LYS406      0.0285
     27  CG         2.7910   19.8530   47.8280 C.3   406  LYS406      0.0035
     28  CD         2.7460   21.2980   48.3290 C.3   406  LYS406      0.0206
     29  CE         2.3570   22.2700   47.2240 C.3   406  LYS406      0.1093
     30  NZ         0.8670   22.3260   47.0370 N.3   406  LYS406     -0.1314
     31  N          6.5900   18.1890   45.9610 N.am  407  PHE407     -0.1976
     32  CA         7.6300   18.0120   44.9660 C.3   407  PHE407      0.1639
     33  C          7.8880   16.5520   44.6040 C.2   407  PHE407      0.2290
     34  O          8.1760   16.2360   43.4490 O.2   407  PHE407     -0.2864
     35  CB         8.9250   18.6990   45.3860 C.3   407  PHE407      0.0560
     36  CG         8.8660   20.2070   45.2990 C.ar  407  PHE407     -0.0200
     37  CD1        8.4540   20.9580   46.3790 C.ar  407  PHE407     -0.0042
     38  CD2        9.2460   20.8660   44.1410 C.ar  407  PHE407     -0.0042
     39  CE1        8.4130   22.3450   46.3210 C.ar  407  PHE407     -0.0003
     40  CE2        9.1970   22.2690   44.0670 C.ar  407  PHE407     -0.0003
     41  CZ         8.7770   23.0070   45.1680 C.ar  407  PHE407     -0.0000
     42  N          5.5860   27.9620   41.1490 N.3   435  GLY435     -0.1210
     43  CA         4.4780   27.9470   42.0840 C.3   435  GLY435      0.1956
     44  C          3.2700   28.6900   41.5490 C.2   435  GLY435      0.2611
     45  O          2.1550   28.1870   41.5860 O.2   435  GLY435     -0.2717
     46  N          3.4850   29.8950   41.0470 N.am  436  ARG436     -0.1979
     47  CA         2.3970   30.7140   40.5110 C.3   436  ARG436      0.1597
     48  C          1.9230   30.2940   39.1090 C.2   436  ARG436      0.2287
     49  O          2.6940   29.7710   38.3170 O.2   436  ARG436     -0.2864
     50  CB         2.8210   32.1770   40.4820 C.3   436  ARG436      0.0334
     51  CG         2.9740   32.7850   41.8790 C.3   436  ARG436      0.0492
     52  CD         3.1470   34.2790   41.7780 C.3   436  ARG436      0.2205
     53  NE         4.3330   34.6100   41.0020 N.pl3 436  ARG436     -0.0865
     54  CZ         4.7900   35.8490   40.8240 C.cat 436  ARG436      0.5346
     55  NH1        4.1490   36.8770   41.3650 N.pl3 436  ARG436      0.1354
     56  NH2        5.8820   36.0620   40.1030 N.pl3 436  ARG436      0.1354
     57  N         13.2270   33.4330   39.5100 N.3   447  HIS447     -0.1226
     58  CA        13.8670   33.7730   40.7780 C.3   447  HIS447      0.1752
     59  C         13.8300   32.5650   41.6980 C.2   447  HIS447      0.2595
     60  O         14.5730   32.4990   42.6520 O.2   447  HIS447     -0.2718
     61  CB        13.2530   35.0150   41.4270 C.3   447  HIS447      0.0759
     62  CG        11.8580   34.8190   41.9290 C.ar  447  HIS447      0.0818
     63  ND1       10.7430   35.1000   41.1660 N.ar  447  HIS447     -0.2268
     64  CD2       11.3930   34.3950   43.1290 C.ar  447  HIS447      0.1154
     65  CE1        9.6530   34.8440   41.8680 C.ar  447  HIS447      0.1986
     66  NE2       10.0190   34.4140   43.0630 N.ar  447  HIS447     -0.2212
     67  N         12.9900   31.5880   41.3670 N.am  448  LEU448     -0.1980
     68  CA        12.9160   30.3370   42.1180 C.3   448  LEU448      0.1596
     69  C         14.2490   29.6040   42.0500 C.2   448  LEU448      0.2287
     70  O         14.6530   28.9400   42.9980 O.2   448  LEU448     -0.2864
     71  CB        11.7850   29.4450   41.5830 C.3   448  LEU448      0.0297
     72  CG        10.3530   30.0070   41.6870 C.3   448  LEU448      0.0022
     73  CD1        9.2980   29.0650   41.0960 C.3   448  LEU448      0.0001
     74  CD2       10.0140   30.3440   43.1420 C.3   448  LEU448      0.0001
     75  N         17.8180   24.0420   45.4480 N.3   454  ASN454     -0.1225
     76  CA        16.5670   23.8110   46.1180 C.3   454  ASN454      0.1785
     77  C         15.6880   22.8810   45.3010 C.2   454  ASN454      0.2597
     78  O         16.0950   22.4120   44.2460 O.2   454  ASN454     -0.2718
     79  CB        15.8750   25.1500   46.4300 C.3   454  ASN454      0.1169
     80  CG        15.4050   25.8820   45.1770 C.2   454  ASN454      0.2627
     81  OD1       14.7730   25.2920   44.2970 O.2   454  ASN454     -0.2716
     82  ND2       15.6860   27.1810   45.1030 N.am  454  ASN454     -0.0877
     83  N         14.4850   22.6260   45.8060 N.am  455  TRP455     -0.1962
     84  CA        13.5450   21.6800   45.2180 C.3   455  TRP455      0.1771
     85  C         13.2700   21.9490   43.7400 C.2   455  TRP455      0.2619
     86  O         13.0710   21.0240   42.9670 O.2   455  TRP455     -0.2715
     87  CB        12.2260   21.6840   46.0020 C.3   455  TRP455      0.0590
     88  CG        12.1820   20.7140   47.1720 C.ar  455  TRP455      0.0006
     89  CD1       12.5060   19.3760   47.1520 C.ar  455  TRP455      0.0946
     90  CD2       11.7450   20.9970   48.5080 C.ar  455  TRP455      0.0152
     91  NE1       12.3090   18.8190   48.3940 N.ar  455  TRP455     -0.2442
     92  CE2       11.8510   19.7910   49.2480 C.ar  455  TRP455      0.0810
     93  CE3       11.2780   22.1450   49.1480 C.ar  455  TRP455      0.0012
     94  CZ2       11.5000   19.7050   50.5990 C.ar  455  TRP455      0.0191
     95  CZ3       10.9320   22.0600   50.4790 C.ar  455  TRP455      0.0001
     96  CH2       11.0440   20.8450   51.1940 C.ar  455  TRP455      0.0015
     97  N         13.2460   23.2120   43.3540 N.am  456  HIS456     -0.1973
     98  CA        13.1000   23.5500   41.9560 C.3   456  HIS456      0.1656
     99  C         14.3010   23.1350   41.1270 C.2   456  HIS456      0.2291
    100  O         14.1180   22.6720   40.0180 O.2   456  HIS456     -0.2864
    101  CB        12.8240   25.0280   41.7840 C.3   456  HIS456      0.0771
    102  CG        11.6930   25.5090   42.6220 C.ar  456  HIS456      0.0820
    103  ND1       10.3770   25.3580   42.2450 N.ar  456  HIS456     -0.2267
    104  CD2       11.6770   26.1180   43.8300 C.ar  456  HIS456      0.1154
    105  CE1        9.5940   25.8750   43.1800 C.ar  456  HIS456      0.1986
    106  NE2       10.3610   26.3490   44.1470 N.ar  456  HIS456     -0.2212
@<TRIPOS>BOND
     1    49    48    2
     2    48    47    1
     3    57    58    1
     4   100    99    2
     5    56    54    1
     6     1     2    1
     7    50    47    1
     8    50    51    1
     9    47    46    1
    10    58    61    1
    11    58    59    1
    12    54    53    2
    13    54    55    1
    14    53    52    1
    15    46    44   am
    16    73    72    1
    17    99    98    1
    18    42    43    1
    19    63    65   ar
    20    63    62   ar
    21    67    59   am
    22    67    68    1
    23    61    62    1
    24     2     5    1
    25     2     3    1
    26    44    45    2
    27    44    43    1
    28    71    72    1
    29    71    68    1
    30    72    74    1
    31    59    60    2
    32    52    51    1
    33   101    98    1
    34   101   102    1
    35     5     6    1
    36    65    66   ar
    37    62    64   ar
    38    98    97    1
    39    69    68    1
    40    69    70    2
    41   103   102   ar
    42   103   105   ar
    43     9     3   am
    44     9    10    1
    45     3     4    2
    46   102   104   ar
    47    86    85    2
    48    66    64   ar
    49    13    10    1
    50    13    14    1
    51   105   106   ar
    52     6     8    1
    53     6     7    1
    54    11    10    1
    55    11    12    2
    56    97    85   am
    57    34    33    2
    58    85    84    1
    59   104   106   ar
    60    14    15   ar
    61    14    16   ar
    62    40    38   ar
    63    40    41   ar
    64    38    36   ar
    65    78    77    2
    66    81    80    2
    67    33    32    1
    68    25    24    2
    69    32    35    1
    70    32    31    1
    71    82    80   am
    72    41    39   ar
    73    80    79    1
    74    84    83    1
    75    84    87    1
    76    36    35    1
    77    36    37   ar
    78    77    83   am
    79    77    76    1
    80    75    76    1
    81    24    31   am
    82    24    23    1
    83    87    88    1
    84    76    79    1
    85    39    37   ar
    86    23    26    1
    87    23    22    1
    88    30    29    1
    89    26    27    1
    90    89    88   ar
    91    89    91   ar
    92    88    90   ar
    93    29    28    1
    94    27    28    1
    95    91    92   ar
    96    90    93   ar
    97    90    92   ar
    98    20    19    2
    99    93    95   ar
   100    92    94   ar
   101    19    18    1
   102    95    96   ar
   103    94    96   ar
   104    18    21    1
   105    18    17    1
