@<TRIPOS>MOLECULE
tmp/4lpcB00.pdb
 123 121 0 0 0
SMALL
GASTEIGER

@<TRIPOS>ATOM
      1  N         11.5430   -8.8020   66.4000 N.3   123  PHE123     -0.1241
      2  CA        11.5260   -7.3510   66.4870 C.3   123  PHE123      0.1605
      3  C         10.1910   -6.7410   66.0700 C.2   123  PHE123      0.2264
      4  O          9.8060   -5.6690   66.5630 O.2   123  PHE123     -0.2867
      5  CB        12.6950   -6.7890   65.6770 C.3   123  PHE123      0.0534
      6  CG        14.0790   -7.2340   66.1790 C.ar  123  PHE123     -0.0203
      7  CD1       15.0420   -7.7030   65.3020 C.ar  123  PHE123     -0.0042
      8  CD2       14.4210   -7.1490   67.5260 C.ar  123  PHE123     -0.0042
      9  CE1       16.3290   -8.0990   65.7630 C.ar  123  PHE123     -0.0003
     10  CE2       15.7060   -7.5310   67.9920 C.ar  123  PHE123     -0.0003
     11  CZ        16.6450   -7.9980   67.1150 C.ar  123  PHE123     -0.0000
     12  N         26.0900  -14.9590   72.7350 N.3   313  ASN313     -0.1225
     13  CA        25.0200  -14.5050   71.8490 C.3   313  ASN313      0.1785
     14  C         25.1740  -15.1420   70.4710 C.2   313  ASN313      0.2597
     15  O         24.1610  -15.4890   69.8270 O.2   313  ASN313     -0.2718
     16  CB        24.9540  -12.9740   71.7990 C.3   313  ASN313      0.1169
     17  CG        24.4290  -12.3670   73.1180 C.2   313  ASN313      0.2627
     18  OD1       23.6160  -12.9820   73.8140 O.2   313  ASN313     -0.2716
     19  ND2       24.9110  -11.1760   73.4760 N.am  313  ASN313     -0.0877
     20  N         26.4240  -15.3810   70.0470 N.am  314  ARG314     -0.1979
     21  CA        26.6460  -16.0080   68.7370 C.3   314  ARG314      0.1597
     22  C         26.2100  -17.4690   68.7300 C.2   314  ARG314      0.2287
     23  O         25.5520  -17.9460   67.7720 O.2   314  ARG314     -0.2864
     24  CB        28.1030  -15.9590   68.2940 C.3   314  ARG314      0.0334
     25  CG        28.2740  -16.4650   66.8620 C.3   314  ARG314      0.0492
     26  CD        29.7210  -16.6140   66.4560 C.3   314  ARG314      0.2205
     27  NE        30.2070  -17.8820   66.9680 N.pl3 314  ARG314     -0.0865
     28  CZ        31.0740  -17.9970   67.9620 C.cat 314  ARG314      0.5346
     29  NH1       31.5790  -16.8950   68.5210 N.pl3 314  ARG314      0.1354
     30  NH2       31.4420  -19.2140   68.3770 N.pl3 314  ARG314      0.1354
     31  N         22.5130  -17.8480   68.9540 N.3   317  GLY317     -0.1225
     32  CA        21.9520  -17.5320   67.6480 C.3   317  GLY317      0.1811
     33  C         22.0830  -18.7090   66.7150 C.2   317  GLY317      0.2280
     34  O         21.1890  -18.9410   65.9030 O.2   317  GLY317     -0.2866
     35  N         23.0350   -4.0890   71.6530 N.3   337  SER337     -0.1202
     36  CA        22.1400   -4.9580   70.9100 C.3   337  SER337      0.2020
     37  C         22.4080   -4.7860   69.4170 C.2   337  SER337      0.2619
     38  O         21.4850   -4.7060   68.5960 O.2   337  SER337     -0.2717
     39  CB        20.6550   -4.6920   71.3040 C.3   337  SER337      0.2103
     40  OG        20.2470   -3.3640   70.9570 O.3   337  SER337     -0.2182
     41  N         23.6930   -4.7080   69.0690 N.am  338  ARG338     -0.1965
     42  CA        24.0940   -4.6510   67.6870 C.3   338  ARG338      0.1714
     43  C         25.0150   -5.8410   67.4460 C.2   338  ARG338      0.2458
     44  O         25.5880   -6.3730   68.4020 O.2   338  ARG338     -0.2730
     45  CB        24.7630   -3.2970   67.3700 C.3   338  ARG338      0.0347
     46  CG        23.8270   -2.0890   67.3970 C.3   338  ARG338      0.0492
     47  CD        22.9160   -2.1480   66.1990 C.3   338  ARG338      0.2205
     48  NE        21.8990   -1.0990   66.0910 N.pl3 338  ARG338     -0.0865
     49  CZ        20.6400   -1.2150   66.5320 C.cat 338  ARG338      0.5346
     50  NH1       20.2720   -2.2980   67.2010 N.pl3 338  ARG338      0.1354
     51  NH2       19.7540   -0.2300   66.3550 N.pl3 338  ARG338      0.1354
     52  N         25.1360   -6.2920   66.1780 N.am  339  PRO339     -0.2716
     53  CA        25.9450   -7.4770   65.8150 C.3   339  PRO339      0.1536
     54  C         27.4140   -7.3450   66.2170 C.2   339  PRO339      0.2598
     55  O         27.9830   -6.2490   66.1750 O.2   339  PRO339     -0.2715
     56  CB        25.8310   -7.5330   64.2780 C.3   339  PRO339      0.0310
     57  CG        24.5340   -6.8430   63.9730 C.3   339  PRO339      0.0237
     58  CD        24.4640   -5.7100   65.0040 C.3   339  PRO339      0.0939
     59  N         28.0180   -8.4620   66.6030 N.am  340  GLN340     -0.1978
     60  CA        29.4480   -8.4830   66.9790 C.3   340  GLN340      0.1601
     61  C         30.3660   -7.9650   65.8570 C.2   340  GLN340      0.2287
     62  O         31.3450   -7.2700   66.1250 O.2   340  GLN340     -0.2864
     63  CB        29.8760   -9.8920   67.4030 C.3   340  GLN340      0.0394
     64  CG        29.0660  -10.4830   68.5800 C.3   340  GLN340      0.0908
     65  CD        27.7590  -11.1700   68.1460 C.2   340  GLN340      0.2608
     66  OE1       27.4150  -12.2530   68.6460 O.2   340  GLN340     -0.2717
     67  NE2       27.0390  -10.5520   67.2120 N.am  340  GLN340     -0.0878
     68  N         30.2340   -5.6080   63.9900 N.3   342  MET342     -0.1196
     69  CA        30.3750   -4.1520   63.9810 C.3   342  MET342      0.1786
     70  C         30.7910   -3.6470   65.3730 C.2   342  MET342      0.2306
     71  O         30.6180   -2.4740   65.6970 O.2   342  MET342     -0.2863
     72  CB        29.0930   -3.4460   63.4640 C.2   342  MET342      0.0070
     73  CG        27.8130   -3.6680   64.2750 C.2   342  MET342      0.0282
     74  SD        26.3660   -2.6470   63.7590 S.3   342  MET342     -0.1125
     75  CE        26.0930   -3.2850   62.0940 C.3   342  MET342      0.0742
     76  N         26.0830   -8.1460   70.7260 N.3   346  GLY346     -0.1210
     77  CA        25.2080   -9.1190   70.0800 C.3   346  GLY346      0.1956
     78  C         23.9440   -9.4960   70.8400 C.2   346  GLY346      0.2612
     79  O         23.3260  -10.5000   70.4930 O.2   346  GLY346     -0.2717
     80  N         23.5430   -8.7370   71.8630 N.am  347  PHE347     -0.1962
     81  CA        22.1830   -8.8990   72.4280 C.3   347  PHE347      0.1771
     82  C         21.0980   -8.5270   71.4120 C.2   347  PHE347      0.2619
     83  O         21.3200   -7.6890   70.5540 O.2   347  PHE347     -0.2715
     84  CB        21.9740   -8.0610   73.7160 C.3   347  PHE347      0.0574
     85  CG        22.7610   -8.5790   74.9090 C.ar  347  PHE347     -0.0200
     86  CD1       24.0710   -8.1690   75.1210 C.ar  347  PHE347     -0.0042
     87  CD2       22.1980   -9.5260   75.7780 C.ar  347  PHE347     -0.0042
     88  CE1       24.8140   -8.6500   76.1740 C.ar  347  PHE347     -0.0003
     89  CE2       22.9260  -10.0140   76.8560 C.ar  347  PHE347     -0.0003
     90  CZ        24.2550   -9.5810   77.0360 C.ar  347  PHE347     -0.0000
     91  N         19.9220   -9.1210   71.5240 N.am  348  TRP348     -0.1974
     92  CA        18.7570   -8.6590   70.7310 C.3   348  TRP348      0.1640
     93  C         18.1200   -7.3790   71.2760 C.2   348  TRP348      0.2290
     94  O         17.7590   -6.5210   70.5140 O.2   348  TRP348     -0.2864
     95  CB        17.6920   -9.7680   70.6040 C.3   348  TRP348      0.0576
     96  CG        18.0830  -11.0030   69.6790 C.ar  348  TRP348      0.0006
     97  CD1       17.4970  -11.3580   68.4930 C.ar  348  TRP348      0.0946
     98  CD2       19.1090  -12.0080   69.9280 C.ar  348  TRP348      0.0152
     99  NE1       18.0900  -12.5060   67.9920 N.ar  348  TRP348     -0.2442
    100  CE2       19.0630  -12.9340   68.8560 C.ar  348  TRP348      0.0810
    101  CE3       20.0410  -12.2110   70.9570 C.ar  348  TRP348      0.0012
    102  CZ2       19.9430  -14.0460   68.7580 C.ar  348  TRP348      0.0191
    103  CZ3       20.9300  -13.3390   70.8710 C.ar  348  TRP348      0.0001
    104  CH2       20.8660  -14.2380   69.7760 C.ar  348  TRP348      0.0015
    105  N         17.9230   -1.6790   70.3050 N.3   388  ASN388     -0.1240
    106  CA        16.5560   -2.1900   70.2520 C.3   388  ASN388      0.1653
    107  C         16.0550   -2.2110   71.6880 C.2   388  ASN388      0.2266
    108  O         16.3600   -3.1440   72.4540 O.2   388  ASN388     -0.2867
    109  CB        16.5170   -3.6090   69.6760 C.3   388  ASN388      0.1155
    110  CG        17.1790   -3.7050   68.2870 C.2   388  ASN388      0.2627
    111  OD1       17.0390   -2.7960   67.4460 O.2   388  ASN388     -0.2716
    112  ND2       17.9130   -4.7950   68.0540 N.am  388  ASN388     -0.0877
    113  N         11.6920    0.1260   65.5620 N.3   491  PHE491     -0.1241
    114  CA        13.1090    0.3560   65.3420 C.3   491  PHE491      0.1605
    115  C         13.4270    0.8780   63.9590 C.2   491  PHE491      0.2264
    116  O         14.5990    0.9080   63.5490 O.2   491  PHE491     -0.2867
    117  CB        13.8750   -0.9500   65.5960 C.3   491  PHE491      0.0534
    118  CG        13.4170   -1.6690   66.8510 C.ar  491  PHE491     -0.0203
    119  CD1       12.8720   -2.9590   66.7820 C.ar  491  PHE491     -0.0042
    120  CD2       13.4840   -1.0370   68.0900 C.ar  491  PHE491     -0.0042
    121  CE1       12.4410   -3.6390   67.9520 C.ar  491  PHE491     -0.0003
    122  CE2       13.0570   -1.6970   69.2680 C.ar  491  PHE491     -0.0003
    123  CZ        12.5350   -2.9970   69.1970 C.ar  491  PHE491     -0.0000
@<TRIPOS>BOND
     1    75    74    1
     2    72    69    1
     3    72    73    2
     4   116   115    2
     5    74    73    1
     6   115   114    1
     7    57    56    1
     8    57    58    1
     9    69    68    1
    10    69    70    1
    11    56    53    1
    12    58    52    1
    13     7     9   ar
    14     7     6   ar
    15   114   113    1
    16   114   117    1
    17    70    71    2
    18   117   118    1
    19     5     6    1
    20     5     2    1
    21     9    11   ar
    22    53    52    1
    23    53    54    1
    24    61    62    2
    25    61    60    1
    26    34    33    2
    27     3     2    1
    28     3     4    2
    29    48    47    1
    30    48    49    2
    31    55    54    2
    32    52    43   am
    33     6     8   ar
    34    47    46    1
    35    54    59   am
    36    51    49    1
    37     1     2    1
    38    26    25    1
    39    26    27    1
    40    49    50    1
    41    59    60    1
    42    33    32    1
    43   119   118   ar
    44   119   121   ar
    45   118   120   ar
    46    25    24    1
    47    27    28    2
    48    60    63    1
    49    11    10   ar
    50    67    65   am
    51    45    46    1
    52    45    42    1
    53    63    64    1
    54    43    42    1
    55    43    44    2
    56   111   110    2
    57     8    10   ar
    58    32    31    1
    59    42    41    1
    60    23    22    2
    61   121   123   ar
    62    28    30    1
    63    28    29    1
    64    99    97   ar
    65    99   100   ar
    66   112   110   am
    67   120   122   ar
    68    65    64    1
    69    65    66    2
    70   110   109    1
    71    24    21    1
    72    97    96   ar
    73    38    37    2
    74    22    21    1
    75    21    20    1
    76   102   100   ar
    77   102   104   ar
    78   100    98   ar
    79    41    37   am
    80   123   122   ar
    81    37    36    1
    82   109   106    1
    83    96    98   ar
    84    96    95    1
    85   104   103   ar
    86    15    14    2
    87    98   101   ar
    88    20    14   am
    89    77    76    1
    90    77    78    1
    91   106   105    1
    92   106   107    1
    93    14    13    1
    94    79    78    2
    95    94    93    2
    96    83    82    2
    97    95    92    1
    98    92    93    1
    99    92    91    1
   100    78    80   am
   101   103   101   ar
   102    36    39    1
   103    36    35    1
   104    40    39    1
   105    82    91   am
   106    82    81    1
   107   107   108    2
   108    16    13    1
   109    16    17    1
   110    13    12    1
   111    80    81    1
   112    81    84    1
   113    17    19   am
   114    17    18    2
   115    84    85    1
   116    85    86   ar
   117    85    87   ar
   118    86    88   ar
   119    87    89   ar
   120    88    90   ar
   121    89    90   ar
