@<TRIPOS>MOLECULE
tmp/4lpcB01.pdb
 203 202 0 0 0
SMALL
GASTEIGER

@<TRIPOS>ATOM
      1  N          2.1580  -13.8510   95.0900 N.3   138  ARG138     -0.1231
      2  CA         1.1150  -14.1240   96.0600 C.3   138  ARG138      0.1694
      3  C          1.7220  -14.9060   97.2110 C.2   138  ARG138      0.2592
      4  O          2.8770  -15.3200   97.1500 O.2   138  ARG138     -0.2718
      5  CB        -0.0480  -14.9190   95.4450 C.3   138  ARG138      0.0321
      6  CG        -0.8940  -14.1330   94.4680 C.3   138  ARG138      0.0489
      7  CD        -2.1030  -14.9490   93.9930 C.3   138  ARG138      0.2205
      8  NE        -3.1290  -15.0440   95.0230 N.pl3 138  ARG138     -0.0865
      9  CZ        -4.1750  -14.2250   95.1050 C.cat 138  ARG138      0.5346
     10  NH1       -5.0690  -14.3880   96.0660 N.pl3 138  ARG138      0.1354
     11  NH2       -4.3400  -13.2500   94.2180 N.pl3 138  ARG138      0.1354
     12  N          0.9320  -15.0660   98.2680 N.am  139  ARG139     -0.1966
     13  CA         1.2210  -15.9850   99.3690 C.3   139  ARG139      0.1729
     14  C         -0.0860  -16.6630   99.7850 C.2   139  ARG139      0.2616
     15  O         -1.1490  -16.0570   99.7010 O.2   139  ARG139     -0.2715
     16  CB         1.7610  -15.2320  100.5750 C.3   139  ARG139      0.0348
     17  CG         3.1510  -14.6680  100.4090 C.3   139  ARG139      0.0492
     18  CD         4.1410  -15.7430  100.0450 C.3   139  ARG139      0.2205
     19  NE         5.4750  -15.1950   99.8590 N.pl3 139  ARG139     -0.0865
     20  CZ         6.3630  -15.0040  100.8310 C.cat 139  ARG139      0.5346
     21  NH1        6.0570  -15.3290  102.0820 N.pl3 139  ARG139      0.1354
     22  NH2        7.5590  -14.4910  100.5590 N.pl3 139  ARG139      0.1354
     23  N         -0.0010  -17.9150  100.2280 N.am  140  HIS140     -0.1959
     24  CA        -1.1520  -18.6160  100.7520 C.3   140  HIS140      0.1787
     25  C         -1.6610  -17.9020  101.9710 C.2   140  HIS140      0.2620
     26  O         -0.8850  -17.4410  102.7970 O.2   140  HIS140     -0.2715
     27  CB        -0.8390  -20.0660  101.0940 C.3   140  HIS140      0.0785
     28  CG        -0.7650  -20.9550   99.8940 C.ar  140  HIS140      0.0821
     29  ND1        0.4300  -21.4260   99.3860 N.ar  140  HIS140     -0.2267
     30  CD2       -1.7310  -21.4140   99.0650 C.ar  140  HIS140      0.1154
     31  CE1        0.1940  -22.1670   98.3180 C.ar  140  HIS140      0.1986
     32  NE2       -1.1090  -22.1730   98.0990 N.ar  140  HIS140     -0.2212
     33  N         -2.9860  -17.8600  102.0650 N.am  141  THR141     -0.1951
     34  CA        -3.7460  -17.0730  103.0210 C.3   141  THR141      0.1897
     35  C         -3.3680  -17.2070  104.4870 C.2   141  THR141      0.2313
     36  O         -3.1480  -16.1940  105.1720 O.2   141  THR141     -0.2863
     37  CB        -5.2610  -17.3700  102.8610 C.3   141  THR141      0.1794
     38  OG1       -5.7130  -16.8260  101.6060 O.3   141  THR141     -0.2208
     39  CG2       -6.0770  -16.7800  104.0210 C.3   141  THR141      0.0378
     40  N          1.0690  -17.6910  105.1940 N.3   144  ASN144     -0.1240
     41  CA         1.9640  -16.8660  104.4260 C.3   144  ASN144      0.1653
     42  C          2.9530  -17.7220  103.6310 C.2   144  ASN144      0.2266
     43  O          4.0370  -17.2660  103.3010 O.2   144  ASN144     -0.2867
     44  CB         2.7040  -15.9280  105.3770 C.3   144  ASN144      0.1155
     45  CG         3.2660  -14.7250  104.6790 C.2   144  ASN144      0.2627
     46  OD1        2.7810  -14.3330  103.6370 O.2   144  ASN144     -0.2716
     47  ND2        4.2880  -14.1140  105.2620 N.am  144  ASN144     -0.0877
     48  N          3.1210    4.6300   91.5970 N.3   406  LEU406     -0.1231
     49  CA         2.0070    5.5040   91.9670 C.3   406  LEU406      0.1693
     50  C          2.4440    6.6580   92.8970 C.2   406  LEU406      0.2592
     51  O          1.9420    7.7680   92.7900 O.2   406  LEU406     -0.2718
     52  CB         0.8880    4.7050   92.6420 C.3   406  LEU406      0.0284
     53  CG        -0.2130    5.5340   93.3000 C.3   406  LEU406      0.0019
     54  CD1       -1.1420    6.1160   92.1940 C.3   406  LEU406      0.0001
     55  CD2       -1.0090    4.6400   94.2600 C.3   406  LEU406      0.0001
     56  N          3.3370    6.3840   93.8440 N.am  407  ASP407     -0.1974
     57  CA         3.6980    7.4000   94.8330 C.3   407  ASP407      0.1709
     58  C          4.7240    8.4250   94.2890 C.2   407  ASP407      0.2293
     59  O          5.0930    9.3470   94.9910 O.2   407  ASP407     -0.2864
     60  CB         4.1980    6.7640   96.1360 C.3   407  ASP407      0.1436
     61  CG         3.0690    6.4010   97.1050 C.2   407  ASP407      0.3671
     62  OD1        3.3880    5.8580   98.1890 O.co2 407  ASP407     -0.2456
     63  OD2        1.8620    6.6350   96.8230 O.co2 407  ASP407     -0.2456
     64  N         -5.6120   12.6160   94.9910 N.3   413  ALA413     -0.1245
     65  CA        -5.7840   11.2110   94.6010 C.3   413  ALA413      0.1562
     66  C         -6.2160   11.0720   93.1410 C.2   413  ALA413      0.2260
     67  O         -5.6840   10.2300   92.3960 O.2   413  ALA413     -0.2867
     68  CB        -6.7510   10.5000   95.5110 C.3   413  ALA413      0.0290
     69  N         -3.3130   11.7930   90.9550 N.3   416  LYS416     -0.1231
     70  CA        -2.2930   10.7770   91.0550 C.3   416  LYS416      0.1693
     71  C         -2.5170    9.6070   90.1270 C.2   416  LYS416      0.2592
     72  O         -1.5920    9.1990   89.4070 O.2   416  LYS416     -0.2718
     73  CB        -2.1490   10.2880   92.5020 C.3   416  LYS416      0.0285
     74  CG        -1.5360   11.3850   93.4190 C.3   416  LYS416      0.0035
     75  CD        -1.2670   10.8660   94.8410 C.3   416  LYS416      0.0206
     76  CE        -0.0210    9.9630   94.8620 C.3   416  LYS416      0.1093
     77  NZ         0.0100    9.0440   96.0530 N.3   416  LYS416     -0.1314
     78  N         -3.7430    9.0660   90.1190 N.am  417  PHE417     -0.1976
     79  CA        -4.0280    7.9050   89.2700 C.3   417  PHE417      0.1639
     80  C         -4.1420    8.3840   87.8400 C.2   417  PHE417      0.2290
     81  O         -3.7670    7.6820   86.8890 O.2   417  PHE417     -0.2864
     82  CB        -5.2990    7.1650   89.7270 C.3   417  PHE417      0.0560
     83  CG        -5.1600    6.4650   91.0660 C.ar  417  PHE417     -0.0200
     84  CD1       -5.4300    7.1360   92.2480 C.ar  417  PHE417     -0.0042
     85  CD2       -4.7580    5.1640   91.1370 C.ar  417  PHE417     -0.0042
     86  CE1       -5.3380    6.5010   93.4680 C.ar  417  PHE417     -0.0003
     87  CE2       -4.6390    4.5110   92.3500 C.ar  417  PHE417     -0.0003
     88  CZ        -4.9200    5.1800   93.5310 C.ar  417  PHE417     -0.0000
     89  N          0.4360    0.6820   96.1980 N.3   445  GLY445     -0.1210
     90  CA         0.8410    1.9040   96.8990 C.3   445  GLY445      0.1956
     91  C          2.2410    1.8060   97.5270 C.2   445  GLY445      0.2611
     92  O          3.0450    2.7470   97.4240 O.2   445  GLY445     -0.2717
     93  N          2.5240    0.6700   98.1690 N.am  446  ARG446     -0.1979
     94  CA         3.7780    0.4780   98.8740 C.3   446  ARG446      0.1597
     95  C          4.8120   -0.1210   97.9300 C.2   446  ARG446      0.2287
     96  O          4.4620   -0.7310   96.9210 O.2   446  ARG446     -0.2864
     97  CB         3.5950   -0.4540  100.0790 C.3   446  ARG446      0.0334
     98  CG         2.5650    0.0110  101.1050 C.3   446  ARG446      0.0492
     99  CD         2.6000   -0.8910  102.3360 C.3   446  ARG446      0.2205
    100  NE         2.1610   -2.2440  102.0200 N.pl3 446  ARG446     -0.0865
    101  CZ         1.9620   -3.1930  102.9280 C.cat 446  ARG446      0.5346
    102  NH1        2.1920   -2.9330  104.2170 N.pl3 446  ARG446      0.1354
    103  NH2        1.5440   -4.4030  102.5480 N.pl3 446  ARG446      0.1354
    104  N          7.0070  -10.6810  101.1870 N.3   452  ALA452     -0.1231
    105  CA         5.5500  -10.7740  101.3670 C.3   452  ALA452      0.1694
    106  C          4.8840  -10.7590  100.0130 C.2   452  ALA452      0.2593
    107  O          5.5350  -10.4800   98.9900 O.2   452  ALA452     -0.2718
    108  CB         5.0320   -9.6210  102.1820 C.3   452  ALA452      0.0304
    109  N          3.5850  -11.0520  100.0410 N.am  453  SER453     -0.1938
    110  CA         2.6680  -10.8900   98.9600 C.3   453  SER453      0.2055
    111  C          2.6010   -9.4410   98.4810 C.2   453  SER453      0.2643
    112  O          2.8380   -8.4880   99.2590 O.2   453  SER453     -0.2714
    113  CB         1.2570  -11.2620   99.4770 C.3   453  SER453      0.2130
    114  OG         0.3030  -11.2200   98.4370 O.3   453  SER453     -0.2179
    115  N          2.2680   -9.2680   97.2030 N.am  454  LEU454     -0.1963
    116  CA         1.8680   -7.9830   96.7090 C.3   454  LEU454      0.1728
    117  C          0.5270   -7.6340   97.3880 C.2   454  LEU454      0.2616
    118  O         -0.1380   -8.5130   98.0030 O.2   454  LEU454     -0.2715
    119  CB         1.7050   -8.0350   95.1800 C.3   454  LEU454      0.0311
    120  CG         3.0000   -8.1470   94.3570 C.3   454  LEU454      0.0022
    121  CD1        2.7240   -8.5220   92.8720 C.3   454  LEU454      0.0001
    122  CD2        3.8020   -6.8510   94.4550 C.3   454  LEU454      0.0001
    123  N          0.1210   -6.3820   97.2730 N.am  455  ASP455     -0.1957
    124  CA        -1.0190   -5.9070   98.0190 C.3   455  ASP455      0.1840
    125  C         -2.3940   -6.0920   97.3220 C.2   455  ASP455      0.2622
    126  O         -3.1050   -5.1230   97.0260 O.2   455  ASP455     -0.2715
    127  CB        -0.7650   -4.4490   98.4530 C.3   455  ASP455      0.1450
    128  CG         0.3610   -4.3320   99.5300 C.2   455  ASP455      0.3671
    129  OD1        0.8370   -3.1890   99.7900 O.co2 455  ASP455     -0.2456
    130  OD2        0.7530   -5.3760  100.1280 O.co2 455  ASP455     -0.2456
    131  N         -2.7700   -7.3390   97.0880 N.am  456  TRP456     -0.1960
    132  CA        -4.0270   -7.6400   96.4130 C.3   456  TRP456      0.1771
    133  C         -5.2470   -7.1380   97.2170 C.2   456  TRP456      0.2620
    134  O         -6.2930   -6.8770   96.6450 O.2   456  TRP456     -0.2715
    135  CB        -4.1650   -9.1390   96.1080 C.3   456  TRP456      0.0590
    136  CG        -3.0250   -9.6750   95.2980 C.ar  456  TRP456      0.0006
    137  CD1       -1.8930  -10.3100   95.7720 C.ar  456  TRP456      0.0946
    138  CD2       -2.8760   -9.6210   93.8590 C.ar  456  TRP456      0.0152
    139  NE1       -1.0770  -10.6660   94.7100 N.ar  456  TRP456     -0.2442
    140  CE2       -1.6490  -10.2550   93.5370 C.ar  456  TRP456      0.0810
    141  CE3       -3.6690   -9.1310   92.8230 C.ar  456  TRP456      0.0012
    142  CZ2       -1.1900  -10.3740   92.2260 C.ar  456  TRP456      0.0191
    143  CZ3       -3.2060   -9.2420   91.5150 C.ar  456  TRP456      0.0001
    144  CH2       -1.9830   -9.8540   91.2310 C.ar  456  TRP456      0.0015
    145  N         -5.1020   -6.9760   98.5270 N.am  457  HIS457     -0.1959
    146  CA        -6.1630   -6.3770   99.3160 C.3   457  HIS457      0.1787
    147  C         -6.6320   -5.0520   98.7040 C.2   457  HIS457      0.2620
    148  O         -7.7480   -4.6460   98.9380 O.2   457  HIS457     -0.2715
    149  CB        -5.7500   -6.2040  100.7970 C.3   457  HIS457      0.0785
    150  CG        -4.7340   -5.1320  101.0280 C.ar  457  HIS457      0.0821
    151  ND1       -3.3720   -5.3750  101.0050 N.ar  457  HIS457     -0.2267
    152  CD2       -4.8770   -3.8110  101.3020 C.ar  457  HIS457      0.1154
    153  CE1       -2.7190   -4.2500  101.2420 C.ar  457  HIS457      0.1986
    154  NE2       -3.6070   -3.2850  101.4310 N.ar  457  HIS457     -0.2212
    155  N         -5.7910   -4.3910   97.9150 N.am  458  LEU458     -0.1977
    156  CA        -6.1590   -3.0950   97.3090 C.3   458  LEU458      0.1596
    157  C         -7.2820   -3.2990   96.2970 C.2   458  LEU458      0.2287
    158  O         -8.0440   -2.3920   95.9720 O.2   458  LEU458     -0.2864
    159  CB        -4.9530   -2.4430   96.5970 C.3   458  LEU458      0.0297
    160  CG        -3.7890   -1.9370   97.4690 C.3   458  LEU458      0.0022
    161  CD1       -2.5240   -1.6590   96.6500 C.3   458  LEU458      0.0001
    162  CD2       -4.1640   -0.7020   98.2950 C.3   458  LEU458      0.0001
    163  N         -9.6180   -5.6710   96.6910 N.3   460  GLU460     -0.1245
    164  CA       -10.8480   -6.2190   97.2290 C.3   460  GLU460      0.1567
    165  C        -11.9140   -5.1620   97.5570 C.2   460  GLU460      0.2260
    166  O        -11.6280   -3.9650   97.7250 O.2   460  GLU460     -0.2867
    167  CB       -10.6070   -7.1820   98.3980 C.3   460  GLU460      0.0388
    168  CG        -9.7690   -6.6430   99.5100 C.3   460  GLU460      0.1160
    169  CD        -9.3300   -7.7490  100.4580 C.2   460  GLU460      0.3649
    170  OE1       -8.8750   -8.8080   99.9630 O.co2 460  GLU460     -0.2457
    171  OE2       -9.4500   -7.5680  101.6960 O.co2 460  GLU460     -0.2457
    172  N        -12.6090    0.4100   92.6270 N.3   464  ASN464     -0.1225
    173  CA       -11.8350    1.5650   93.0750 C.3   464  ASN464      0.1785
    174  C        -10.7910    1.9360   92.0110 C.2   464  ASN464      0.2597
    175  O        -10.7450    1.3000   90.9260 O.2   464  ASN464     -0.2718
    176  CB       -11.1930    1.2970   94.4410 C.3   464  ASN464      0.1169
    177  CG       -10.2540    0.1190   94.4030 C.2   464  ASN464      0.2627
    178  OD1       -9.5100   -0.0430   93.4450 O.2   464  ASN464     -0.2716
    179  ND2      -10.3240   -0.7380   95.4060 N.am  464  ASN464     -0.0877
    180  N        -10.0060    2.9840   92.2930 N.am  465  TRP465     -0.1962
    181  CA        -8.9290    3.4130   91.4140 C.3   465  TRP465      0.1771
    182  C         -8.1310    2.2020   90.9060 C.2   465  TRP465      0.2619
    183  O         -7.8290    2.0810   89.7330 O.2   465  TRP465     -0.2715
    184  CB        -7.9490    4.3590   92.1410 C.3   465  TRP465      0.0590
    185  CG        -8.5720    5.5390   92.8790 C.ar  465  TRP465      0.0006
    186  CD1       -8.6510    5.7200   94.2460 C.ar  465  TRP465      0.0946
    187  CD2       -9.1800    6.6910   92.2930 C.ar  465  TRP465      0.0152
    188  NE1       -9.2660    6.9210   94.5280 N.ar  465  TRP465     -0.2442
    189  CE2       -9.6020    7.5330   93.3520 C.ar  465  TRP465      0.0810
    190  CE3       -9.4070    7.0990   90.9750 C.ar  465  TRP465      0.0012
    191  CZ2      -10.2580    8.7490   93.1310 C.ar  465  TRP465      0.0191
    192  CZ3      -10.0670    8.3040   90.7570 C.ar  465  TRP465      0.0001
    193  CH2      -10.4790    9.1150   91.8310 C.ar  465  TRP465      0.0015
    194  N         -7.8090    1.2770   91.7730 N.am  466  HIS466     -0.1973
    195  CA        -6.8600    0.2670   91.3700 C.3   466  HIS466      0.1656
    196  C         -7.4180   -0.6590   90.3380 C.2   466  HIS466      0.2291
    197  O         -6.6550   -1.1550   89.5130 O.2   466  HIS466     -0.2864
    198  CB        -6.3780   -0.5150   92.5720 C.3   466  HIS466      0.0771
    199  CG        -5.7970    0.3540   93.6280 C.ar  466  HIS466      0.0820
    200  ND1       -4.4710    0.7510   93.6210 N.ar  466  HIS466     -0.2267
    201  CD2       -6.3720    0.9520   94.6960 C.ar  466  HIS466      0.1154
    202  CE1       -4.2480    1.5280   94.6690 C.ar  466  HIS466      0.1986
    203  NE2       -5.3840    1.6630   95.3390 N.ar  466  HIS466     -0.2212
@<TRIPOS>BOND
     1    81    80    2
     2    80    79    1
     3    79    82    1
     4    79    78    1
     5    72    71    2
     6   197   196    2
     7    82    83    1
     8   183   182    2
     9    78    71   am
    10    71    70    1
    11   196   195    1
    12   192   190   ar
    13   192   193   ar
    14   182   181    1
    15   182   194   am
    16   175   174    2
    17    69    70    1
    18   190   187   ar
    19    70    73    1
    20    83    85   ar
    21    83    84   ar
    22    85    87   ar
    23   144   143   ar
    24   144   142   ar
    25   195   194    1
    26   195   198    1
    27   181   184    1
    28   181   180    1
    29   143   141   ar
    30    48    49    1
    31   193   191   ar
    32    49    52    1
    33    49    50    1
    34   174   180   am
    35   174   173    1
    36   184   185    1
    37    54    53    1
    38   142   140   ar
    39    84    86   ar
    40   187   185   ar
    41   187   189   ar
    42    87    88   ar
    43    67    66    2
    44    73    74    1
    45   198   199    1
    46   172   173    1
    47    52    53    1
    48    51    50    2
    49   141   138   ar
    50   121   120    1
    51   185   186   ar
    52    50    56   am
    53   173   176    1
    54   191   189   ar
    55    66    65    1
    56    53    55    1
    57   189   188   ar
    58    74    75    1
    59   178   177    2
    60    86    88   ar
    61   140   138   ar
    62   140   139   ar
    63   200   199   ar
    64   200   202   ar
    65   199   201   ar
    66    56    57    1
    67   138   136   ar
    68     7     6    1
    69     7     8    1
    70    11     9    1
    71   186   188   ar
    72    58    57    1
    73    58    59    2
    74   120   122    1
    75   120   119    1
    76   177   176    1
    77   177   179   am
    78     6     5    1
    79    65    64    1
    80    65    68    1
    81   202   203   ar
    82   201   203   ar
    83   139   137   ar
    84    57    60    1
    85    75    76    1
    86    76    77    1
    87     8     9    2
    88     1     2    1
    89     9    10    1
    90   119   116    1
    91   136   137   ar
    92   136   135    1
    93     5     2    1
    94   158   157    2
    95     2     3    1
    96   135   132    1
    97    60    61    1
    98    89    90    1
    99   157   156    1
   100   132   131    1
   101   132   133    1
   102   159   156    1
   103   159   160    1
   104   134   133    2
   105   161   160    1
   106   163   164    1
   107   116   115    1
   108   116   117    1
   109    63    61   ar
   110    90    91    1
   111    96    95    2
   112   126   125    2
   113   131   125   am
   114    61    62   ar
   115     4     3    2
   116   115   111   am
   117     3    12   am
   118   133   145   am
   119   164   165    1
   120   164   167    1
   121   123   117   am
   122   123   124    1
   123   156   155    1
   124   125   124    1
   125   117   118    2
   126    92    91    2
   127   160   162    1
   128    91    93   am
   129   165   166    2
   130   155   147   am
   131    95    94    1
   132   124   127    1
   133    32    31   ar
   134    32    30   ar
   135    93    94    1
   136    12    13    1
   137    31    29   ar
   138   167   168    1
   139   114   113    1
   140   127   128    1
   141   111   110    1
   142   111   112    2
   143   145   146    1
   144   147   148    2
   145   147   146    1
   146    94    97    1
   147   110   113    1
   148   110   109    1
   149   107   106    2
   150    30    28   ar
   151   146   149    1
   152    13    14    1
   153    13    16    1
   154    29    28   ar
   155   168   169    1
   156   128   129   ar
   157   128   130   ar
   158    15    14    2
   159    14    23   am
   160    19    18    1
   161    19    20    2
   162    28    27    1
   163   170   169   ar
   164   106   109   am
   165   106   105    1
   166    18    17    1
   167    97    98    1
   168    23    24    1
   169    17    16    1
   170   169   171   ar
   171    22    20    1
   172    24    27    1
   173    24    25    1
   174   149   150    1
   175    20    21    1
   176   151   150   ar
   177   151   153   ar
   178   150   152   ar
   179    98    99    1
   180   104   105    1
   181   153   154   ar
   182   152   154   ar
   183   105   108    1
   184    38    37    1
   185    25    33   am
   186    25    26    2
   187   100    99    1
   188   100   101    2
   189    33    34    1
   190   103   101    1
   191    37    34    1
   192    37    39    1
   193   101   102    1
   194    34    35    1
   195    43    42    2
   196    42    41    1
   197    46    45    2
   198    41    40    1
   199    41    44    1
   200    35    36    2
   201    45    47   am
   202    45    44    1
