@<TRIPOS>MOLECULE
tmp/4lpgA00.pdb
 137 129 0 0 0
SMALL
GASTEIGER

@<TRIPOS>ATOM
      1  N         -6.4950   75.5070   22.8560 N.3     3  TYR3       -0.1241
      2  CA        -5.2560   75.5240   22.0580 C.3     3  TYR3        0.1605
      3  C         -5.3170   74.6720   20.7700 C.2     3  TYR3        0.2264
      4  O         -4.9270   75.1740   19.7030 O.2     3  TYR3       -0.2867
      5  CB        -4.0520   75.0920   22.9360 C.3     3  TYR3        0.0534
      6  CG        -3.6420   76.1310   23.9870 C.ar    3  TYR3       -0.0201
      7  CD1       -4.4250   76.3720   25.1270 C.ar    3  TYR3       -0.0009
      8  CD2       -2.4580   76.8900   23.8280 C.ar    3  TYR3       -0.0009
      9  CE1       -4.0450   77.3380   26.0640 C.ar    3  TYR3        0.0417
     10  CE2       -2.0830   77.8430   24.7480 C.ar    3  TYR3        0.0417
     11  CZ        -2.8690   78.0760   25.8500 C.ar    3  TYR3        0.1957
     12  OH        -2.4490   79.0090   26.7460 O.3     3  TYR3       -0.2866
     13  N          7.9970   72.7360   17.5550 N.3    48  GLY48      -0.1210
     14  CA         7.6070   72.6230   18.9740 C.3    48  GLY48       0.1956
     15  C          6.1070   72.6180   19.0290 C.2    48  GLY48       0.2611
     16  O          5.5050   72.4860   18.0050 O.2    48  GLY48      -0.2717
     17  N          5.5150   72.8370   20.2000 N.am   49  LYS49      -0.1979
     18  CA         4.0680   72.9070   20.3640 C.3    49  LYS49       0.1596
     19  C          3.4600   74.3070   20.2360 C.2    49  LYS49       0.2287
     20  O          2.2580   74.4700   20.2320 O.2    49  LYS49      -0.2864
     21  CB         3.7030   72.3900   21.7320 C.3    49  LYS49       0.0298
     22  CG         4.3780   71.0700   22.0820 C.3    49  LYS49       0.0038
     23  CD         3.9300   69.9620   21.1540 C.3    49  LYS49       0.0206
     24  CE         4.8080   68.7200   21.4080 C.3    49  LYS49       0.1093
     25  NZ         4.3410   67.6600   20.4800 N.3    49  LYS49      -0.1314
     26  N          3.2220   76.6440   22.4050 N.3    51  ASN51      -0.1225
     27  CA         2.4240   77.0680   23.5310 C.3    51  ASN51       0.1785
     28  C          2.4260   78.5730   23.8180 C.2    51  ASN51       0.2597
     29  O          1.3790   79.1590   24.1510 O.2    51  ASN51      -0.2718
     30  CB         2.8300   76.2980   24.7380 C.3    51  ASN51       0.1169
     31  CG         2.4600   74.8160   24.6310 C.2    51  ASN51       0.2627
     32  OD1        1.3230   74.4680   24.2910 O.2    51  ASN51      -0.2716
     33  ND2        3.4340   73.9450   24.9130 N.am   51  ASN51      -0.0877
     34  N          3.5770   79.1990   23.6940 N.am   52  ARG52      -0.1979
     35  CA         3.7050   80.5940   24.0480 C.3    52  ARG52       0.1597
     36  C          2.9730   81.4520   23.0470 C.2    52  ARG52       0.2287
     37  O          2.2210   82.3900   23.4470 O.2    52  ARG52      -0.2864
     38  CB         5.1640   81.0040   24.1560 C.3    52  ARG52       0.0334
     39  CG         5.8380   80.2970   25.2980 C.3    52  ARG52       0.0492
     40  CD         7.3700   80.4370   25.2860 C.3    52  ARG52       0.2205
     41  NE         7.9660   79.7390   26.4210 N.pl3  52  ARG52      -0.0865
     42  CZ         7.9550   78.4200   26.5710 C.cat  52  ARG52       0.5346
     43  NH1        7.3580   77.6120   25.6860 N.pl3  52  ARG52       0.1354
     44  NH2        8.5440   77.8820   27.6070 N.pl3  52  ARG52       0.1354
     45  N         -0.7910   81.1710   23.1150 N.3    55  THR55      -0.1218
     46  CA        -1.3550   81.8590   24.2450 C.3    55  THR55       0.1862
     47  C         -1.7260   83.2510   23.8740 C.2    55  THR55       0.2287
     48  O         -2.7210   83.7600   24.3860 O.2    55  THR55      -0.2866
     49  CB        -0.3720   81.9080   25.4190 C.3    55  THR55       0.1770
     50  OG1       -0.1250   80.5740   25.8790 O.3    55  THR55      -0.2211
     51  CG2       -0.9440   82.6550   26.5700 C.3    55  THR55       0.0375
     52  N         14.9170   69.0390   20.7470 N.3   105  ARG105     -0.1245
     53  CA        13.7400   68.2720   20.2990 C.3   105  ARG105      0.1563
     54  C         14.1670   67.0540   19.4830 C.2   105  ARG105      0.2260
     55  O         13.6560   66.8280   18.3820 O.2   105  ARG105     -0.2867
     56  CB        12.7710   69.1200   19.4380 C.3   105  ARG105      0.0307
     57  CG        12.0880   70.2960   20.1200 C.3   105  ARG105      0.0489
     58  CD        11.8520   71.4060   19.0860 C.3   105  ARG105      0.2205
     59  NE        11.5230   72.7050   19.6940 N.pl3 105  ARG105     -0.0865
     60  CZ        11.7020   73.9040   19.1230 C.cat 105  ARG105      0.5346
     61  NH1       12.2280   74.0170   17.9000 N.pl3 105  ARG105      0.1354
     62  NH2       11.3310   75.0020   19.7770 N.pl3 105  ARG105      0.1354
     63  N          7.9930   83.7050   28.8490 N.3   197  SER197     -0.1202
     64  CA         7.1830   82.5000   28.6420 C.3   197  SER197      0.2020
     65  C          5.7600   82.7480   29.0770 C.2   197  SER197      0.2618
     66  O          4.7940   82.3450   28.4040 O.2   197  SER197     -0.2717
     67  CB         7.7910   81.2950   29.3810 C.3   197  SER197      0.2103
     68  OG         9.0270   80.9280   28.7460 O.3   197  SER197     -0.2182
     69  N          5.6180   83.4550   30.1840 N.am  198  PHE198     -0.1975
     70  CA         4.3120   83.6450   30.7780 C.3   198  PHE198      0.1639
     71  C          3.8110   85.0690   30.7740 C.2   198  PHE198      0.2290
     72  O          2.6540   85.3210   30.4000 O.2   198  PHE198     -0.2864
     73  CB         4.3240   83.0650   32.1830 C.3   198  PHE198      0.0560
     74  CG         4.3570   81.5990   32.1480 C.ar  198  PHE198     -0.0200
     75  CD1        5.5680   80.9120   32.2000 C.ar  198  PHE198     -0.0042
     76  CD2        3.1810   80.8920   31.9370 C.ar  198  PHE198     -0.0042
     77  CE1        5.5930   79.5530   32.0690 C.ar  198  PHE198     -0.0003
     78  CE2        3.2030   79.5140   31.8590 C.ar  198  PHE198     -0.0003
     79  CZ         4.4110   78.8580   31.9160 C.ar  198  PHE198     -0.0000
     80  N          3.3240   86.7530   26.5840 N.2   201  PRO201     -0.2584
     81  CA         2.2430   86.4910   25.6300 C.3   201  PRO201      0.1895
     82  C          0.8940   87.0260   26.0130 C.2   201  PRO201      0.2359
     83  O          0.0940   87.3600   25.1290 O.2   201  PRO201     -0.2858
     84  CB         2.1790   84.9510   25.5510 C.2   201  PRO201      0.0071
     85  CG         3.3130   84.4230   26.3210 C.2   201  PRO201      0.0180
     86  CD         3.9440   85.5240   27.1080 C.2   201  PRO201      0.0937
     87  N          6.2810   76.4260   36.8100 N.3   231  PHE231     -0.1241
     88  CA         6.4980   75.6860   35.5880 C.3   231  PHE231      0.1605
     89  C          7.9490   75.2050   35.4960 C.2   231  PHE231      0.2264
     90  O          8.2360   74.1010   35.0660 O.2   231  PHE231     -0.2867
     91  CB         6.2710   76.6190   34.4200 C.3   231  PHE231      0.0534
     92  CG         6.5260   75.9970   33.1180 C.ar  231  PHE231     -0.0203
     93  CD1        5.6220   75.1100   32.5760 C.ar  231  PHE231     -0.0042
     94  CD2        7.6740   76.2550   32.4500 C.ar  231  PHE231     -0.0042
     95  CE1        5.8400   74.5370   31.3440 C.ar  231  PHE231     -0.0003
     96  CE2        7.9220   75.6550   31.2320 C.ar  231  PHE231     -0.0003
     97  CZ         7.0030   74.8160   30.6800 C.ar  231  PHE231     -0.0000
     98  N          9.5550   71.4360   35.6560 N.3   235  ASP235     -0.1239
     99  CA        10.5620   70.9460   34.6740 C.3   235  ASP235      0.1674
    100  C         11.7980   70.3080   35.3240 C.2   235  ASP235      0.2266
    101  O         12.2530   69.2670   34.8880 O.2   235  ASP235     -0.2867
    102  CB        11.0750   72.0870   33.7880 C.3   235  ASP235      0.1410
    103  CG        10.3940   72.1410   32.4390 C.2   235  ASP235      0.3668
    104  OD1        9.3180   71.5260   32.2600 O.co2 235  ASP235     -0.2456
    105  OD2       10.9510   72.8090   31.5420 O.co2 235  ASP235     -0.2456
    106  N          7.1500   61.6460   29.5000 N.3   247  THR247     -0.1218
    107  CA         7.7920   62.9860   29.5030 C.3   247  THR247      0.1862
    108  C          8.4190   63.4450   28.1820 C.2   247  THR247      0.2287
    109  O          8.0030   64.4580   27.6200 O.2   247  THR247     -0.2866
    110  CB         8.9210   63.0730   30.5700 C.3   247  THR247      0.1770
    111  OG1        9.8710   62.0090   30.3840 O.3   247  THR247     -0.2211
    112  CG2        8.3460   62.9990   31.9770 C.3   247  THR247      0.0375
    113  N         -4.1560   78.7270   31.3970 N.3   336  LEU336     -0.1245
    114  CA        -2.7480   78.5020   31.6050 C.3   336  LEU336      0.1561
    115  C         -2.4870   77.5740   32.7850 C.2   336  LEU336      0.2260
    116  O         -1.7420   76.5910   32.6560 O.2   336  LEU336     -0.2867
    117  CB        -1.9970   79.7940   31.7810 C.3   336  LEU336      0.0270
    118  CG        -1.7960   80.6610   30.5530 C.3   336  LEU336      0.0019
    119  CD1       -1.0650   81.8840   31.0540 C.3   336  LEU336      0.0001
    120  CD2       -0.9510   79.9890   29.4760 C.3   336  LEU336      0.0001
    121  N         -3.0760   74.0040   31.8770 N.3   339  LYS339     -0.1231
    122  CA        -2.0790   73.4170   31.0330 C.3   339  LYS339      0.1693
    123  C         -0.8040   73.0540   31.8280 C.2   339  LYS339      0.2591
    124  O         -0.1340   72.0650   31.5510 O.2   339  LYS339     -0.2718
    125  CB        -1.6960   74.4040   29.9610 C.3   339  LYS339      0.0285
    126  CG        -2.6930   74.5050   28.8490 C.3   339  LYS339      0.0035
    127  CD        -1.9730   74.5840   27.5160 C.3   339  LYS339      0.0206
    128  CE        -2.4030   73.4020   26.6390 C.3   339  LYS339      0.1093
    129  NZ        -1.3330   73.0020   25.6900 N.3   339  LYS339     -0.1314
    130  N         -0.4490   73.8540   32.8110 N.am  340  ILE340     -0.1980
    131  CA         0.7660   73.5450   33.5280 C.3   340  ILE340      0.1595
    132  C          0.6370   72.6350   34.7750 C.2   340  ILE340      0.2287
    133  O          1.6400   72.0740   35.1980 O.2   340  ILE340     -0.2864
    134  CB         1.5780   74.8220   33.7940 C.3   340  ILE340      0.0276
    135  CG1        1.0130   75.6680   34.8880 C.3   340  ILE340      0.0022
    136  CG2        1.6830   75.6750   32.5170 C.3   340  ILE340      0.0022
    137  CD1        1.8360   76.9200   35.0710 C.3   340  ILE340      0.0001
@<TRIPOS>BOND
     1    13    14    1
     2    61    60    1
     3    16    15    2
     4    55    54    2
     5    14    15    1
     6    15    17   am
     7    58    59    1
     8    58    57    1
     9    60    59    2
    10    60    62    1
    11    56    57    1
    12    56    53    1
    13    54    53    1
    14     4     3    2
    15    17    18    1
    16    20    19    2
    17    19    18    1
    18    53    52    1
    19    18    21    1
    20    25    24    1
    21     3     2    1
    22    23    24    1
    23    23    22    1
    24    21    22    1
    25     2     1    1
    26     2     5    1
    27    26    27    1
    28     5     6    1
    29    36    37    2
    30    36    35    1
    31    45    46    1
    32    27    28    1
    33    27    30    1
    34    34    28   am
    35    34    35    1
    36    28    29    2
    37     8     6   ar
    38     8    10   ar
    39    47    46    1
    40    47    48    2
    41     6     7   ar
    42    35    38    1
    43    38    39    1
    44    46    49    1
    45    32    31    2
    46    31    30    1
    47    31    33   am
    48    10    11   ar
    49     7     9   ar
    50    83    82    2
    51    40    39    1
    52    40    41    1
    53    49    50    1
    54    49    51    1
    55    84    81    1
    56    84    85    2
    57    81    82    1
    58    81    80    1
    59    43    42    1
    60   129   128    1
    61    11     9   ar
    62    11    12    1
    63    85    86    1
    64    41    42    2
    65    42    44    1
    66    80    86    2
    67   128   127    1
    68   127   126    1
    69   109   108    2
    70   108   107    1
    71    66    65    2
    72    64    63    1
    73    64    65    1
    74    64    67    1
    75    68    67    1
    76   126   125    1
    77    65    69   am
    78   120   118    1
    79   106   107    1
    80   107   110    1
    81   125   122    1
    82    69    70    1
    83   111   110    1
    84    72    71    2
    85   118   119    1
    86   118   117    1
    87   110   112    1
    88    97    96   ar
    89    97    95   ar
    90    71    70    1
    91    70    73    1
    92   122   123    1
    93   122   121    1
    94    96    94   ar
    95    95    93   ar
    96   113   114    1
    97   105   103   ar
    98   124   123    2
    99   114   117    1
   100   114   115    1
   101   123   130   am
   102    78    79   ar
   103    78    76   ar
   104    79    77   ar
   105    76    74   ar
   106    77    75   ar
   107    74    73    1
   108    74    75   ar
   109   104   103   ar
   110   103   102    1
   111    94    92   ar
   112   136   134    1
   113    93    92   ar
   114   116   115    2
   115   130   131    1
   116    92    91    1
   117   131   134    1
   118   131   132    1
   119   102    99    1
   120   134   135    1
   121    91    88    1
   122    99   100    1
   123    99    98    1
   124   132   133    2
   125   101   100    2
   126   135   137    1
   127    90    89    2
   128    89    88    1
   129    88    87    1
