@<TRIPOS>MOLECULE
tmp/4lphA00.pdb
 128 121 0 0 0
SMALL
GASTEIGER

@<TRIPOS>ATOM
      1  N         -6.4270   75.5400   22.8140 N.3     3  TYR3       -0.1241
      2  CA        -5.2010   75.6060   22.0160 C.3     3  TYR3        0.1605
      3  C         -5.2760   74.7680   20.7190 C.2     3  TYR3        0.2264
      4  O         -4.9880   75.3060   19.6440 O.2     3  TYR3       -0.2867
      5  CB        -3.9790   75.2110   22.8830 C.3     3  TYR3        0.0534
      6  CG        -3.5940   76.2760   23.9050 C.ar    3  TYR3       -0.0201
      7  CD1       -4.4700   76.6510   24.9410 C.ar    3  TYR3       -0.0009
      8  CD2       -2.3570   76.9360   23.8310 C.ar    3  TYR3       -0.0009
      9  CE1       -4.1190   77.6360   25.8670 C.ar    3  TYR3        0.0417
     10  CE2       -2.0030   77.9070   24.7540 C.ar    3  TYR3        0.0417
     11  CZ        -2.8830   78.2650   25.7540 C.ar    3  TYR3        0.1957
     12  OH        -2.5150   79.2210   26.6510 O.3     3  TYR3       -0.2866
     13  N          8.2220   73.1160   17.5040 N.3    49  GLY49      -0.1210
     14  CA         7.8440   73.0780   18.9130 C.3    49  GLY49       0.1956
     15  C          6.3490   72.9600   19.0110 C.2    49  GLY49       0.2611
     16  O          5.7190   72.7030   18.0250 O.2    49  GLY49      -0.2717
     17  N          5.7830   73.2140   20.1900 N.am   50  LYS50      -0.1979
     18  CA         4.3500   73.1500   20.4110 C.3    50  LYS50       0.1596
     19  C          3.6520   74.5060   20.2320 C.2    50  LYS50       0.2287
     20  O          2.4550   74.5810   20.1720 O.2    50  LYS50      -0.2864
     21  CB         4.0990   72.6320   21.8190 C.3    50  LYS50       0.0298
     22  CG         4.7570   71.2690   22.1750 C.3    50  LYS50       0.0038
     23  CD         4.4360   70.2070   21.1860 C.3    50  LYS50       0.0206
     24  CE         5.1620   68.8980   21.4150 C.3    50  LYS50       0.1093
     25  NZ         6.6560   69.0590   21.2180 N.3    50  LYS50      -0.1314
     26  N          3.2890   76.9350   22.3520 N.3    52  ASN52      -0.1225
     27  CA         2.4520   77.3290   23.4750 C.3    52  ASN52       0.1785
     28  C          2.4400   78.8660   23.7400 C.2    52  ASN52       0.2597
     29  O          1.4030   79.4540   24.0450 O.2    52  ASN52      -0.2718
     30  CB         2.8610   76.5520   24.7240 C.3    52  ASN52       0.1169
     31  CG         2.4650   75.0570   24.6550 C.2    52  ASN52       0.2627
     32  OD1        1.3650   74.7150   24.2650 O.2    52  ASN52      -0.2716
     33  ND2        3.3790   74.1800   25.0430 N.am   52  ASN52      -0.0877
     34  N          3.5660   79.5120   23.5930 N.am   53  ARG53      -0.1979
     35  CA         3.6620   80.9250   23.9190 C.3    53  ARG53       0.1597
     36  C          2.9470   81.7610   22.8770 C.2    53  ARG53       0.2287
     37  O          2.2010   82.7180   23.2230 O.2    53  ARG53      -0.2864
     38  CB         5.1180   81.3510   24.1140 C.3    53  ARG53       0.0334
     39  CG         5.8020   80.5360   25.2000 C.3    53  ARG53       0.0492
     40  CD         7.3420   80.6370   25.1870 C.3    53  ARG53       0.2205
     41  NE         7.9940   79.9560   26.3390 N.pl3  53  ARG53      -0.0865
     42  CZ         8.0710   78.6360   26.4780 C.cat  53  ARG53       0.5346
     43  NH1        7.5030   77.8370   25.5740 N.pl3  53  ARG53       0.1354
     44  NH2        8.6750   78.0870   27.5430 N.pl3  53  ARG53       0.1354
     45  N         -0.7580   81.3880   23.0250 N.3    56  THR56      -0.1218
     46  CA        -1.3500   82.0860   24.1700 C.3    56  THR56       0.1862
     47  C         -1.7370   83.4810   23.7830 C.2    56  THR56       0.2287
     48  O         -2.7900   83.9430   24.2210 O.2    56  THR56      -0.2866
     49  CB        -0.3680   82.1270   25.3550 C.3    56  THR56       0.1770
     50  OG1       -0.2120   80.7860   25.8050 O.3    56  THR56      -0.2211
     51  CG2       -0.9180   82.9270   26.4880 C.3    56  THR56       0.0375
     52  N          7.9860   83.8700   28.8110 N.3   198  SER198     -0.1202
     53  CA         7.1770   82.6710   28.5690 C.3   198  SER198      0.2020
     54  C          5.7680   82.9220   29.0000 C.2   198  SER198      0.2618
     55  O          4.8610   82.5100   28.3440 O.2   198  SER198     -0.2717
     56  CB         7.7250   81.4850   29.3490 C.3   198  SER198      0.2103
     57  OG         9.0240   81.1530   28.8220 O.3   198  SER198     -0.2182
     58  N          5.5920   83.6480   30.0930 N.am  199  PHE199     -0.1975
     59  CA         4.2690   83.8630   30.6620 C.3   199  PHE199      0.1639
     60  C          3.7440   85.2970   30.6730 C.2   199  PHE199      0.2290
     61  O          2.5670   85.4970   30.3850 O.2   199  PHE199     -0.2864
     62  CB         4.2310   83.3170   32.1050 C.3   199  PHE199      0.0560
     63  CG         4.2690   81.8620   32.1310 C.ar  199  PHE199     -0.0200
     64  CD1        5.4880   81.1930   32.2230 C.ar  199  PHE199     -0.0042
     65  CD2        3.0960   81.1430   31.9820 C.ar  199  PHE199     -0.0042
     66  CE1        5.5410   79.8370   32.1440 C.ar  199  PHE199     -0.0003
     67  CE2        3.1350   79.7640   31.9610 C.ar  199  PHE199     -0.0003
     68  CZ         4.3610   79.1170   32.0380 C.ar  199  PHE199     -0.0000
     69  N          3.2960   86.9010   26.6460 N.3   202  PRO202     -0.2116
     70  CA         2.2040   86.7150   25.6560 C.3   202  PRO202      0.1372
     71  C          0.8290   87.2510   26.0760 C.2   202  PRO202      0.2244
     72  O          0.0830   87.6960   25.2310 O.2   202  PRO202     -0.2868
     73  CB         2.1440   85.1930   25.4500 C.3   202  PRO202      0.0268
     74  CG         3.1580   84.5770   26.4100 C.3   202  PRO202      0.0207
     75  CD         4.1080   85.6760   26.8050 C.3   202  PRO202      0.0892
     76  N          6.1620   76.5710   36.5960 N.3   232  PHE232     -0.1241
     77  CA         6.3850   75.7990   35.3650 C.3   232  PHE232      0.1605
     78  C          7.8330   75.2900   35.3140 C.2   232  PHE232      0.2264
     79  O          8.1190   74.1400   35.0060 O.2   232  PHE232     -0.2867
     80  CB         6.1900   76.7330   34.1900 C.3   232  PHE232      0.0534
     81  CG         6.3800   76.0790   32.8680 C.ar  232  PHE232     -0.0203
     82  CD1        5.4480   75.1940   32.3930 C.ar  232  PHE232     -0.0042
     83  CD2        7.4990   76.3500   32.1040 C.ar  232  PHE232     -0.0042
     84  CE1        5.6210   74.5870   31.1730 C.ar  232  PHE232     -0.0003
     85  CE2        7.6690   75.7530   30.8850 C.ar  232  PHE232     -0.0003
     86  CZ         6.7270   74.8740   30.4220 C.ar  232  PHE232     -0.0000
     87  N          9.5750   71.7340   35.5300 N.3   236  ASP236     -0.1239
     88  CA        10.5260   71.2990   34.4940 C.3   236  ASP236      0.1674
     89  C         11.7700   70.5880   35.1050 C.2   236  ASP236      0.2266
     90  O         12.1980   69.5560   34.6370 O.2   236  ASP236     -0.2867
     91  CB        10.9460   72.5100   33.6670 C.3   236  ASP236      0.1410
     92  CG        10.7080   72.3100   32.1830 C.2   236  ASP236      0.3668
     93  OD1        9.5710   72.5460   31.7150 O.co2 236  ASP236     -0.2456
     94  OD2       11.6780   71.9180   31.4900 O.co2 236  ASP236     -0.2456
     95  N         12.3900   63.7020   26.2020 N.3   250  LYS250     -0.1245
     96  CA        13.6960   64.1190   26.7290 C.3   250  LYS250      0.1561
     97  C         14.2220   63.1610   27.8180 C.2   250  LYS250      0.2260
     98  O         13.5230   62.2450   28.2630 O.2   250  LYS250     -0.2867
     99  CB        13.6160   65.5500   27.2830 C.3   250  LYS250      0.0271
    100  CG        12.7060   65.7280   28.4470 C.3   250  LYS250      0.0035
    101  CD        12.9280   67.1110   29.0680 C.3   250  LYS250      0.0206
    102  CE        11.8430   67.3050   30.0920 C.3   250  LYS250      0.1093
    103  NZ        12.1510   68.5490   30.8390 N.3   250  LYS250     -0.1314
    104  N         -4.2890   78.8960   31.3200 N.3   337  LEU337     -0.1245
    105  CA        -2.8740   78.6430   31.4520 C.3   337  LEU337      0.1561
    106  C         -2.6050   77.7250   32.6340 C.2   337  LEU337      0.2260
    107  O         -1.8750   76.7440   32.5140 O.2   337  LEU337     -0.2867
    108  CB        -2.1020   79.9180   31.6380 C.3   337  LEU337      0.0270
    109  CG        -1.8170   80.7920   30.4440 C.3   337  LEU337      0.0019
    110  CD1       -1.1400   82.0380   30.9930 C.3   337  LEU337      0.0001
    111  CD2       -0.8730   80.0890   29.4740 C.3   337  LEU337      0.0001
    112  N         -3.1230   74.1130   31.5140 N.3   340  LYS340     -0.1231
    113  CA        -2.0500   73.5460   30.7390 C.3   340  LYS340      0.1693
    114  C         -0.8660   73.1670   31.6430 C.2   340  LYS340      0.2591
    115  O         -0.3130   72.0730   31.5620 O.2   340  LYS340     -0.2718
    116  CB        -1.5960   74.5330   29.6750 C.3   340  LYS340      0.0285
    117  CG        -2.6180   74.7360   28.5790 C.3   340  LYS340      0.0035
    118  CD        -1.9530   74.6940   27.2140 C.3   340  LYS340      0.0206
    119  CE        -2.6630   73.7010   26.2920 C.3   340  LYS340      0.1093
    120  NZ        -1.6890   72.9250   25.4840 N.3   340  LYS340     -0.1314
    121  N         -0.5120   74.0390   32.5630 N.am  341  ILE341     -0.1980
    122  CA         0.6630   73.7500   33.3700 C.3   341  ILE341      0.1595
    123  C          0.4830   72.8420   34.6280 C.2   341  ILE341      0.2287
    124  O          1.4680   72.4030   35.1900 O.2   341  ILE341     -0.2864
    125  CB         1.4520   75.0590   33.6290 C.3   341  ILE341      0.0276
    126  CG1        0.8820   75.8830   34.7720 C.3   341  ILE341      0.0022
    127  CG2        1.5300   75.8780   32.3160 C.3   341  ILE341      0.0022
    128  CD1        1.5800   77.2170   34.9110 C.3   341  ILE341      0.0001
@<TRIPOS>BOND
     1    13    14    1
     2    16    15    2
     3    14    15    1
     4    15    17   am
     5     4     3    2
     6    20    19    2
     7    17    18    1
     8    19    18    1
     9    18    21    1
    10     3     2    1
    11    23    24    1
    12    23    22    1
    13    25    24    1
    14    21    22    1
    15     2     1    1
    16     2     5    1
    17    26    27    1
    18    36    37    2
    19    36    35    1
    20     5     6    1
    21    45    46    1
    22    27    28    1
    23    27    30    1
    24    34    28   am
    25    34    35    1
    26    28    29    2
    27    47    46    1
    28    47    48    2
    29     8     6   ar
    30     8    10   ar
    31     6     7   ar
    32    35    38    1
    33    38    39    1
    34    46    49    1
    35    32    31    2
    36    31    30    1
    37    31    33   am
    38    10    11   ar
    39     7     9   ar
    40    40    39    1
    41    40    41    1
    42    72    71    2
    43    49    50    1
    44    49    51    1
    45    73    70    1
    46    73    74    1
    47   120   119    1
    48    43    42    1
    49    70    71    1
    50    70    69    1
    51    11     9   ar
    52    11    12    1
    53    95    96    1
    54   119   118    1
    55    41    42    2
    56    74    75    1
    57    42    44    1
    58    69    75    1
    59    96    99    1
    60    96    97    1
    61   118   117    1
    62    99   100    1
    63    97    98    2
    64    55    54    2
    65   100   101    1
    66    53    52    1
    67    53    54    1
    68    53    56    1
    69   117   116    1
    70    57    56    1
    71    54    58   am
    72   101   102    1
    73   111   109    1
    74   116   113    1
    75   102   103    1
    76    58    59    1
    77    61    60    2
    78    86    85   ar
    79    86    84   ar
    80   109   110    1
    81   109   108    1
    82    59    60    1
    83    59    62    1
    84   113   112    1
    85   113   114    1
    86    85    83   ar
    87    84    82   ar
    88   104   105    1
    89   105   108    1
    90   105   106    1
    91    94    92   ar
    92   115   114    2
    93   114   121   am
    94    93    92   ar
    95    67    65   ar
    96    67    68   ar
    97    65    63   ar
    98    68    66   ar
    99    83    81   ar
   100    62    63    1
   101    63    64   ar
   102    66    64   ar
   103    92    91    1
   104   127   125    1
   105    82    81   ar
   106   107   106    2
   107   121   122    1
   108    81    80    1
   109   122   125    1
   110   122   123    1
   111   125   126    1
   112    91    88    1
   113    80    77    1
   114    88    89    1
   115    88    87    1
   116   123   124    2
   117    90    89    2
   118   126   128    1
   119    79    78    2
   120    78    77    1
   121    77    76    1
