@<TRIPOS>MOLECULE
tmp/4lpsB01.pdb
 132 126 0 0 0
SMALL
GASTEIGER

@<TRIPOS>ATOM
      1  N         11.2590  -12.1710    9.5140 N.3    28  PRO28      -0.2102
      2  CA        11.1880  -11.3530   10.7270 C.3    28  PRO28       0.1504
      3  C         10.0860  -10.3000   10.6210 C.2    28  PRO28       0.2576
      4  O         10.0010   -9.6210    9.5940 O.2    28  PRO28      -0.2718
      5  CB        12.5710  -10.6950   10.7930 C.3    28  PRO28       0.0282
      6  CG        13.4610  -11.6090   10.0100 C.3    28  PRO28       0.0208
      7  CD        12.6040  -12.1580    8.9120 C.3    28  PRO28       0.0893
      8  N          9.2600  -10.1750   11.6570 N.am   29  GLY29      -0.1943
      9  CA         8.2530   -9.1290   11.7100 C.3    29  GLY29       0.2014
     10  C          6.9510   -9.3840   10.9720 C.2    29  GLY29       0.2640
     11  O          6.1480   -8.4670   10.8080 O.2    29  GLY29      -0.2714
     12  N          6.7290  -10.6170   10.5270 N.am   30  SER30      -0.1935
     13  CA         5.4860  -10.9560    9.8340 C.3    30  SER30       0.2055
     14  C          4.2650  -10.9800   10.7570 C.2    30  SER30       0.2644
     15  O          3.1310  -11.0080   10.2780 O.2    30  SER30      -0.2714
     16  CB         5.6190  -12.3040    9.1260 C.3    30  SER30       0.2130
     17  OG         6.5650  -12.2310    8.0740 O.3    30  SER30      -0.2179
     18  N          4.4910  -10.9890   12.0690 N.am   31  GLY31      -0.1939
     19  CA         3.3920  -10.9620   13.0220 C.3    31  GLY31       0.2014
     20  C          3.1850  -12.2190   13.8510 C.2    31  GLY31       0.2639
     21  O          2.1030  -12.4200   14.4020 O.2    31  GLY31      -0.2714
     22  N          4.2120  -13.0620   13.9470 N.am   32  LYS32      -0.1963
     23  CA         4.1150  -14.3130   14.7040 C.3    32  LYS32       0.1728
     24  C          3.7970  -14.1050   16.1860 C.2    32  LYS32       0.2617
     25  O          2.8490  -14.6950   16.7090 O.2    32  LYS32      -0.2715
     26  CB         5.4090  -15.1210   14.5730 C.3    32  LYS32       0.0311
     27  CG         5.7400  -15.5450   13.1560 C.3    32  LYS32       0.0038
     28  CD         6.9450  -16.4730   13.1270 C.3    32  LYS32       0.0206
     29  CE         8.2150  -15.7540   13.5420 C.3    32  LYS32       0.1093
     30  NZ         8.4060  -14.4680   12.8120 N.3    32  LYS32      -0.1314
     31  N          4.6010  -13.2880   16.8610 N.am   33  THR33      -0.1937
     32  CA         4.4300  -13.0700   18.2970 C.3    33  THR33       0.2028
     33  C          3.0780  -12.4310   18.6150 C.2    33  THR33       0.2642
     34  O          2.4090  -12.8170   19.5770 O.2    33  THR33      -0.2714
     35  CB         5.5570  -12.1810   18.8710 C.3    33  THR33       0.1808
     36  OG1        6.8250  -12.8200   18.6720 O.3    33  THR33      -0.2208
     37  CG2        5.3470  -11.9370   20.3610 C.3    33  THR33       0.0379
     38  N          2.6760  -11.4590   17.8020 N.am   34  THR34      -0.1950
     39  CA         1.3860  -10.8040   17.9870 C.3    34  THR34       0.1897
     40  C          0.2390  -11.8030   17.8390 C.2    34  THR34       0.2313
     41  O         -0.7160  -11.7850   18.6170 O.2    34  THR34      -0.2863
     42  CB         1.1920   -9.6480   16.9890 C.3    34  THR34       0.1794
     43  OG1        2.1910   -8.6440   17.2180 O.3    34  THR34      -0.2208
     44  CG2       -0.1880   -9.0280   17.1490 C.3    34  THR34       0.0378
     45  N         10.2300  -11.9720   23.2620 N.3    59  ASP59      -0.1239
     46  CA         8.9810  -12.6220   22.8890 C.3    59  ASP59       0.1674
     47  C          8.4630  -13.5670   23.9710 C.2    59  ASP59       0.2266
     48  O          7.2740  -13.5590   24.2870 O.2    59  ASP59      -0.2867
     49  CB         9.1540  -13.3780   21.5710 C.3    59  ASP59       0.1410
     50  CG         9.4350  -12.4530   20.4000 C.2    59  ASP59       0.3668
     51  OD1        8.9950  -11.2850   20.4490 O.co2  59  ASP59      -0.2456
     52  OD2       10.0870  -12.8920   19.4290 O.co2  59  ASP59      -0.2456
     53  N          6.9740  -11.6110   27.0100 N.3    62  ARG62      -0.1245
     54  CA         5.6750  -11.0710   26.6120 C.3    62  ARG62       0.1563
     55  C          4.5900  -12.1410   26.6550 C.2    62  ARG62       0.2260
     56  O          3.4590  -11.8820   27.0680 O.2    62  ARG62      -0.2867
     57  CB         5.7580  -10.4650   25.2070 C.3    62  ARG62       0.0307
     58  CG         6.3670   -9.0670   25.1510 C.3    62  ARG62       0.0489
     59  CD         6.7970   -8.7010   23.7320 C.3    62  ARG62       0.2205
     60  NE         5.6770   -8.6050   22.7980 N.pl3  62  ARG62      -0.0865
     61  CZ         5.8110   -8.3890   21.4910 C.cat  62  ARG62       0.5346
     62  NH1        7.0180   -8.2470   20.9590 N.pl3  62  ARG62       0.1354
     63  NH2        4.7380   -8.3180   20.7150 N.pl3  62  ARG62       0.1354
     64  N          7.6820  -21.2060   17.5640 N.3   108  GLU108     -0.1245
     65  CA         7.8840  -20.0050   16.7630 C.3   108  GLU108      0.1567
     66  C          9.3190  -19.9830   16.2680 C.2   108  GLU108      0.2260
     67  O         10.2510  -19.7570   17.0410 O.2   108  GLU108     -0.2867
     68  CB         7.5730  -18.7320   17.5560 C.3   108  GLU108      0.0388
     69  CG         7.5570  -17.4790   16.6810 C.3   108  GLU108      0.1160
     70  CD         7.4180  -16.1930   17.4700 C.2   108  GLU108      0.3649
     71  OE1        8.0760  -15.1980   17.1040 O.co2 108  GLU108     -0.2457
     72  OE2        6.6300  -16.1620   18.4350 O.co2 108  GLU108     -0.2457
     73  N         -0.8860  -12.4220    6.6650 N.3   155  SER155     -0.1202
     74  CA        -1.0230  -11.6810    7.9100 C.3   155  SER155      0.2020
     75  C         -1.0200  -10.1810    7.6510 C.2   155  SER155      0.2618
     76  O         -0.6520   -9.7350    6.5610 O.2   155  SER155     -0.2717
     77  CB         0.0900  -12.0590    8.8920 C.3   155  SER155      0.2103
     78  OG         1.3750  -11.8560    8.3400 O.3   155  SER155     -0.2182
     79  N         -1.4380   -9.4170    8.6590 N.am  156  LYS156     -0.1979
     80  CA        -1.6310   -7.9720    8.5420 C.3   156  LYS156      0.1596
     81  C         -2.5520   -7.6360    7.3680 C.2   156  LYS156      0.2287
     82  O         -2.2960   -6.7020    6.6070 O.2   156  LYS156     -0.2864
     83  CB        -0.2850   -7.2490    8.3970 C.3   156  LYS156      0.0298
     84  CG         0.7890   -7.7270    9.3700 C.3   156  LYS156      0.0038
     85  CD         2.0330   -6.8450    9.3080 C.3   156  LYS156      0.0206
     86  CE         3.1200   -7.3750   10.2300 C.3   156  LYS156      0.1093
     87  NZ         4.3240   -6.4980   10.2690 N.3   156  LYS156     -0.1314
     88  N         -5.2560   -6.2020    7.2760 N.3   158  ASP158     -0.1225
     89  CA        -5.7850   -4.8440    7.3530 C.3   158  ASP158      0.1805
     90  C         -5.0490   -3.8780    6.4160 C.2   158  ASP158      0.2597
     91  O         -5.5480   -2.7930    6.1160 O.2   158  ASP158     -0.2718
     92  CB        -5.7150   -4.3350    8.7950 C.3   158  ASP158      0.1424
     93  CG        -4.3280   -4.4750    9.3960 C.2   158  ASP158      0.3668
     94  OD1       -3.8710   -5.6220    9.5980 O.co2 158  ASP158     -0.2456
     95  OD2       -3.6970   -3.4330    9.6790 O.co2 158  ASP158     -0.2456
     96  N         -3.8650   -4.2790    5.9590 N.am  159  MET159     -0.1979
     97  CA        -3.0040   -3.4100    5.1590 C.3   159  MET159      0.1605
     98  C         -3.1150   -3.6380    3.6470 C.2   159  MET159      0.2287
     99  O         -2.3480   -3.0560    2.8760 O.2   159  MET159     -0.2864
    100  CB        -1.5480   -3.5880    5.5990 C.3   159  MET159      0.0413
    101  CG        -1.2570   -3.1100    7.0170 C.3   159  MET159      0.0598
    102  SD        -1.1070   -1.3170    7.1140 S.3   159  MET159     -0.1393
    103  CE        -1.6340   -1.0230    8.8020 C.3   159  MET159      0.0692
    104  N         -5.5830  -12.8970    7.7540 N.3   186  MET186     -0.1230
    105  CA        -5.5640  -12.6570    9.1910 C.3   186  MET186      0.1702
    106  C         -5.1270  -11.2380    9.5110 C.2   186  MET186      0.2593
    107  O         -4.2130  -10.7030    8.8850 O.2   186  MET186     -0.2718
    108  CB        -4.6440  -13.6570    9.8960 C.3   186  MET186      0.0401
    109  CG        -4.3060  -13.2680   11.3340 C.3   186  MET186      0.0596
    110  SD        -3.4340  -14.5350   12.2720 S.3   186  MET186     -0.1393
    111  CE        -4.4660  -15.9580   11.9300 C.3   186  MET186      0.0692
    112  N         -5.7940  -10.6320   10.4860 N.am  187  SER187     -0.1938
    113  CA        -5.3680   -9.3460   11.0200 C.3   187  SER187      0.2055
    114  C         -5.4940   -9.3180   12.5420 C.2   187  SER187      0.2644
    115  O         -6.4420   -9.8690   13.1040 O.2   187  SER187     -0.2714
    116  CB        -6.1850   -8.2140   10.3960 C.3   187  SER187      0.2130
    117  OG        -5.8590   -6.9680   10.9830 O.3   187  SER187     -0.2179
    118  N         -4.5240   -8.6900   13.2030 N.am  188  SER188     -0.1935
    119  CA        -4.5890   -8.4770   14.6450 C.3   188  SER188      0.2055
    120  C         -5.7690   -7.5790   15.0230 C.2   188  SER188      0.2642
    121  O         -6.1910   -7.5420   16.1800 O.2   188  SER188     -0.2714
    122  CB        -3.2820   -7.8660   15.1550 C.3   188  SER188      0.2130
    123  OG        -3.0300   -6.6150   14.5420 O.3   188  SER188     -0.2179
    124  N         -6.2910   -6.8580   14.0370 N.am  189  LYS189     -0.1977
    125  CA        -7.4150   -5.9530   14.2380 C.3   189  LYS189      0.1596
    126  C         -8.7380   -6.6640   13.9790 C.2   189  LYS189      0.2287
    127  O         -9.8100   -6.0710   14.0940 O.2   189  LYS189     -0.2864
    128  CB        -7.2820   -4.7400   13.3160 C.3   189  LYS189      0.0298
    129  CG        -6.0070   -3.9400   13.5330 C.3   189  LYS189      0.0038
    130  CD        -5.8860   -2.7980   12.5360 C.3   189  LYS189      0.0206
    131  CE        -4.7430   -1.8620   12.9090 C.3   189  LYS189      0.1093
    132  NZ        -4.1990   -1.1390   11.7200 N.3   189  LYS189     -0.1314
@<TRIPOS>BOND
     1    99    98    2
     2    98    97    1
     3    97   100    1
     4    97    96    1
     5   100   101    1
     6    96    90   am
     7    91    90    2
     8    90    89    1
     9    76    75    2
    10    82    81    2
    11    73    74    1
    12   101   102    1
    13   102   103    1
    14    88    89    1
    15    89    92    1
    16    81    80    1
    17    75    74    1
    18    75    79   am
    19   104   105    1
    20    74    77    1
    21    17    16    1
    22    78    77    1
    23    83    80    1
    24    83    84    1
    25    80    79    1
    26    92    93    1
    27   107   106    2
    28     7     1    1
    29     7     6    1
    30    16    13    1
    31   105   106    1
    32   105   108    1
    33    85    84    1
    34    85    86    1
    35    93    94   ar
    36    93    95   ar
    37   106   112   am
    38     1     2    1
    39     4     3    2
    40    13    12    1
    41    13    14    1
    42   108   109    1
    43     6     5    1
    44    86    87    1
    45    15    14    2
    46   116   117    1
    47   116   113    1
    48   112   113    1
    49    12    10   am
    50     3     2    1
    51     3     8   am
    52     2     5    1
    53    14    18   am
    54    11    10    2
    55    10     9    1
    56   113   114    1
    57   109   110    1
    58     8     9    1
    59   132   131    1
    60   111   110    1
    61    18    19    1
    62   130   131    1
    63   130   129    1
    64   114   115    2
    65   114   118   am
    66    30    29    1
    67    19    20    1
    68    28    27    1
    69    28    29    1
    70    27    26    1
    71   118   119    1
    72   128   129    1
    73   128   125    1
    74    20    22   am
    75    20    21    2
    76    22    23    1
    77   126   127    2
    78   126   125    1
    79   124   125    1
    80   124   120   am
    81   123   122    1
    82    26    23    1
    83   119   120    1
    84   119   122    1
    85    23    24    1
    86   120   121    2
    87    24    25    2
    88    24    31   am
    89    66    65    1
    90    66    67    2
    91    69    70    1
    92    69    68    1
    93    65    68    1
    94    65    64    1
    95    31    32    1
    96    42    44    1
    97    42    43    1
    98    42    39    1
    99    71    70   ar
   100    70    72   ar
   101    38    39    1
   102    38    33   am
   103    40    39    1
   104    40    41    2
   105    32    33    1
   106    32    35    1
   107    33    34    2
   108    36    35    1
   109    35    37    1
   110    52    50   ar
   111    50    51   ar
   112    50    49    1
   113    63    61    1
   114    62    61    1
   115    61    60    2
   116    49    46    1
   117    60    59    1
   118    46    45    1
   119    46    47    1
   120    59    58    1
   121    47    48    2
   122    58    57    1
   123    57    54    1
   124    54    55    1
   125    54    53    1
   126    55    56    2
