@<TRIPOS>MOLECULE
tmp/4lq1A00.pdb
 98 98 0 0 0
SMALL
GASTEIGER

@<TRIPOS>ATOM
      1  N        -21.0150   -1.3440   53.3380 N.3   139  ARG139     -0.1231
      2  CA       -21.0810   -0.7400   52.0230 C.3   139  ARG139      0.1694
      3  C        -20.3220    0.5750   52.0690 C.2   139  ARG139      0.2592
      4  O        -20.2320    1.2180   53.1180 O.2   139  ARG139     -0.2718
      5  CB       -22.5280   -0.4280   51.6500 C.3   139  ARG139      0.0321
      6  CG       -23.4290   -1.6310   51.4800 C.3   139  ARG139      0.0489
      7  CD       -23.0920   -2.3760   50.2340 C.3   139  ARG139      0.2205
      8  NE       -24.0170   -3.4750   50.0340 N.pl3 139  ARG139     -0.0865
      9  CZ       -25.0410   -3.4510   49.1920 C.cat 139  ARG139      0.5346
     10  NH1      -25.2880   -2.3770   48.4520 N.pl3 139  ARG139      0.1354
     11  NH2      -25.8210   -4.5120   49.0900 N.pl3 139  ARG139      0.1354
     12  N        -19.7760    0.9710   50.9280 N.am  140  HIS140     -0.1962
     13  CA       -19.0810    2.2400   50.8390 C.3   140  HIS140      0.1787
     14  C        -20.1110    3.3510   50.9490 C.2   140  HIS140      0.2620
     15  O        -21.1850    3.2650   50.3620 O.2   140  HIS140     -0.2715
     16  CB       -18.2670    2.3260   49.5390 C.3   140  HIS140      0.0785
     17  CG       -17.0220    1.4880   49.5550 C.ar  140  HIS140      0.0821
     18  ND1      -16.9670    0.2210   49.0110 N.ar  140  HIS140     -0.2267
     19  CD2      -15.7920    1.7270   50.0710 C.ar  140  HIS140      0.1154
     20  CE1      -15.7550   -0.2780   49.1820 C.ar  140  HIS140      0.1986
     21  NE2      -15.0210    0.6200   49.8130 N.ar  140  HIS140     -0.2212
     22  N        -19.7880    4.3770   51.7310 N.am  141  THR141     -0.1951
     23  CA       -20.7230    5.4810   51.9970 C.3   141  THR141      0.1897
     24  C        -21.1380    6.2440   50.7350 C.2   141  THR141      0.2313
     25  O        -22.3270    6.3960   50.4560 O.2   141  THR141     -0.2863
     26  CB       -20.1330    6.5010   52.9890 C.3   141  THR141      0.1794
     27  OG1      -19.0890    5.8810   53.7550 O.3   141  THR141     -0.2208
     28  CG2      -21.2190    7.0160   53.9210 C.3   141  THR141      0.0378
     29  N        -22.6170    3.3200   47.8030 N.3   144  ASN144     -0.1240
     30  CA       -23.3430    2.1140   48.2130 C.3   144  ASN144      0.1653
     31  C        -22.7730    0.8130   47.6310 C.2   144  ASN144      0.2266
     32  O        -23.4510   -0.2140   47.5900 O.2   144  ASN144     -0.2867
     33  CB       -24.8150    2.2470   47.8320 C.3   144  ASN144      0.1155
     34  CG       -25.7090    1.3890   48.6770 C.2   144  ASN144      0.2627
     35  OD1      -26.8140    1.0480   48.2680 O.2   144  ASN144     -0.2716
     36  ND2      -25.2400    1.0320   49.8680 N.am  144  ASN144     -0.0877
     37  N        -33.8650   -2.9290   63.2970 N.3   434  ARG434     -0.1245
     38  CA       -34.5640   -3.3300   62.0750 C.3   434  ARG434      0.1563
     39  C        -34.1200   -4.7080   61.5980 C.2   434  ARG434      0.2260
     40  O        -32.9920   -5.1360   61.8520 O.2   434  ARG434     -0.2867
     41  CB       -34.3090   -2.3190   60.9530 C.3   434  ARG434      0.0307
     42  CG       -34.7530   -0.8900   61.2600 C.3   434  ARG434      0.0489
     43  CD       -34.6580    0.0060   60.0200 C.3   434  ARG434      0.2205
     44  NE       -33.2760    0.2540   59.5930 N.pl3 434  ARG434     -0.0865
     45  CZ       -32.9480    0.8910   58.4670 C.cat 434  ARG434      0.5346
     46  NH1      -31.6700    1.0810   58.1430 N.pl3 434  ARG434      0.1354
     47  NH2      -33.9090    1.3370   57.6660 N.pl3 434  ARG434      0.1354
     48  N        -28.8200   -3.7760   51.6370 N.3   440  ALA440     -0.1231
     49  CA       -28.2120   -2.6130   52.2650 C.3   440  ALA440      0.1694
     50  C        -27.1430   -3.0160   53.2620 C.2   440  ALA440      0.2593
     51  O        -27.1530   -4.1220   53.7550 O.2   440  ALA440     -0.2718
     52  CB       -29.2830   -1.7620   52.9400 C.3   440  ALA440      0.0304
     53  N        -26.2110   -2.1100   53.5280 N.am  441  SER441     -0.1938
     54  CA       -25.2960   -2.2080   54.6600 C.3   441  SER441      0.2055
     55  C        -26.0850   -2.3910   55.9540 C.2   441  SER441      0.2643
     56  O        -27.2510   -2.0100   56.0340 O.2   441  SER441     -0.2714
     57  CB       -24.4900   -0.9120   54.7590 C.3   441  SER441      0.2130
     58  OG       -23.5480   -0.9410   55.8110 O.3   441  SER441     -0.2179
     59  N        -25.4550   -2.9680   56.9700 N.am  442  LEU442     -0.1963
     60  CA       -26.0780   -3.0280   58.2900 C.3   442  LEU442      0.1728
     61  C        -26.1870   -1.6220   58.8870 C.2   442  LEU442      0.2616
     62  O        -25.4850   -0.6990   58.4720 O.2   442  LEU442     -0.2715
     63  CB       -25.2880   -3.9440   59.2320 C.3   442  LEU442      0.0311
     64  CG       -25.3100   -5.4610   59.0080 C.3   442  LEU442      0.0022
     65  CD1      -24.1260   -6.1050   59.6980 C.3   442  LEU442      0.0001
     66  CD2      -26.6100   -6.0850   59.4970 C.3   442  LEU442      0.0001
     67  N        -27.0640   -1.4700   59.8700 N.am  443  ASP443     -0.1957
     68  CA       -27.2990   -0.1880   60.5160 C.3   443  ASP443      0.1840
     69  C        -26.1500    0.2220   61.4300 C.2   443  ASP443      0.2622
     70  O        -26.3550    0.5060   62.6080 O.2   443  ASP443     -0.2715
     71  CB       -28.6260   -0.2190   61.2860 C.3   443  ASP443      0.1450
     72  CG       -29.8380   -0.2440   60.3620 C.2   443  ASP443      0.3671
     73  OD1      -30.9890   -0.2050   60.8590 O.co2 443  ASP443     -0.2456
     74  OD2      -29.6430   -0.2840   59.1250 O.co2 443  ASP443     -0.2456
     75  N        -24.9450    0.2760   60.8750 N.am  444  TRP444     -0.1960
     76  CA       -23.7540    0.6640   61.6290 C.3   444  TRP444      0.1771
     77  C        -23.8510    2.0650   62.2240 C.2   444  TRP444      0.2619
     78  O        -23.0200    2.4460   63.0550 O.2   444  TRP444     -0.2715
     79  CB       -22.5050    0.5720   60.7500 C.3   444  TRP444      0.0590
     80  CG       -22.1220   -0.8370   60.4200 C.ar  444  TRP444      0.0006
     81  CD1      -22.3670   -1.4980   59.2580 C.ar  444  TRP444      0.0946
     82  CD2      -21.4260   -1.7640   61.2700 C.ar  444  TRP444      0.0152
     83  NE1      -21.8730   -2.7730   59.3230 N.ar  444  TRP444     -0.2442
     84  CE2      -21.2900   -2.9670   60.5480 C.ar  444  TRP444      0.0810
     85  CE3      -20.9130   -1.6940   62.5760 C.ar  444  TRP444      0.0012
     86  CZ2      -20.6610   -4.0950   61.0760 C.ar  444  TRP444      0.0191
     87  CZ3      -20.2890   -2.8180   63.1050 C.ar  444  TRP444      0.0001
     88  CH2      -20.1610   -4.0060   62.3430 C.ar  444  TRP444      0.0015
     89  N        -24.8580    2.8290   61.8000 N.am  445  HIS445     -0.1973
     90  CA       -25.0010    4.2260   62.2240 C.3   445  HIS445      0.1656
     91  C        -25.4880    4.3160   63.6690 C.2   445  HIS445      0.2291
     92  O        -25.2170    5.2990   64.3520 O.2   445  HIS445     -0.2864
     93  CB       -25.9350    5.0040   61.2850 C.3   445  HIS445      0.0771
     94  CG       -27.3460    4.5100   61.3040 C.ar  445  HIS445      0.0820
     95  ND1      -27.8220    3.5830   60.4020 N.ar  445  HIS445     -0.2267
     96  CD2      -28.3750    4.7880   62.1390 C.ar  445  HIS445      0.1154
     97  CE1      -29.0890    3.3250   60.6710 C.ar  445  HIS445      0.1986
     98  NE2      -29.4480    4.0410   61.7210 N.ar  445  HIS445     -0.2212
@<TRIPOS>BOND
     1    32    31    2
     2    31    30    1
     3    29    30    1
     4    33    30    1
     5    33    34    1
     6    35    34    2
     7    10     9    1
     8    34    36   am
     9    18    20   ar
    10    18    17   ar
    11    11     9    1
    12    20    21   ar
    13     9     8    2
    14    16    17    1
    15    16    13    1
    16    17    19   ar
    17    21    19   ar
    18     8     7    1
    19     7     6    1
    20    15    14    2
    21    25    24    2
    22    24    23    1
    23    13    12    1
    24    13    14    1
    25    12     3   am
    26    14    22   am
    27     6     5    1
    28    48    49    1
    29     5     2    1
    30    22    23    1
    31    23    26    1
    32     2     3    1
    33     2     1    1
    34     3     4    2
    35    49    52    1
    36    49    50    1
    37    26    27    1
    38    26    28    1
    39    50    53   am
    40    50    51    2
    41    53    54    1
    42    54    57    1
    43    54    55    1
    44    57    58    1
    45    55    56    2
    46    55    59   am
    47    59    60    1
    48    47    45    1
    49    46    45    1
    50    60    61    1
    51    60    63    1
    52    45    44    2
    53    62    61    2
    54    61    67   am
    55    64    63    1
    56    64    66    1
    57    64    65    1
    58    74    72   ar
    59    81    83   ar
    60    81    80   ar
    61    83    84   ar
    62    44    43    1
    63    67    68    1
    64    43    42    1
    65    72    73   ar
    66    72    71    1
    67    95    97   ar
    68    95    94   ar
    69    80    79    1
    70    80    82   ar
    71    68    71    1
    72    68    69    1
    73    84    86   ar
    74    84    82   ar
    75    97    98   ar
    76    79    76    1
    77    75    69   am
    78    75    76    1
    79    41    42    1
    80    41    38    1
    81    86    88   ar
    82    82    85   ar
    83    93    94    1
    84    93    90    1
    85    94    96   ar
    86    69    70    2
    87    39    40    2
    88    39    38    1
    89    76    77    1
    90    98    96   ar
    91    89    90    1
    92    89    77   am
    93    38    37    1
    94    90    91    1
    95    77    78    2
    96    88    87   ar
    97    85    87   ar
    98    91    92    2
