@<TRIPOS>MOLECULE
tmp/4lq1D01.pdb
 118 117 0 0 0
SMALL
GASTEIGER

@<TRIPOS>ATOM
      1  N         11.5000   35.1670   29.4150 N.3   138  ARG138     -0.1231
      2  CA        12.4400   35.9380   30.1990 C.3   138  ARG138      0.1694
      3  C         12.3030   37.4160   29.8160 C.2   138  ARG138      0.2592
      4  O         11.9720   37.7230   28.6860 O.2   138  ARG138     -0.2718
      5  CB        13.8720   35.4910   29.8770 C.3   138  ARG138      0.0321
      6  CG        14.3180   34.2080   30.5380 C.3   138  ARG138      0.0489
      7  CD        15.8200   34.0010   30.3730 C.3   138  ARG138      0.2205
      8  NE        16.2300   32.6550   30.7890 N.pl3 138  ARG138     -0.0865
      9  CZ        17.4350   32.1210   30.5580 C.cat 138  ARG138      0.5346
     10  NH1       18.3680   32.8150   29.8940 N.pl3 138  ARG138      0.1354
     11  NH2       17.7010   30.8810   30.9700 N.pl3 138  ARG138      0.1354
     12  N         12.5970   38.3290   30.7270 N.am  139  ARG139     -0.1966
     13  CA        12.6380   39.7570   30.4020 C.3   139  ARG139      0.1729
     14  C         13.9510   40.3600   30.8650 C.2   139  ARG139      0.2616
     15  O         14.6070   39.8050   31.7500 O.2   139  ARG139     -0.2715
     16  CB        11.5150   40.5060   31.1130 C.3   139  ARG139      0.0348
     17  CG        10.1310   40.0430   30.7600 C.3   139  ARG139      0.0492
     18  CD         9.7270   40.5520   29.4170 C.3   139  ARG139      0.2205
     19  NE         8.3480   40.1910   29.1080 N.pl3 139  ARG139     -0.0865
     20  CZ         7.3060   40.9650   29.3660 C.cat 139  ARG139      0.5346
     21  NH1        7.4860   42.1180   29.9790 N.pl3 139  ARG139      0.1354
     22  NH2        6.0900   40.5690   29.0440 N.pl3 139  ARG139      0.1354
     23  N         14.3290   41.4960   30.2820 N.am  140  HIS140     -0.1959
     24  CA        15.4530   42.2820   30.8030 C.3   140  HIS140      0.1787
     25  C         15.1310   42.7960   32.2170 C.2   140  HIS140      0.2620
     26  O         13.9910   43.1640   32.4820 O.2   140  HIS140     -0.2715
     27  CB        15.7870   43.4100   29.8340 C.3   140  HIS140      0.0785
     28  CG        16.4120   42.9240   28.5620 C.ar  140  HIS140      0.0821
     29  ND1       15.7370   42.8890   27.3580 N.ar  140  HIS140     -0.2267
     30  CD2       17.6380   42.4020   28.3190 C.ar  140  HIS140      0.1154
     31  CE1       16.5220   42.3780   26.4290 C.ar  140  HIS140      0.1986
     32  NE2       17.6830   42.0790   26.9860 N.ar  140  HIS140     -0.2212
     33  N         16.1080   42.8060   33.1280 N.am  141  THR141     -0.1951
     34  CA        15.8220   43.1860   34.5280 C.3   141  THR141      0.1897
     35  C         15.4130   44.6340   34.7980 C.2   141  THR141      0.2313
     36  O         14.4770   44.8690   35.5740 O.2   141  THR141     -0.2863
     37  CB        16.9130   42.7460   35.5400 C.3   141  THR141      0.1794
     38  OG1       18.2170   42.8810   34.9560 O.3   141  THR141     -0.2208
     39  CG2       16.6790   41.2980   35.9700 C.3   141  THR141      0.0378
     40  N         12.1320   45.6510   32.1000 N.3   144  ASN144     -0.1240
     41  CA        11.1410   44.5920   31.8990 C.3   144  ASN144      0.1653
     42  C         10.8190   44.3310   30.4150 C.2   144  ASN144      0.2266
     43  O          9.8090   43.7260   30.1000 O.2   144  ASN144     -0.2867
     44  CB         9.8600   44.9070   32.6680 C.3   144  ASN144      0.1155
     45  CG         8.9860   43.6940   32.8480 C.2   144  ASN144      0.2627
     46  OD1        9.4530   42.6230   33.2610 O.2   144  ASN144     -0.2716
     47  ND2        7.7040   43.8460   32.5350 N.am  144  ASN144     -0.0877
     48  N          3.7320   30.0030   41.1100 N.3   441  ARG441     -0.1245
     49  CA         2.6410   30.8230   40.6180 C.3   441  ARG441      0.1563
     50  C          2.1960   30.3900   39.2140 C.2   441  ARG441      0.2260
     51  O          2.9670   29.8080   38.4600 O.2   441  ARG441     -0.2867
     52  CB         3.0530   32.2980   40.6160 C.3   441  ARG441      0.0307
     53  CG         3.6010   32.7510   41.9480 C.3   441  ARG441      0.0489
     54  CD         3.6960   34.2690   42.0820 C.3   441  ARG441      0.2205
     55  NE         4.6900   34.8520   41.1810 N.pl3 441  ARG441     -0.0865
     56  CZ         5.0340   36.1380   41.1700 C.cat 441  ARG441      0.5346
     57  NH1        4.4730   36.9790   42.0160 N.pl3 441  ARG441      0.1354
     58  NH2        5.9510   36.5780   40.3140 N.pl3 441  ARG441      0.1354
     59  N          4.7950   39.0140   32.1170 N.3   447  ALA447     -0.1231
     60  CA         5.9270   39.0370   33.0130 C.3   447  ALA447      0.1694
     61  C          6.7740   37.8400   32.6820 C.2   447  ALA447      0.2593
     62  O          6.2870   36.8670   32.1160 O.2   447  ALA447     -0.2718
     63  CB         5.4560   38.9780   34.5010 C.3   447  ALA447      0.0304
     64  N          8.0460   37.9310   33.0460 N.am  448  SER448     -0.1938
     65  CA         8.9960   36.8390   32.9640 C.3   448  SER448      0.2055
     66  C          8.5010   35.6620   33.8060 C.2   448  SER448      0.2643
     67  O          7.7500   35.8450   34.7530 O.2   448  SER448     -0.2714
     68  CB        10.3250   37.3590   33.5310 C.3   448  SER448      0.2130
     69  OG        11.2850   36.3280   33.7210 O.3   448  SER448     -0.2179
     70  N          8.9300   34.4510   33.4990 N.am  449  LEU449     -0.1963
     71  CA         8.7680   33.3580   34.4710 C.3   449  LEU449      0.1728
     72  C          9.5100   33.6870   35.7670 C.2   449  LEU449      0.2616
     73  O         10.2380   34.6660   35.8520 O.2   449  LEU449     -0.2715
     74  CB         9.2950   32.0330   33.9140 C.3   449  LEU449      0.0311
     75  CG         8.6770   31.5660   32.6110 C.3   449  LEU449      0.0022
     76  CD1        9.6090   30.5620   31.9370 C.3   449  LEU449      0.0001
     77  CD2        7.3060   30.9850   32.8670 C.3   449  LEU449      0.0001
     78  N          9.3390   32.8410   36.7680 N.am  450  ASP450     -0.1957
     79  CA         9.9280   33.0650   38.0730 C.3   450  ASP450      0.1840
     80  C         11.2930   32.4040   38.2110 C.2   450  ASP450      0.2622
     81  O         11.4890   31.5430   39.0740 O.2   450  ASP450     -0.2715
     82  CB         8.9770   32.5400   39.1460 C.3   450  ASP450      0.1450
     83  CG         7.7450   33.3830   39.2550 C.2   450  ASP450      0.3671
     84  OD1        6.7240   32.9320   39.8350 O.co2 450  ASP450     -0.2456
     85  OD2        7.8140   34.5250   38.7510 O.co2 450  ASP450     -0.2456
     86  N         12.2360   32.8240   37.3740 N.am  451  TRP451     -0.1960
     87  CA        13.5930   32.2940   37.4060 C.3   451  TRP451      0.1771
     88  C         14.2860   32.5370   38.7570 C.2   451  TRP451      0.2619
     89  O         15.2390   31.8280   39.1080 O.2   451  TRP451     -0.2715
     90  CB        14.4220   32.8760   36.2620 C.3   451  TRP451      0.0590
     91  CG        13.8880   32.5110   34.9120 C.ar  451  TRP451      0.0006
     92  CD1       13.1190   33.2980   34.0760 C.ar  451  TRP451      0.0946
     93  CD2       14.0430   31.2500   34.2390 C.ar  451  TRP451      0.0152
     94  NE1       12.8200   32.6120   32.9250 N.ar  451  TRP451     -0.2442
     95  CE2       13.3490   31.3480   33.0030 C.ar  451  TRP451      0.0810
     96  CE3       14.7030   30.0540   34.5560 C.ar  451  TRP451      0.0012
     97  CZ2       13.3030   30.2920   32.0840 C.ar  451  TRP451      0.0191
     98  CZ3       14.6570   29.0050   33.6440 C.ar  451  TRP451      0.0001
     99  CH2       13.9690   29.1350   32.4190 C.ar  451  TRP451      0.0015
    100  N         13.8140   33.5220   39.5170 N.am  452  HIS452     -0.1973
    101  CA        14.3810   33.7730   40.8520 C.3   452  HIS452      0.1656
    102  C         14.2200   32.5690   41.7720 C.2   452  HIS452      0.2291
    103  O         14.8480   32.5150   42.8150 O.2   452  HIS452     -0.2864
    104  CB        13.7930   35.0330   41.5200 C.3   452  HIS452      0.0771
    105  CG        12.4000   34.8500   42.0270 C.ar  452  HIS452      0.0820
    106  ND1       11.2850   35.0950   41.2450 N.ar  452  HIS452     -0.2267
    107  CD2       11.9360   34.4190   43.2270 C.ar  452  HIS452      0.1154
    108  CE1       10.1950   34.8300   41.9470 C.ar  452  HIS452      0.1986
    109  NE2       10.5620   34.4220   43.1520 N.ar  452  HIS452     -0.2212
    110  N         17.5300   30.9440   42.1410 N.3   455  GLU455     -0.1245
    111  CA        18.6330   31.7160   42.7250 C.3   455  GLU455      0.1567
    112  C         18.9710   31.2080   44.1250 C.2   455  GLU455      0.2260
    113  O         18.1390   30.5520   44.7750 O.2   455  GLU455     -0.2867
    114  CB        18.2940   33.2120   42.7620 C.3   455  GLU455      0.0388
    115  CG        18.4980   33.8970   41.4110 C.3   455  GLU455      0.1160
    116  CD        17.7470   35.2230   41.2800 C.2   455  GLU455      0.3649
    117  OE1       17.3460   35.5620   40.1410 O.co2 455  GLU455     -0.2457
    118  OE2       17.5610   35.9210   42.3080 O.co2 455  GLU455     -0.2457
@<TRIPOS>BOND
     1    31    32   ar
     2    31    29   ar
     3    32    30   ar
     4    29    28   ar
     5    30    28   ar
     6    28    27    1
     7     4     3    2
     8    22    20    1
     9    19    20    2
    10    19    18    1
    11    20    21    1
    12     1     2    1
    13    18    17    1
    14     3     2    1
    15     3    12   am
    16    27    24    1
    17     5     2    1
    18     5     6    1
    19    10     9    1
    20    43    42    2
    21    23    24    1
    22    23    14   am
    23     7     6    1
    24     7     8    1
    25    13    12    1
    26    13    14    1
    27    13    16    1
    28    42    41    1
    29     9     8    2
    30     9    11    1
    31    17    16    1
    32    24    25    1
    33    14    15    2
    34    41    40    1
    35    41    44    1
    36    76    75    1
    37    97    99   ar
    38    97    95   ar
    39    62    61    2
    40    59    60    1
    41    25    26    2
    42    25    33   am
    43    99    98   ar
    44    47    45   am
    45    75    77    1
    46    75    74    1
    47    44    45    1
    48    61    60    1
    49    61    64   am
    50    45    46    2
    51    94    95   ar
    52    94    92   ar
    53    65    64    1
    54    65    68    1
    55    65    66    1
    56    95    93   ar
    57    60    63    1
    58    33    34    1
    59    70    66   am
    60    70    71    1
    61    68    69    1
    62    98    96   ar
    63    66    67    2
    64    74    71    1
    65    92    91   ar
    66    93    96   ar
    67    93    91   ar
    68    71    72    1
    69    34    35    1
    70    34    37    1
    71    35    36    2
    72    91    90    1
    73    38    37    1
    74    37    39    1
    75    72    73    2
    76    72    78   am
    77    90    87    1
    78    78    79    1
    79    86    87    1
    80    86    80   am
    81    87    88    1
    82    79    80    1
    83    79    82    1
    84    80    81    2
    85    51    50    2
    86    85    83   ar
    87    88    89    2
    88    88   100   am
    89    82    83    1
    90    50    49    1
    91    83    84   ar
    92   100   101    1
    93   117   116   ar
    94    58    56    1
    95    52    49    1
    96    52    53    1
    97    49    48    1
    98   101   104    1
    99   101   102    1
   100    56    55    2
   101    56    57    1
   102    55    54    1
   103   106   108   ar
   104   106   105   ar
   105   116   115    1
   106   116   118   ar
   107   115   114    1
   108   104   105    1
   109   102   103    2
   110   108   109   ar
   111    53    54    1
   112   105   107   ar
   113   110   111    1
   114   111   114    1
   115   111   112    1
   116   109   107   ar
   117   112   113    2
