@<TRIPOS>MOLECULE
tmp/4lq2A00.pdb
 89 86 0 0 0
SMALL
GASTEIGER

@<TRIPOS>ATOM
      1  N          1.8360   -1.5130  -16.7550 N.3    21  TYR21      -0.1227
      2  CA         1.2280   -0.5850  -15.8130 C.3    21  TYR21       0.1736
      3  C          1.7420   -0.7260  -14.3720 C.2    21  TYR21       0.2595
      4  O          1.9240    0.2790  -13.6760 O.2    21  TYR21      -0.2718
      5  CB        -0.3020   -0.6910  -15.8780 C.3    21  TYR21       0.0548
      6  CG        -0.8760   -0.4180  -17.2670 C.ar   21  TYR21      -0.0200
      7  CD1       -1.0340    0.8800  -17.7330 C.ar   21  TYR21      -0.0009
      8  CD2       -1.2560   -1.4640  -18.1070 C.ar   21  TYR21      -0.0009
      9  CE1       -1.5490    1.1300  -18.9920 C.ar   21  TYR21       0.0417
     10  CE2       -1.7770   -1.2200  -19.3650 C.ar   21  TYR21       0.0417
     11  CZ        -1.9190    0.0800  -19.8080 C.ar   21  TYR21       0.1957
     12  OH        -2.4360    0.3330  -21.0680 O.3    21  TYR21      -0.2866
     13  N          2.0090   -1.9640  -13.9530 N.am   22  ALA22      -0.1980
     14  CA         2.3800   -2.2780  -12.5800 C.3    22  ALA22       0.1597
     15  C          3.8860   -2.3960  -12.3310 C.2    22  ALA22       0.2287
     16  O          4.3530   -2.1490  -11.2190 O.2    22  ALA22      -0.2864
     17  CB         1.6910   -3.5530  -12.1480 C.3    22  ALA22       0.0319
     18  N          8.8820    0.1830  -10.1970 N.3    26  VAL26      -0.1245
     19  CA         9.7460   -0.7970   -9.5620 C.3    26  VAL26       0.1561
     20  C         11.0470   -1.0600  -10.3310 C.2    26  VAL26       0.2260
     21  O         12.1430   -0.8640   -9.7920 O.2    26  VAL26      -0.2867
     22  CB         8.9910   -2.1260   -9.3680 C.3    26  VAL26       0.0252
     23  CG1        9.7020   -3.0010   -8.3480 C.3    26  VAL26       0.0019
     24  CG2        7.5570   -1.8580   -8.9340 C.3    26  VAL26       0.0019
     25  N         -1.3430   -7.6680   -4.7600 N.3    79  TYR79      -0.1241
     26  CA        -2.3920   -6.6660   -4.6690 C.3    79  TYR79       0.1605
     27  C         -3.6730   -7.0990   -5.3470 C.2    79  TYR79       0.2264
     28  O         -3.6960   -8.0610   -6.1120 O.2    79  TYR79      -0.2867
     29  CB        -1.9290   -5.3290   -5.2600 C.3    79  TYR79       0.0534
     30  CG        -1.6010   -5.3560   -6.7430 C.ar   79  TYR79      -0.0201
     31  CD1       -0.3490   -5.7790   -7.1900 C.ar   79  TYR79      -0.0009
     32  CD2       -2.5300   -4.9320   -7.6990 C.ar   79  TYR79      -0.0009
     33  CE1       -0.0380   -5.7840   -8.5260 C.ar   79  TYR79       0.0417
     34  CE2       -2.2170   -4.9440   -9.0400 C.ar   79  TYR79       0.0417
     35  CZ        -0.9690   -5.3720   -9.4390 C.ar   79  TYR79       0.1957
     36  OH        -0.6310   -5.3960  -10.7640 O.3    79  TYR79      -0.2866
     37  N         -6.1950    0.4530  -13.7500 N.3   161  MET161     -0.1245
     38  CA        -4.8540    1.0060  -13.8780 C.3   161  MET161      0.1570
     39  C         -4.4960    1.2610  -15.3420 C.2   161  MET161      0.2261
     40  O         -3.5840    2.0340  -15.6320 O.2   161  MET161     -0.2867
     41  CB        -3.8120    0.0910  -13.2150 C.3   161  MET161      0.0387
     42  CG        -3.5730   -1.2230  -13.9400 C.3   161  MET161      0.0595
     43  SD        -2.4790   -2.3210  -13.0170 S.3   161  MET161     -0.1393
     44  CE        -3.5790   -3.7030  -12.7200 C.3   161  MET161      0.0692
     45  N          9.5070   -3.9620   -2.8920 N.3   205  ARG205     -0.1231
     46  CA         9.2760   -2.7170   -3.6060 C.3   205  ARG205      0.1694
     47  C          7.9860   -2.8310   -4.4060 C.2   205  ARG205      0.2592
     48  O          7.3540   -1.8330   -4.7230 O.2   205  ARG205     -0.2718
     49  CB        10.4680   -2.3960   -4.5230 C.3   205  ARG205      0.0321
     50  CG        10.4540   -0.9830   -5.1510 C.3   205  ARG205      0.0489
     51  CD        11.6470   -0.7700   -6.1270 C.3   205  ARG205      0.2205
     52  NE        12.8450   -0.1730   -5.5000 N.pl3 205  ARG205     -0.0865
     53  CZ        13.9880   -0.8120   -5.2260 C.cat 205  ARG205      0.5346
     54  NH1       14.1560   -2.1020   -5.5020 N.pl3 205  ARG205      0.1354
     55  NH2       14.9850   -0.1410   -4.6720 N.pl3 205  ARG205      0.1354
     56  N          7.5960   -4.0630   -4.7120 N.am  206  PHE206     -0.1976
     57  CA         6.4430   -4.3310   -5.5620 C.3   206  PHE206      0.1639
     58  C          5.1880   -4.6100   -4.7350 C.2   206  PHE206      0.2290
     59  O          4.0670   -4.2980   -5.1400 O.2   206  PHE206     -0.2864
     60  CB         6.7540   -5.5070   -6.4910 C.3   206  PHE206      0.0560
     61  CG         5.6610   -5.8150   -7.4870 C.ar  206  PHE206     -0.0200
     62  CD1        5.2050   -4.8440   -8.3710 C.ar  206  PHE206     -0.0042
     63  CD2        5.1040   -7.0880   -7.5600 C.ar  206  PHE206     -0.0042
     64  CE1        4.2000   -5.1360   -9.2850 C.ar  206  PHE206     -0.0003
     65  CE2        4.0950   -7.3800   -8.4780 C.ar  206  PHE206     -0.0003
     66  CZ         3.6490   -6.4090   -9.3350 C.ar  206  PHE206     -0.0000
     67  N          4.6350   -3.9310   -0.7550 N.3   208  PRO208     -0.2116
     68  CA         5.1580   -3.4120    0.5120 C.3   208  PRO208      0.1372
     69  C          4.9760   -4.3410    1.7120 C.2   208  PRO208      0.2244
     70  O          5.8530   -4.4000    2.5750 O.2   208  PRO208     -0.2868
     71  CB         4.3640   -2.1210    0.6980 C.3   208  PRO208      0.0268
     72  CG         4.1520   -1.6580   -0.7100 C.3   208  PRO208      0.0207
     73  CD         3.8550   -2.9140   -1.4770 C.3   208  PRO208      0.0892
     74  N         -2.8980   -4.0480   -1.0310 N.3   237  PRO237     -0.2116
     75  CA        -3.0600   -2.8400   -1.8380 C.3   237  PRO237      0.1372
     76  C         -4.1540   -3.0860   -2.8690 C.2   237  PRO237      0.2244
     77  O         -4.2600   -4.1920   -3.4110 O.2   237  PRO237     -0.2868
     78  CB        -1.6960   -2.6840   -2.5150 C.3   237  PRO237      0.0268
     79  CG        -0.7560   -3.3790   -1.6280 C.3   237  PRO237      0.0207
     80  CD        -1.5120   -4.5410   -1.0540 C.3   237  PRO237      0.0892
     81  N         -5.5470   -1.9120   -6.3640 N.3   239  LYS239     -0.1245
     82  CA        -5.0770   -1.1400   -7.5190 C.3   239  LYS239      0.1561
     83  C         -6.0000   -1.0890   -8.7240 C.2   239  LYS239      0.2260
     84  O         -7.1180   -1.6200   -8.7780 O.2   239  LYS239     -0.2867
     85  CB        -3.6670   -1.5670   -7.9450 C.3   239  LYS239      0.0271
     86  CG        -2.5660   -0.7210   -7.3100 C.3   239  LYS239      0.0035
     87  CD        -2.6790   -0.6620   -5.7840 C.3   239  LYS239      0.0206
     88  CE        -1.8040    0.4350   -5.2030 C.3   239  LYS239      0.1093
     89  NZ        -0.4330    0.3650   -5.7990 N.3   239  LYS239     -0.1314
@<TRIPOS>BOND
     1    12    11    1
     2    11    10   ar
     3    11     9   ar
     4    10     8   ar
     5     9     7   ar
     6     8     6   ar
     7     7     6   ar
     8     6     5    1
     9     1     2    1
    10     5     2    1
    11     2     3    1
    12    40    39    2
    13    39    38    1
    14     3    13   am
    15     3     4    2
    16    13    14    1
    17    42    41    1
    18    42    43    1
    19    38    37    1
    20    38    41    1
    21    43    44    1
    22    14    15    1
    23    14    17    1
    24    15    16    2
    25    36    35    1
    26    20    21    2
    27    20    19    1
    28    18    19    1
    29    19    22    1
    30    35    34   ar
    31    35    33   ar
    32    22    24    1
    33    22    23    1
    34    66    64   ar
    35    66    65   ar
    36    64    62   ar
    37    34    32   ar
    38    84    83    2
    39    83    82    1
    40    33    31   ar
    41    65    63   ar
    42    62    61   ar
    43    85    82    1
    44    85    86    1
    45    32    30   ar
    46    63    61   ar
    47    82    81    1
    48    61    60    1
    49    86    87    1
    50    31    30   ar
    51    30    29    1
    52    60    57    1
    53    51    52    1
    54    51    50    1
    55    28    27    2
    56    89    88    1
    57    87    88    1
    58    57    58    1
    59    57    56    1
    60    54    53    1
    61    52    53    2
    62    27    26    1
    63    29    26    1
    64    53    55    1
    65    50    49    1
    66    59    58    2
    67    25    26    1
    68    48    47    2
    69    56    47   am
    70    49    46    1
    71    47    46    1
    72    46    45    1
    73    77    76    2
    74    76    75    1
    75    78    75    1
    76    78    79    1
    77    75    74    1
    78    79    80    1
    79    73    67    1
    80    73    72    1
    81    80    74    1
    82    67    68    1
    83    72    71    1
    84    68    71    1
    85    68    69    1
    86    69    70    2
