@<TRIPOS>MOLECULE
tmp/4lq4A00.pdb
 91 88 0 0 0
SMALL
GASTEIGER

@<TRIPOS>ATOM
      1  N         17.8160    7.5110   22.0800 N.3    34  GLU34      -0.1231
      2  CA        17.4040    6.8260   23.3020 C.3    34  GLU34       0.1699
      3  C         16.6060    5.5430   23.0490 C.2    34  GLU34       0.2592
      4  O         15.7710    5.1440   23.8650 O.2    34  GLU34      -0.2718
      5  CB        16.6580    7.7860   24.2360 C.3    34  GLU34       0.0402
      6  CG        17.5370    8.9090   24.7550 C.3    34  GLU34       0.1161
      7  CD        16.7830    9.8840   25.6260 C.2    34  GLU34       0.3649
      8  OE1       15.9540    9.4350   26.4500 O.co2  34  GLU34      -0.2457
      9  OE2       17.0180   11.1020   25.4860 O.co2  34  GLU34      -0.2457
     10  N         16.8760    4.9110   21.9100 N.am   35  ILE35      -0.1966
     11  CA        16.3660    3.5830   21.6120 C.3    35  ILE35       0.1727
     12  C         17.5490    2.6330   21.4280 C.2    35  ILE35       0.2616
     13  O         18.3990    2.8390   20.5560 O.2    35  ILE35      -0.2715
     14  CB        15.5100    3.5670   20.3330 C.3    35  ILE35       0.0290
     15  CG1       14.2360    4.3840   20.5350 C.3    35  ILE35       0.0022
     16  CG2       15.1460    2.1380   19.9640 C.3    35  ILE35       0.0023
     17  CD1       13.4010    3.9080   21.7100 C.3    35  ILE35       0.0001
     18  N         17.6110    1.5990   22.2560 N.am   36  ASP36      -0.1971
     19  CA        18.6980    0.6310   22.1700 C.3    36  ASP36       0.1709
     20  C         18.4420   -0.3400   21.0330 C.2    36  ASP36       0.2293
     21  O         17.6620   -1.2830   21.1700 O.2    36  ASP36      -0.2864
     22  CB        18.8380   -0.1330   23.4820 C.3    36  ASP36       0.1436
     23  CG        20.0960   -0.9910   23.5330 C.2    36  ASP36       0.3671
     24  OD1       20.7930   -1.1340   22.5020 O.co2  36  ASP36      -0.2456
     25  OD2       20.3750   -1.5350   24.6180 O.co2  36  ASP36      -0.2456
     26  N         18.8070   -4.3890   21.1370 N.3    39  LYS39      -0.1245
     27  CA        17.6730   -5.2490   21.4570 C.3    39  LYS39       0.1561
     28  C         16.8410   -5.4350   20.1990 C.2    39  LYS39       0.2260
     29  O         16.3120   -4.4650   19.6510 O.2    39  LYS39      -0.2867
     30  CB        16.8160   -4.6350   22.5680 C.3    39  LYS39       0.0271
     31  CG        17.6160   -4.1420   23.7580 C.3    39  LYS39       0.0035
     32  CD        16.9280   -4.4260   25.0870 C.3    39  LYS39       0.0206
     33  CE        15.5630   -3.7770   25.1940 C.3    39  LYS39       0.1093
     34  NZ        15.0330   -3.8190   26.6100 N.3    39  LYS39      -0.1314
     35  N         13.9610   -6.3600   19.6710 N.3    41  GLU41      -0.1231
     36  CA        12.5780   -5.9080   19.8120 C.3    41  GLU41       0.1699
     37  C         12.4080   -4.4250   19.4580 C.2    41  GLU41       0.2592
     38  O         11.3030   -3.9880   19.1260 O.2    41  GLU41      -0.2718
     39  CB        12.0670   -6.1900   21.2350 C.3    41  GLU41       0.0402
     40  CG        12.6110   -5.2350   22.3030 C.3    41  GLU41       0.1161
     41  CD        12.6080   -5.8280   23.7160 C.2    41  GLU41       0.3649
     42  OE1       12.9280   -7.0260   23.8780 O.co2  41  GLU41      -0.2457
     43  OE2       12.2910   -5.0910   24.6730 O.co2  41  GLU41      -0.2457
     44  N         13.4980   -3.6550   19.5180 N.am   42  ASN42      -0.1974
     45  CA        13.4370   -2.2150   19.2340 C.3    42  ASN42       0.1688
     46  C         13.6060   -1.8810   17.7580 C.2    42  ASN42       0.2292
     47  O         13.4020   -0.7380   17.3310 O.2    42  ASN42      -0.2864
     48  CB        14.4780   -1.4460   20.0500 C.3    42  ASN42       0.1181
     49  CG        14.0630   -1.2660   21.4910 C.2    42  ASN42       0.2629
     50  OD1       12.8740   -1.2410   21.7990 O.2    42  ASN42      -0.2716
     51  ND2       15.0410   -1.1410   22.3860 N.am   42  ASN42      -0.0877
     52  N          5.2290    2.3010   18.1010 N.3   188  LYS188     -0.1231
     53  CA         6.2740    1.3370   18.4340 C.3   188  LYS188      0.1693
     54  C          6.8470    1.5170   19.8400 C.2   188  LYS188      0.2592
     55  O          7.0200    0.5420   20.5760 O.2   188  LYS188     -0.2718
     56  CB         7.4020    1.4180   17.3950 C.3   188  LYS188      0.0285
     57  CG         8.6200    0.5400   17.6860 C.3   188  LYS188      0.0035
     58  CD         8.3610   -0.9050   17.3590 C.3   188  LYS188      0.0206
     59  CE         9.6360   -1.7320   17.5040 C.3   188  LYS188      0.1093
     60  NZ         9.3510   -3.1930   17.4000 N.3   188  LYS188     -0.1314
     61  N          7.1530    2.7580   20.2120 N.am  189  TYR189     -0.1962
     62  CA         7.8620    3.0120   21.4650 C.3   189  TYR189      0.1771
     63  C          6.9700    3.6710   22.5070 C.2   189  TYR189      0.2619
     64  O          6.0160    4.3710   22.1640 O.2   189  TYR189     -0.2715
     65  CB         9.1000    3.8740   21.2110 C.3   189  TYR189      0.0574
     66  CG        10.0120    3.3120   20.1460 C.ar  189  TYR189     -0.0198
     67  CD1       10.7230    2.1350   20.3670 C.ar  189  TYR189     -0.0009
     68  CD2       10.1650    3.9530   18.9230 C.ar  189  TYR189     -0.0009
     69  CE1       11.5650    1.6090   19.3980 C.ar  189  TYR189      0.0417
     70  CE2       11.0050    3.4340   17.9430 C.ar  189  TYR189      0.0417
     71  CZ        11.7050    2.2630   18.1930 C.ar  189  TYR189      0.1957
     72  OH        12.5390    1.7270   17.2340 O.3   189  TYR189     -0.2866
     73  N          7.2880    3.4480   23.7790 N.am  190  GLU190     -0.1977
     74  CA         6.4710    3.9710   24.8720 C.3   190  GLU190      0.1602
     75  C          6.2580    5.4840   24.7720 C.2   190  GLU190      0.2287
     76  O          5.1390    5.9730   24.9430 O.2   190  GLU190     -0.2864
     77  CB         7.0580    3.5880   26.2380 C.3   190  GLU190      0.0415
     78  CG         6.1870    4.0140   27.4100 C.3   190  GLU190      0.1163
     79  CD         6.5940    3.3690   28.7290 C.2   190  GLU190      0.3649
     80  OE1        7.5080    2.5100   28.7340 O.co2 190  GLU190     -0.2457
     81  OE2        5.9870    3.7220   29.7660 O.co2 190  GLU190     -0.2457
     82  N         11.2270    9.8710   20.3780 N.3   195  HIS195     -0.1241
     83  CA        12.4640    9.2360   19.9610 C.3   195  HIS195      0.1621
     84  C         12.9960    9.6610   18.5990 C.2   195  HIS195      0.2264
     85  O         14.0730    9.2330   18.2060 O.2   195  HIS195     -0.2867
     86  CB        12.3480    7.7270   20.1110 C.3   195  HIS195      0.0745
     87  CG        12.1630    7.3230   21.5340 C.ar  195  HIS195      0.0817
     88  ND1       13.2090    7.2800   22.4290 N.ar  195  HIS195     -0.2268
     89  CD2       11.0470    7.0310   22.2420 C.ar  195  HIS195      0.1154
     90  CE1       12.7510    6.9450   23.6220 C.ar  195  HIS195      0.1986
     91  NE2       11.4410    6.7900   23.5370 N.ar  195  HIS195     -0.2212
@<TRIPOS>BOND
     1    72    71    1
     2    47    46    2
     3    58    59    1
     4    58    57    1
     5    56    57    1
     6    56    53    1
     7    60    59    1
     8    46    45    1
     9    70    71   ar
    10    70    68   ar
    11    52    53    1
    12    71    69   ar
    13    85    84    2
    14    53    54    1
    15    84    83    1
    16    68    66   ar
    17    38    37    2
    18    45    44    1
    19    45    48    1
    20    69    67   ar
    21    37    44   am
    22    37    36    1
    23    29    28    2
    24    35    36    1
    25    36    39    1
    26    54    61   am
    27    54    55    2
    28    83    86    1
    29    83    82    1
    30    16    14    1
    31    48    49    1
    32    86    87    1
    33    66    67   ar
    34    66    65    1
    35    28    27    1
    36    61    62    1
    37    14    15    1
    38    14    11    1
    39    15    17    1
    40    13    12    2
    41    20    21    2
    42    20    19    1
    43    26    27    1
    44    65    62    1
    45    39    40    1
    46    12    11    1
    47    12    18   am
    48    27    30    1
    49    62    63    1
    50    49    50    2
    51    49    51   am
    52    87    89   ar
    53    87    88   ar
    54    11    10    1
    55    10     3   am
    56     1     2    1
    57    64    63    2
    58    19    18    1
    59    19    22    1
    60    89    91   ar
    61    40    41    1
    62    88    90   ar
    63    24    23   ar
    64    63    73   am
    65    30    31    1
    66     3     2    1
    67     3     4    2
    68     2     5    1
    69    22    23    1
    70    23    25   ar
    71    91    90   ar
    72    41    42   ar
    73    41    43   ar
    74    31    32    1
    75    73    74    1
    76     5     6    1
    77     6     7    1
    78    75    74    1
    79    75    76    2
    80    74    77    1
    81    32    33    1
    82    33    34    1
    83     9     7   ar
    84     7     8   ar
    85    77    78    1
    86    78    79    1
    87    79    80   ar
    88    79    81   ar
