@<TRIPOS>MOLECULE
tmp/4lqiN00.pdb
 112 104 0 0 0
SMALL
GASTEIGER

@<TRIPOS>ATOM
      1  N         43.6410 -144.1600   63.3770 N.3     1  THR1       -0.1218
      2  CA        43.5920 -142.9160   64.1990 C.3     1  THR1        0.1862
      3  C         42.6050 -143.1000   65.2930 C.2     1  THR1        0.2287
      4  O         41.4750 -143.5250   65.0530 O.2     1  THR1       -0.2866
      5  CB        43.0880 -141.7700   63.3970 C.3     1  THR1        0.1770
      6  OG1       43.6360 -141.8850   62.0870 O.3     1  THR1       -0.2211
      7  CG2       43.4300 -140.4470   64.0630 C.3     1  THR1        0.0375
      8  N         49.9210 -141.6990   65.4570 N.3    19  ARG19      -0.1231
      9  CA        50.3100 -142.2980   64.1870 C.3    19  ARG19       0.1694
     10  C         49.5630 -141.8130   62.9360 C.2    19  ARG19       0.2593
     11  O         48.3390 -141.7130   62.9360 O.2    19  ARG19      -0.2718
     12  CB        50.1770 -143.8220   64.2880 C.3    19  ARG19       0.0321
     13  CG        50.3900 -144.5720   62.9710 C.3    19  ARG19       0.0489
     14  CD        50.2960 -146.0750   63.1720 C.3    19  ARG19       0.2205
     15  NE        51.2350 -146.5220   64.1940 N.pl3  19  ARG19      -0.0865
     16  CZ        51.5160 -147.7920   64.4610 C.cat  19  ARG19       0.5346
     17  NH1       50.9310 -148.7670   63.7810 N.pl3  19  ARG19       0.1354
     18  NH2       52.3880 -148.0820   65.4160 N.pl3  19  ARG19       0.1354
     19  N         50.3080 -141.4720   61.8860 N.am   20  THR20      -0.1939
     20  CA        49.6800 -141.1060   60.6170 C.3    20  THR20       0.2028
     21  C         50.3490 -142.0240   59.5960 C.2    20  THR20       0.2642
     22  O         51.5700 -142.1940   59.5860 O.2    20  THR20      -0.2714
     23  CB        49.8800 -139.6170   60.1740 C.3    20  THR20       0.1808
     24  OG1       51.1100 -139.4840   59.4630 O.3    20  THR20      -0.2208
     25  CG2       49.8720 -138.6840   61.3570 C.3    20  THR20       0.0379
     26  N         49.5440 -142.6400   58.7500 N.am   21  THR21      -0.1950
     27  CA        50.0990 -143.5510   57.7720 C.3    21  THR21       0.1897
     28  C         49.7380 -143.1890   56.3500 C.2    21  THR21       0.2313
     29  O         48.7570 -142.5010   56.0970 O.2    21  THR21      -0.2863
     30  CB        49.6040 -144.9810   58.0320 C.3    21  THR21       0.1794
     31  OG1       48.1750 -144.9850   58.0340 O.3    21  THR21      -0.2208
     32  CG2       50.0730 -145.4790   59.3790 C.3    21  THR21       0.0378
     33  N         52.9130 -137.8080   65.8380 N.3    31  THR31      -0.1218
     34  CA        51.9960 -136.7500   65.4180 C.3    31  THR31       0.1862
     35  C         51.1680 -136.1730   66.5580 C.2    31  THR31       0.2287
     36  O         50.7960 -136.8850   67.4910 O.2    31  THR31      -0.2866
     37  CB        51.0020 -137.2740   64.3710 C.3    31  THR31       0.1770
     38  OG1       51.7110 -138.0230   63.3780 O.3    31  THR31      -0.2211
     39  CG2       50.2500 -136.1110   63.7110 C.3    31  THR31       0.0375
     40  N         47.7280 -134.8310   67.1040 N.3    33  LYS33      -0.1245
     41  CA        46.3770 -134.6960   66.5730 C.3    33  LYS33       0.1561
     42  C         45.4910 -133.7850   67.4120 C.2    33  LYS33       0.2260
     43  O         44.3310 -133.5480   67.0630 O.2    33  LYS33      -0.2867
     44  CB        45.7410 -136.0850   66.4530 C.3    33  LYS33       0.0271
     45  CG        46.6250 -137.0600   65.6930 C.3    33  LYS33       0.0035
     46  CD        46.0170 -138.4430   65.5560 C.3    33  LYS33       0.0206
     47  CE        46.9780 -139.3510   64.8010 C.3    33  LYS33       0.1093
     48  NZ        46.3940 -140.6590   64.4600 N.3    33  LYS33      -0.1314
     49  N         41.7270 -134.0840   65.5740 N.3    45  ARG45      -0.1231
     50  CA        41.6210 -134.2130   64.1310 C.3    45  ARG45       0.1694
     51  C         41.7140 -135.6590   63.6220 C.2    45  ARG45       0.2593
     52  O         42.4710 -136.4760   64.1470 O.2    45  ARG45      -0.2718
     53  CB        42.6980 -133.3550   63.4650 C.3    45  ARG45       0.0321
     54  CG        42.5940 -131.8700   63.7770 C.3    45  ARG45       0.0489
     55  CD        43.7030 -131.0650   63.1220 C.3    45  ARG45       0.2205
     56  NE        45.0270 -131.4440   63.6040 N.pl3  45  ARG45      -0.0865
     57  CZ        45.9130 -132.1470   62.9020 C.cat  45  ARG45       0.5346
     58  NH1       45.6220 -132.5560   61.6730 N.pl3  45  ARG45       0.1354
     59  NH2       47.1000 -132.4370   63.4220 N.pl3  45  ARG45       0.1354
     60  N         40.9110 -135.9610   62.6030 N.am   46  SER46      -0.1938
     61  CA        40.9000 -137.2750   61.9570 C.3    46  SER46       0.2055
     62  C         40.4680 -137.0600   60.5010 C.2    46  SER46       0.2644
     63  O         39.7370 -136.1110   60.1940 O.2    46  SER46      -0.2714
     64  CB        39.9360 -138.2430   62.6600 C.3    46  SER46       0.2130
     65  OG        38.5860 -138.0050   62.2970 O.3    46  SER46      -0.2179
     66  N         40.9250 -137.9380   59.6140 N.am   47  GLY47      -0.1939
     67  CA        40.5990 -137.8090   58.2050 C.3    47  GLY47       0.2014
     68  C         41.8070 -137.2570   57.4690 C.2    47  GLY47       0.2640
     69  O         42.9330 -137.6750   57.7270 O.2    47  GLY47      -0.2714
     70  N         41.5860 -136.3140   56.5610 N.am   48  SER48      -0.1935
     71  CA        42.6790 -135.7190   55.8000 C.3    48  SER48       0.2055
     72  C         43.5190 -134.7750   56.6590 C.2    48  SER48       0.2642
     73  O         42.9800 -133.8840   57.3250 O.2    48  SER48      -0.2714
     74  CB        42.1180 -134.9540   54.5960 C.3    48  SER48       0.2130
     75  OG        43.1040 -134.1030   54.0320 O.3    48  SER48      -0.2179
     76  N         44.8360 -134.9750   56.6380 N.am   49  ALA49      -0.1977
     77  CA        45.7610 -134.1370   57.4030 C.3    49  ALA49       0.1597
     78  C         45.7160 -132.7330   56.8460 C.2    49  ALA49       0.2287
     79  O         45.6110 -131.7580   57.5830 O.2    49  ALA49      -0.2864
     80  CB        47.1710 -134.6680   57.2850 C.3    49  ALA49       0.0319
     81  N         42.0770 -131.2310   57.6850 N.3    52  THR52      -0.1203
     82  CA        41.8640 -130.8790   59.0850 C.3    52  THR52       0.1994
     83  C         42.7700 -129.7150   59.5070 C.2    52  THR52       0.2617
     84  O         42.3230 -128.8050   60.2030 O.2    52  THR52      -0.2717
     85  CB        42.0790 -132.0880   60.0050 C.3    52  THR52       0.1784
     86  OG1       43.4100 -132.5940   59.8460 O.3    52  THR52      -0.2211
     87  CG2       41.0710 -133.1760   59.6680 C.3    52  THR52       0.0376
     88  N         44.0280 -129.7360   59.0650 N.am   53  GLN53      -0.1979
     89  CA        44.9760 -128.6650   59.3710 C.3    53  GLN53       0.1601
     90  C         44.4700 -127.3290   58.8350 C.2    53  GLN53       0.2287
     91  O         44.4520 -126.3290   59.5480 O.2    53  GLN53      -0.2864
     92  CB        46.3510 -128.9660   58.7580 C.3    53  GLN53       0.0394
     93  CG        47.2500 -129.8260   59.6290 C.3    53  GLN53       0.0908
     94  CD        48.6110 -130.1160   58.9960 C.2    53  GLN53       0.2608
     95  OE1       49.1490 -129.2950   58.2520 O.2    53  GLN53      -0.2717
     96  NE2       49.1820 -131.2790   59.3100 N.am   53  GLN53      -0.0878
     97  N         37.7730 -141.6700   64.6140 N.3   128  GLY128     -0.1210
     98  CA        38.9600 -142.2220   63.9940 C.3   128  GLY128      0.1956
     99  C         38.7200 -143.6970   63.7420 C.2   128  GLY128      0.2612
    100  O         37.8410 -144.3060   64.3620 O.2   128  GLY128     -0.2717
    101  N         39.4940 -144.2830   62.8340 N.am  129  SER129     -0.1952
    102  CA        39.3200 -145.6870   62.5070 C.3   129  SER129      0.1924
    103  C         39.4340 -146.5960   63.7350 C.2   129  SER129      0.2314
    104  O         38.7040 -147.5890   63.8510 O.2   129  SER129     -0.2863
    105  CB        40.3390 -146.0950   61.4470 C.3   129  SER129      0.2116
    106  OG        41.6510 -145.6990   61.8130 O.3   129  SER129     -0.2180
    107  N         46.1680 -148.4120   62.0950 N.3   168  SER168     -0.1217
    108  CA        46.3300 -147.0120   61.7350 C.3   168  SER168      0.1889
    109  C         46.5800 -146.1640   62.9700 C.2   168  SER168      0.2288
    110  O         46.8500 -144.9710   62.8700 O.2   168  SER168     -0.2866
    111  CB        45.0890 -146.5040   61.0140 C.3   168  SER168      0.2089
    112  OG        44.8090 -147.3160   59.8930 O.3   168  SER168     -0.2183
@<TRIPOS>BOND
     1    75    74    1
     2    74    71    1
     3    71    70    1
     4    71    72    1
     5    29    28    2
     6    28    27    1
     7    70    68   am
     8    76    72   am
     9    76    77    1
    10    72    73    2
    11    78    77    1
    12    78    79    2
    13    80    77    1
    14    68    69    2
    15    68    67    1
    16    81    82    1
    17    27    30    1
    18    27    26    1
    19    30    31    1
    20    30    32    1
    21    67    66    1
    22    95    94    2
    23    26    21   am
    24    92    89    1
    25    92    93    1
    26    90    89    1
    27    90    91    2
    28    94    96   am
    29    94    93    1
    30    88    89    1
    31    88    83   am
    32    82    83    1
    33    82    85    1
    34    24    23    1
    35    83    84    2
    36    22    21    2
    37    21    20    1
    38    66    62   am
    39    87    85    1
    40    86    85    1
    41   112   111    1
    42    23    20    1
    43    23    25    1
    44    63    62    2
    45    62    61    1
    46    20    19    1
    47   111   108    1
    48   105   106    1
    49   105   102    1
    50    58    57    1
    51   108   107    1
    52   108   109    1
    53    19    10   am
    54    61    60    1
    55    61    64    1
    56     6     5    1
    57    65    64    1
    58   102   101    1
    59   102   103    1
    60    60    51   am
    61   101    99   am
    62   110   109    2
    63    57    59    1
    64    57    56    2
    65    10    11    2
    66    10     9    1
    67    13    14    1
    68    13    12    1
    69    55    56    1
    70    55    54    1
    71    14    15    1
    72     1     2    1
    73    38    37    1
    74     5     7    1
    75     5     2    1
    76    53    54    1
    77    53    50    1
    78    51    50    1
    79    51    52    2
    80    39    37    1
    81   103   104    2
    82    99    98    1
    83    99   100    2
    84    17    16    1
    85    98    97    1
    86    50    49    1
    87     9    12    1
    88     9     8    1
    89    15    16    2
    90     2     3    1
    91    37    34    1
    92    48    47    1
    93    16    18    1
    94    47    46    1
    95     4     3    2
    96    34    33    1
    97    34    35    1
    98    46    45    1
    99    45    44    1
   100    44    41    1
   101    35    36    2
   102    41    40    1
   103    41    42    1
   104    43    42    2
