@<TRIPOS>MOLECULE
tmp/4lqiK00.pdb
 94 88 0 0 0
SMALL
GASTEIGER

@<TRIPOS>ATOM
      1  N         11.6100 -141.5450    9.2480 N.3     1  THR1       -0.1218
      2  CA        11.4090 -140.1990    8.6570 C.3     1  THR1        0.1862
      3  C         11.9360 -140.1330    7.2600 C.2     1  THR1        0.2287
      4  O         13.0440 -140.5850    6.9770 O.2     1  THR1       -0.2866
      5  CB        12.2020 -139.1510    9.3790 C.3     1  THR1        0.1770
      6  OG1       12.4310 -139.5940   10.7170 O.3     1  THR1       -0.2211
      7  CG2       11.5060 -137.8040    9.3070 C.3     1  THR1        0.0375
      8  N          5.2880 -139.7960   10.1840 N.3    19  ARG19      -0.1231
      9  CA         5.3950 -140.7090   11.3140 C.3    19  ARG19       0.1694
     10  C          6.4490 -140.2910   12.3430 C.2    19  ARG19       0.2592
     11  O          7.5450 -139.8350   12.0080 O.2    19  ARG19      -0.2718
     12  CB         5.6930 -142.1310   10.8230 C.3    19  ARG19       0.0321
     13  CG         5.8170 -143.1620   11.9410 C.3    19  ARG19       0.0489
     14  CD         5.9010 -144.5730   11.3830 C.3    19  ARG19       0.2205
     15  NE         4.6820 -144.9270   10.6640 N.pl3  19  ARG19      -0.0865
     16  CZ         4.4600 -146.1030   10.0850 C.cat  19  ARG19       0.5346
     17  NH1        5.3840 -147.0570   10.1370 N.pl3  19  ARG19       0.1354
     18  NH2        3.3090 -146.3240    9.4540 N.pl3  19  ARG19       0.1354
     19  N          6.0880 -140.4430   13.6080 N.am   20  ALA20      -0.1966
     20  CA         6.9760 -140.1280   14.7120 C.3    20  ALA20       0.1728
     21  C          6.9660 -141.3510   15.6150 C.2    20  ALA20       0.2616
     22  O          5.9050 -141.8180   16.0490 O.2    20  ALA20      -0.2715
     23  CB         6.4720 -138.9230   15.4650 C.3    20  ALA20       0.0334
     24  N          8.1540 -141.8720   15.8870 N.am   21  THR21      -0.1951
     25  CA         8.2860 -143.0440   16.7240 C.3    21  THR21       0.1897
     26  C          9.1510 -142.8140   17.9520 C.2    21  THR21       0.2313
     27  O         10.1050 -142.0410   17.9210 O.2    21  THR21      -0.2863
     28  CB         8.8750 -144.2240   15.9130 C.3    21  THR21       0.1794
     29  OG1        9.7590 -143.7180   14.9050 O.3    21  THR21      -0.2208
     30  CG2        7.7710 -145.0130   15.2490 C.3    21  THR21       0.0378
     31  N          2.2010 -135.9630   12.0330 N.3    31  VAL31      -0.1245
     32  CA         3.1420 -134.9070   12.3800 C.3    31  VAL31       0.1561
     33  C          3.4170 -134.0130   11.1760 C.2    31  VAL31       0.2260
     34  O          3.5010 -134.4970   10.0470 O.2    31  VAL31      -0.2867
     35  CB         4.4810 -135.5060   12.8790 C.3    31  VAL31       0.0252
     36  CG1        5.4620 -134.3930   13.2170 C.3    31  VAL31       0.0019
     37  CG2        4.2350 -136.3750   14.0880 C.3    31  VAL31       0.0019
     38  N          5.9440 -132.2940    9.2700 N.3    33  LYS33      -0.1245
     39  CA         7.3890 -132.2330    9.1410 C.3    33  LYS33       0.1561
     40  C          7.8410 -131.1090    8.2300 C.2    33  LYS33       0.2260
     41  O          9.0110 -130.9980    7.8820 O.2    33  LYS33      -0.2867
     42  CB         7.9370 -133.5810    8.6690 C.3    33  LYS33       0.0271
     43  CG         7.8000 -134.6680    9.7170 C.3    33  LYS33       0.0035
     44  CD         8.3080 -135.9890    9.2090 C.3    33  LYS33       0.0206
     45  CE         8.0900 -137.0700   10.2410 C.3    33  LYS33       0.1093
     46  NZ         8.4960 -138.4000    9.7040 N.3    33  LYS33      -0.1314
     47  N         11.6960 -131.1280    8.6000 N.3    45  MET45      -0.1230
     48  CA        12.1650 -131.5640    9.9150 C.3    45  MET45       0.1702
     49  C         12.6180 -133.0220    9.9830 C.2    45  MET45       0.2592
     50  O         11.8380 -133.9490    9.7570 O.2    45  MET45      -0.2718
     51  CB        11.0850 -131.3700   10.9830 C.3    45  MET45       0.0401
     52  CG        10.4950 -129.9730   11.0900 C.3    45  MET45       0.0596
     53  SD         9.4920 -129.7900   12.6150 S.3    45  MET45      -0.1393
     54  CE         8.5390 -131.3420   12.6620 C.3    45  MET45       0.0692
     55  N         13.8870 -133.2120   10.3110 N.am   46  ALA46      -0.1966
     56  CA        14.4500 -134.5390   10.4670 C.3    46  ALA46       0.1728
     57  C         15.2850 -134.4760   11.7460 C.2    46  ALA46       0.2617
     58  O         15.9220 -133.4580   12.0360 O.2    46  ALA46      -0.2715
     59  CB        15.3170 -134.8850    9.2670 C.3    46  ALA46       0.0334
     60  N         15.2690 -135.5480   12.5250 N.am   47  GLY47      -0.1940
     61  CA        16.0390 -135.5530   13.7560 C.3    47  GLY47       0.2014
     62  C         15.2310 -135.1230   14.9680 C.2    47  GLY47       0.2639
     63  O         14.2790 -135.7980   15.3610 O.2    47  GLY47      -0.2714
     64  N         15.5920 -133.9880   15.5560 N.am   48  GLY48      -0.1939
     65  CA        14.8800 -133.5190   16.7310 C.3    48  GLY48       0.2014
     66  C         13.6670 -132.6740   16.4160 C.2    48  GLY48       0.2638
     67  O         13.7810 -131.6200   15.7910 O.2    48  GLY48      -0.2714
     68  N         12.5000 -133.1430   16.8430 N.am   49  ALA49      -0.1977
     69  CA        11.2450 -132.4280   16.6260 C.3    49  ALA49       0.1597
     70  C         11.3330 -131.0140   17.1860 C.2    49  ALA49       0.2287
     71  O         11.1650 -130.0320   16.4710 O.2    49  ALA49      -0.2864
     72  CB        10.1320 -133.1620   17.3120 C.3    49  ALA49       0.0319
     73  N         16.6390 -138.3800    6.5110 N.3   130  GLY130     -0.1210
     74  CA        15.8540 -139.2760    7.3450 C.3   130  GLY130      0.1956
     75  C         16.2050 -140.7430    7.1690 C.2   130  GLY130      0.2612
     76  O         16.9410 -141.1210    6.2590 O.2   130  GLY130     -0.2717
     77  N         15.6670 -141.5830    8.0420 N.am  131  SER131     -0.1952
     78  CA        15.9430 -143.0090    7.9740 C.3   131  SER131      0.1924
     79  C         15.4300 -143.6410    6.6880 C.2   131  SER131      0.2314
     80  O         15.6860 -144.8170    6.4310 O.2   131  SER131     -0.2863
     81  CB        15.3210 -143.7140    9.1740 C.3   131  SER131      0.2116
     82  OG        13.9630 -143.3570    9.2980 O.3   131  SER131     -0.2180
     83  N         10.2780 -146.7380   10.1260 N.3   170  TYR170     -0.1241
     84  CA        10.1260 -145.4490   10.7730 C.3   170  TYR170      0.1605
     85  C          9.5190 -144.3460    9.9120 C.2   170  TYR170      0.2264
     86  O          9.3970 -143.1970   10.3480 O.2   170  TYR170     -0.2867
     87  CB        11.4790 -145.0450   11.3580 C.3   170  TYR170      0.0534
     88  CG        11.9390 -146.0870   12.3420 C.ar  170  TYR170     -0.0201
     89  CD1       11.1570 -146.3970   13.4550 C.ar  170  TYR170     -0.0009
     90  CD2       13.0860 -146.8480   12.1130 C.ar  170  TYR170     -0.0009
     91  CE1       11.4920 -147.4460   14.3100 C.ar  170  TYR170      0.0417
     92  CE2       13.4320 -147.9030   12.9630 C.ar  170  TYR170      0.0417
     93  CZ        12.6250 -148.1980   14.0590 C.ar  170  TYR170      0.1957
     94  OH        12.9170 -149.2610   14.8930 O.3   170  TYR170     -0.2866
@<TRIPOS>BOND
     1    76    75    2
     2    80    79    2
     3    73    74    1
     4    79    78    1
     5     4     3    2
     6    75    74    1
     7    75    77   am
     8     3     2    1
     9    41    40    2
    10    78    77    1
    11    78    81    1
    12    40    39    1
    13    47    48    1
    14     2     1    1
    15     2     5    1
    16    42    39    1
    17    42    43    1
    18    39    38    1
    19    81    82    1
    20    44    43    1
    21    44    45    1
    22    59    56    1
    23     7     5    1
    24     5     6    1
    25    18    16    1
    26    46    45    1
    27    50    49    2
    28    85    86    2
    29    85    84    1
    30    48    49    1
    31    48    51    1
    32    49    55   am
    33    34    33    2
    34    16    17    1
    35    16    15    2
    36    83    84    1
    37     8     9    1
    38    55    56    1
    39    56    57    1
    40    15    14    1
    41    84    87    1
    42    12     9    1
    43    12    13    1
    44    51    52    1
    45    52    53    1
    46    33    32    1
    47     9    10    1
    48    87    88    1
    49    14    13    1
    50    57    58    2
    51    57    60   am
    52    11    10    2
    53    31    32    1
    54    90    88   ar
    55    90    92   ar
    56    88    89   ar
    57    10    19   am
    58    32    35    1
    59    60    61    1
    60    53    54    1
    61    35    36    1
    62    35    37    1
    63    92    93   ar
    64    89    91   ar
    65    19    20    1
    66    61    62    1
    67    93    91   ar
    68    93    94    1
    69    20    23    1
    70    20    21    1
    71    29    28    1
    72    62    63    2
    73    62    64   am
    74    30    28    1
    75    64    65    1
    76    21    24   am
    77    21    22    2
    78    67    66    2
    79    24    25    1
    80    28    25    1
    81    66    65    1
    82    66    68   am
    83    71    70    2
    84    69    68    1
    85    69    70    1
    86    69    72    1
    87    25    26    1
    88    27    26    2
