@<TRIPOS>MOLECULE
tmp/4lqyA02.pdb
 181 175 0 0 0
SMALL
GASTEIGER

@<TRIPOS>ATOM
      1  N        -29.6070  134.6140   12.7380 N.3    11  ASP11      -0.1239
      2  CA       -28.8730  135.4800   13.6610 C.3    11  ASP11       0.1674
      3  C        -27.8730  134.7180   14.5170 C.2    11  ASP11       0.2266
      4  O        -28.1740  133.6330   15.0450 O.2    11  ASP11      -0.2867
      5  CB       -29.8490  136.2570   14.5580 C.3    11  ASP11       0.1410
      6  CG       -29.2400  137.5360   15.0970 C.2    11  ASP11       0.3668
      7  OD1      -28.2240  137.4400   15.8150 O.co2  11  ASP11      -0.2456
      8  OD2      -29.7530  138.6350   14.8190 O.co2  11  ASP11      -0.2456
      9  N        -22.6960  143.6590   16.7050 N.3    46  LYS46      -0.1231
     10  CA       -24.0600  143.4910   17.1710 C.3    46  LYS46       0.1693
     11  C        -24.9980  143.3350   15.9860 C.2    46  LYS46       0.2593
     12  O        -24.6130  143.5650   14.8300 O.2    46  LYS46      -0.2718
     13  CB       -24.4870  144.7040   18.0220 C.3    46  LYS46       0.0285
     14  CG       -23.7260  144.8080   19.3670 C.3    46  LYS46       0.0035
     15  CD       -24.1180  143.7270   20.3300 C.3    46  LYS46       0.0206
     16  CE       -23.5850  144.0550   21.7330 C.3    46  LYS46       0.1093
     17  NZ       -23.9090  142.9990   22.7290 N.3    46  LYS46      -0.1314
     18  N        -26.2470  142.9810   16.2880 N.am   47  THR47      -0.1939
     19  CA       -27.2320  142.6070   15.2820 C.3    47  THR47       0.2028
     20  C        -27.6760  143.6880   14.3340 C.2    47  THR47       0.2642
     21  O        -27.5990  143.5220   13.1090 O.2    47  THR47      -0.2714
     22  CB       -28.4740  142.0080   15.9970 C.3    47  THR47       0.1808
     23  OG1      -28.0620  140.8200   16.6820 O.3    47  THR47      -0.2208
     24  CG2      -29.6270  141.6820   15.0020 C.3    47  THR47       0.0379
     25  N        -28.1820  144.7810   14.8830 N.am   48  PHE48      -0.1973
     26  CA       -28.6940  145.8440   14.0070 C.3    48  PHE48       0.1639
     27  C        -27.5890  146.4630   13.1410 C.2    48  PHE48       0.2290
     28  O        -27.7700  146.6050   11.9260 O.2    48  PHE48      -0.2864
     29  CB       -29.5390  146.8610   14.7930 C.3    48  PHE48       0.0560
     30  CG       -30.9790  146.4320   14.9710 C.ar   48  PHE48      -0.0200
     31  CD1      -31.3150  145.4090   15.8470 C.ar   48  PHE48      -0.0042
     32  CD2      -31.9810  147.0150   14.2250 C.ar   48  PHE48      -0.0042
     33  CE1      -32.6530  145.0130   15.9980 C.ar   48  PHE48      -0.0003
     34  CE2      -33.2890  146.6310   14.3700 C.ar   48  PHE48      -0.0003
     35  CZ       -33.6360  145.6260   15.2510 C.ar   48  PHE48      -0.0000
     36  N        -27.2210  148.4340   18.9470 N.3    68  ASN68      -0.1240
     37  CA       -28.6270  148.0970   19.1070 C.3    68  ASN68       0.1653
     38  C        -29.3660  149.1020   19.9780 C.2    68  ASN68       0.2266
     39  O        -30.5910  149.1760   19.9260 O.2    68  ASN68      -0.2867
     40  CB       -28.8150  146.7020   19.7230 C.3    68  ASN68       0.1155
     41  CG       -28.2630  145.5880   18.8710 C.2    68  ASN68       0.2627
     42  OD1      -28.2570  145.6520   17.6270 O.2    68  ASN68      -0.2716
     43  ND2      -27.8030  144.5220   19.5460 N.am   68  ASN68      -0.0877
     44  N        -33.8440  147.9640   19.9890 N.3    81  ASP81      -0.1225
     45  CA       -34.3100  146.9230   19.0700 C.3    81  ASP81       0.1805
     46  C        -35.8210  146.9640   18.8820 C.2    81  ASP81       0.2598
     47  O        -36.3080  146.8680   17.7560 O.2    81  ASP81      -0.2718
     48  CB       -33.8700  145.5280   19.5180 C.3    81  ASP81       0.1424
     49  CG       -34.2390  145.2330   20.9570 C.2    81  ASP81       0.3668
     50  OD1      -35.2360  145.7800   21.4590 O.co2  81  ASP81      -0.2456
     51  OD2      -33.5150  144.4520   21.6020 O.co2  81  ASP81      -0.2456
     52  N        -36.5440  147.1400   19.9860 N.am   82  SER82      -0.1952
     53  CA       -37.9920  147.3110   19.9380 C.3    82  SER82       0.1924
     54  C        -38.3770  148.6820   19.3740 C.2    82  SER82       0.2314
     55  O        -39.2580  148.7890   18.5060 O.2    82  SER82      -0.2863
     56  CB       -38.6080  147.1100   21.3320 C.3    82  SER82       0.2116
     57  OG       -38.0800  148.0240   22.2800 O.3    82  SER82      -0.2180
     58  N        -37.4540  150.8460   17.1330 N.3    84  ASP84      -0.1239
     59  CA       -36.5300  150.9620   16.0140 C.3    84  ASP84       0.1674
     60  C        -37.2000  151.4630   14.7380 C.2    84  ASP84       0.2266
     61  O        -36.6640  151.2790   13.6400 O.2    84  ASP84      -0.2867
     62  CB       -35.8660  149.6020   15.7570 C.3    84  ASP84       0.1410
     63  CG       -36.7500  148.6460   14.9490 C.2    84  ASP84       0.3668
     64  OD1      -37.9950  148.6600   15.1030 O.co2  84  ASP84      -0.2456
     65  OD2      -36.1960  147.9000   14.1140 O.co2  84  ASP84      -0.2456
     66  N        -36.5320  140.9030    8.4360 N.3   113  TRP113     -0.1228
     67  CA       -35.1650  141.4370    8.4530 C.3   113  TRP113      0.1722
     68  C        -35.1660  142.8350    9.0740 C.2   113  TRP113      0.2437
     69  O        -36.0450  143.6520    8.7910 O.2   113  TRP113     -0.2733
     70  CB       -34.6290  141.5010    7.0240 C.3   113  TRP113      0.0563
     71  CG       -33.1820  141.9120    6.8840 C.ar  113  TRP113      0.0003
     72  CD1      -32.6600  143.1780    7.0350 C.ar  113  TRP113      0.0946
     73  CD2      -32.0870  141.0620    6.5240 C.ar  113  TRP113      0.0152
     74  NE1      -31.2960  143.1520    6.7880 N.ar  113  TRP113     -0.2442
     75  CE2      -30.9270  141.8660    6.4880 C.ar  113  TRP113      0.0810
     76  CE3      -31.9790  139.7030    6.2180 C.ar  113  TRP113      0.0012
     77  CZ2      -29.6620  141.3480    6.1570 C.ar  113  TRP113      0.0191
     78  CZ3      -30.7470  139.1800    5.9140 C.ar  113  TRP113      0.0001
     79  CH2      -29.5850  140.0090    5.8920 C.ar  113  TRP113      0.0015
     80  N        -34.1730  143.1230    9.9340 N.am  114  PRO114     -0.2718
     81  CA       -34.1120  144.4340   10.6010 C.3   114  PRO114      0.1535
     82  C        -34.2200  145.6340    9.6440 C.2   114  PRO114      0.2599
     83  O        -33.4770  145.7430    8.6460 O.2   114  PRO114     -0.2715
     84  CB       -32.7470  144.3940   11.3200 C.3   114  PRO114      0.0310
     85  CG       -32.5350  142.9640   11.5730 C.3   114  PRO114      0.0237
     86  CD       -33.0980  142.2260   10.3950 C.3   114  PRO114      0.0939
     87  N        -35.2020  146.5030    9.9230 N.am  115  GLY115     -0.1955
     88  CA       -35.4210  147.7070    9.1270 C.3   115  GLY115      0.1869
     89  C        -36.4020  147.5600    7.9820 C.2   115  GLY115      0.2309
     90  O        -36.7670  148.5530    7.3510 O.2   115  GLY115     -0.2863
     91  N        -39.4270  146.7470    7.9480 N.3   117  ASP117     -0.1239
     92  CA       -40.7560  147.2730    8.2720 C.3   117  ASP117      0.1674
     93  C        -40.7510  148.7960    8.4950 C.2   117  ASP117      0.2266
     94  O        -41.7040  149.3720    9.0360 O.2   117  ASP117     -0.2867
     95  CB       -41.3720  146.5400    9.4770 C.3   117  ASP117      0.1410
     96  CG       -40.4920  146.5960   10.7290 C.2   117  ASP117      0.3668
     97  OD1      -39.3140  147.0290   10.6340 O.co2 117  ASP117     -0.2456
     98  OD2      -40.9720  146.1620   11.8060 O.co2 117  ASP117     -0.2456
     99  N        -42.3220  143.4550   12.3750 N.3   131  TYR131     -0.1241
    100  CA       -41.5420  142.5310   13.1930 C.3   131  TYR131      0.1605
    101  C        -42.3340  141.9000   14.3240 C.2   131  TYR131      0.2264
    102  O        -42.9870  142.5920   15.1110 O.2   131  TYR131     -0.2867
    103  CB       -40.2770  143.1640   13.7600 C.3   131  TYR131      0.0534
    104  CG       -39.4510  142.1070   14.4360 C.ar  131  TYR131     -0.0201
    105  CD1      -39.4480  141.9780   15.8190 C.ar  131  TYR131     -0.0009
    106  CD2      -38.7320  141.1800   13.6820 C.ar  131  TYR131     -0.0009
    107  CE1      -38.7130  140.9900   16.4410 C.ar  131  TYR131      0.0417
    108  CE2      -38.0080  140.1800   14.2920 C.ar  131  TYR131      0.0417
    109  CZ       -37.9940  140.0960   15.6750 C.ar  131  TYR131      0.1957
    110  OH       -37.2620  139.1110   16.2940 O.3   131  TYR131     -0.2866
    111  N        -35.3200  136.3650    7.8100 N.3   161  TYR161     -0.1241
    112  CA       -34.5460  136.4870    9.0500 C.3   161  TYR161      0.1605
    113  C        -35.0710  135.5580   10.1260 C.2   161  TYR161      0.2264
    114  O        -36.2860  135.3780   10.2620 O.2   161  TYR161     -0.2867
    115  CB       -34.5830  137.9300    9.5520 C.3   161  TYR161      0.0534
    116  CG       -34.0240  138.1250   10.9370 C.ar  161  TYR161     -0.0201
    117  CD1      -32.6590  138.2890   11.1450 C.ar  161  TYR161     -0.0009
    118  CD2      -34.8710  138.1500   12.0390 C.ar  161  TYR161     -0.0009
    119  CE1      -32.1510  138.4640   12.4180 C.ar  161  TYR161      0.0417
    120  CE2      -34.3660  138.3320   13.3050 C.ar  161  TYR161      0.0417
    121  CZ       -33.0140  138.4800   13.4830 C.ar  161  TYR161      0.1957
    122  OH       -32.5150  138.6500   14.7590 O.3   161  TYR161     -0.2866
    123  N        -34.2420  134.3440   14.4180 N.3   163  GLU163     -0.1245
    124  CA       -33.5940  134.8060   15.6500 C.3   163  GLU163      0.1567
    125  C        -32.5870  133.8340   16.2350 C.2   163  GLU163      0.2260
    126  O        -31.8220  134.2030   17.1340 O.2   163  GLU163     -0.2867
    127  CB       -34.6430  135.0890   16.7390 C.3   163  GLU163      0.0388
    128  CG       -35.5450  136.2860   16.4430 C.3   163  GLU163      0.1160
    129  CD       -36.6550  135.9830   15.4490 C.2   163  GLU163      0.3649
    130  OE1      -37.2730  136.9550   14.9510 O.co2 163  GLU163     -0.2457
    131  OE2      -36.9100  134.7920   15.1650 O.co2 163  GLU163     -0.2457
    132  N        -28.7030  132.7960   17.5770 N.3   166  ASP166     -0.1225
    133  CA       -28.3360  133.8690   18.5190 C.3   166  ASP166      0.1805
    134  C        -29.0140  133.7330   19.8810 C.2   166  ASP166      0.2597
    135  O        -28.3510  133.7550   20.9100 O.2   166  ASP166     -0.2718
    136  CB       -28.6460  135.2400   17.9160 C.3   166  ASP166      0.1424
    137  CG       -28.3560  136.3930   18.8670 C.2   166  ASP166      0.3668
    138  OD1      -27.2010  136.8280   18.9180 O.co2 166  ASP166     -0.2456
    139  OD2      -29.2970  136.8510   19.5600 O.co2 166  ASP166     -0.2456
    140  N        -30.3400  133.6060   19.8910 N.am  167  ALA167     -0.1979
    141  CA       -31.0570  133.6370   21.1460 C.3   167  ALA167      0.1597
    142  C        -30.5840  132.5590   22.1120 C.2   167  ALA167      0.2287
    143  O        -30.3540  132.8330   23.3000 O.2   167  ALA167     -0.2864
    144  CB       -32.5680  133.5000   20.8860 C.3   167  ALA167      0.0319
    145  N        -26.9370  132.9370   23.3900 N.3   170  HIS170     -0.1241
    146  CA       -26.8940  133.7980   24.5850 C.3   170  HIS170      0.1621
    147  C        -27.2300  133.0100   25.8470 C.2   170  HIS170      0.2264
    148  O        -26.5690  133.1560   26.8760 O.2   170  HIS170     -0.2867
    149  CB       -27.8620  134.9760   24.4610 C.3   170  HIS170      0.0745
    150  CG       -27.3860  136.0790   23.5620 C.ar  170  HIS170      0.0817
    151  ND1      -26.2470  136.8060   23.8290 N.ar  170  HIS170     -0.2268
    152  CD2      -27.8970  136.5850   22.4130 C.ar  170  HIS170      0.1154
    153  CE1      -26.0620  137.7000   22.8750 C.ar  170  HIS170      0.1986
    154  NE2      -27.0660  137.6080   22.0160 N.ar  170  HIS170     -0.2212
    155  N        -25.6140  136.3110   31.2750 N.3   309  LYS309     -0.1245
    156  CA       -25.8020  135.8800   29.9020 C.3   309  LYS309      0.1561
    157  C        -24.5490  135.1080   29.5000 C.2   309  LYS309      0.2260
    158  O        -23.4770  135.7030   29.3770 O.2   309  LYS309     -0.2867
    159  CB       -25.9880  137.1070   28.9920 C.3   309  LYS309      0.0271
    160  CG       -26.6830  136.8130   27.6810 C.3   309  LYS309      0.0035
    161  CD       -27.3520  138.0590   27.0580 C.3   309  LYS309      0.0206
    162  CE       -26.3770  139.1830   26.7950 C.3   309  LYS309      0.1093
    163  NZ       -27.0450  140.3600   26.1430 N.3   309  LYS309     -0.1314
    164  N        -22.1490  135.9210   24.5020 N.3   312  ASP312     -0.1225
    165  CA       -22.3490  137.2790   23.9920 C.3   312  ASP312      0.1805
    166  C        -21.5020  137.5840   22.7690 C.2   312  ASP312      0.2597
    167  O        -20.5710  136.8350   22.4140 O.2   312  ASP312     -0.2718
    168  CB       -22.1150  138.3410   25.0760 C.3   312  ASP312      0.1424
    169  CG       -22.9840  139.5910   24.8690 C.2   312  ASP312      0.3668
    170  OD1      -23.8370  139.6300   23.9510 O.co2 312  ASP312     -0.2456
    171  OD2      -22.8630  140.5440   25.6700 O.co2 312  ASP312     -0.2456
    172  N        -21.8310  138.6970   22.1240 N.am  313  HIS313     -0.1975
    173  CA       -21.0730  139.1830   20.9730 C.3   313  HIS313      0.1656
    174  C        -21.0930  140.7130   21.0290 C.2   313  HIS313      0.2291
    175  O        -21.7640  141.2890   21.8770 O.2   313  HIS313     -0.2864
    176  CB       -21.7140  138.6730   19.6760 C.3   313  HIS313      0.0771
    177  CG       -23.1770  138.9640   19.5980 C.ar  313  HIS313      0.0820
    178  ND1      -23.6710  140.1230   19.0370 N.ar  313  HIS313     -0.2267
    179  CD2      -24.2400  138.3120   20.1250 C.ar  313  HIS313      0.1154
    180  CE1      -24.9930  140.1350   19.1630 C.ar  313  HIS313      0.1986
    181  NE2      -25.3610  139.0520   19.8360 N.ar  313  HIS313     -0.2212
@<TRIPOS>BOND
     1    79    78   ar
     2    79    77   ar
     3    78    76   ar
     4    77    75   ar
     5    76    73   ar
     6    75    73   ar
     7    75    74   ar
     8    73    71   ar
     9    74    72   ar
    10    71    70    1
    11    71    72   ar
    12    70    67    1
    13    90    89    2
    14   111   112    1
    15    91    92    1
    16    89    88    1
    17    92    93    1
    18    92    95    1
    19    66    67    1
    20    67    68    1
    21    93    94    2
    22    83    82    2
    23    69    68    2
    24   112   115    1
    25   112   113    1
    26    68    80   am
    27    88    87    1
    28    95    96    1
    29   115   116    1
    30    82    87   am
    31    82    81    1
    32    80    86    1
    33    80    81    1
    34   113   114    2
    35    86    85    1
    36    81    84    1
    37    97    96   ar
    38    96    98   ar
    39   116   117   ar
    40   116   118   ar
    41   117   119   ar
    42    84    85    1
    43    28    27    2
    44   118   120   ar
    45    99   100    1
    46   119   121   ar
    47     1     2    1
    48    21    20    2
    49    27    26    1
    50   100   103    1
    51   100   101    1
    52   120   121   ar
    53   121   122    1
    54    61    60    2
    55     2     3    1
    56     2     5    1
    57   106   108   ar
    58   106   104   ar
    59   103   104    1
    60    26    29    1
    61    26    25    1
    62    65    63   ar
    63    32    34   ar
    64    32    30   ar
    65   108   109   ar
    66   101   102    2
    67    20    25   am
    68    20    19    1
    69    34    35   ar
    70   123   124    1
    71   104   105   ar
    72     3     4    2
    73     5     6    1
    74    60    59    1
    75    29    30    1
    76     8     6   ar
    77    12    11    2
    78    63    64   ar
    79    63    62    1
    80   130   129   ar
    81    30    31   ar
    82    24    22    1
    83     6     7   ar
    84   131   129   ar
    85    35    33   ar
    86    19    22    1
    87    19    18    1
    88   129   128    1
    89   124   125    1
    90   124   127    1
    91   109   110    1
    92   109   107   ar
    93    62    59    1
    94   105   107   ar
    95    31    33   ar
    96    11    18   am
    97    11    10    1
    98    22    23    1
    99    59    58    1
   100   125   126    2
   101   128   127    1
   102     9    10    1
   103    10    13    1
   104   132   133    1
   105    42    41    2
   106    47    46    2
   107   136   133    1
   108   136   137    1
   109    13    14    1
   110    55    54    2
   111   133   134    1
   112   137   138   ar
   113   137   139   ar
   114    41    43   am
   115    41    40    1
   116    46    45    1
   117    46    52   am
   118    36    37    1
   119   178   180   ar
   120   178   177   ar
   121    45    48    1
   122    45    44    1
   123    37    40    1
   124    37    38    1
   125   180   181   ar
   126    14    15    1
   127    54    53    1
   128    48    49    1
   129   177   176    1
   130   177   179   ar
   131   176   173    1
   132   181   179   ar
   133   134   140   am
   134   134   135    2
   135   140   141    1
   136    39    38    2
   137    53    52    1
   138    53    56    1
   139    15    16    1
   140   144   141    1
   141    49    50   ar
   142    49    51   ar
   143   173   174    1
   144   173   172    1
   145   174   175    2
   146   141   142    1
   147    56    57    1
   148    16    17    1
   149   154   152   ar
   150   154   153   ar
   151   142   143    2
   152   172   166   am
   153   152   150   ar
   154   167   166    2
   155   166   165    1
   156   153   151   ar
   157   145   146    1
   158   150   151   ar
   159   150   149    1
   160   170   169   ar
   161   165   164    1
   162   165   168    1
   163   149   146    1
   164   146   147    1
   165   169   168    1
   166   169   171   ar
   167   147   148    2
   168   163   162    1
   169   162   161    1
   170   161   160    1
   171   160   159    1
   172   159   156    1
   173   158   157    2
   174   157   156    1
   175   156   155    1
