@<TRIPOS>MOLECULE
tmp/4lr2A02.pdb
 82 77 0 0 0
SMALL
GASTEIGER

@<TRIPOS>ATOM
      1  N        -22.6730   14.8690   16.8280 N.3    46  LYS46      -0.1231
      2  CA       -24.0350   14.7150   17.3150 C.3    46  LYS46       0.1693
      3  C        -24.9830   14.5630   16.1310 C.2    46  LYS46       0.2592
      4  O        -24.6020   14.7950   14.9750 O.2    46  LYS46      -0.2718
      5  CB       -24.4340   15.9270   18.1630 C.3    46  LYS46       0.0285
      6  CG       -23.6690   16.0360   19.4930 C.3    46  LYS46       0.0035
      7  CD       -24.0640   14.9600   20.4720 C.3    46  LYS46       0.0206
      8  CE       -23.5610   15.3750   21.8510 C.3    46  LYS46       0.1093
      9  NZ       -23.7310   14.3100   22.8870 N.3    46  LYS46      -0.1314
     10  N        -26.2380   14.2430   16.4290 N.am   47  THR47      -0.1953
     11  CA       -27.2150   13.8350   15.4100 C.3    47  THR47       0.1897
     12  C        -27.6730   14.9070   14.4300 C.2    47  THR47       0.2313
     13  O        -27.5450   14.7280   13.2070 O.2    47  THR47      -0.2863
     14  CB       -28.4380   13.1750   16.0920 C.3    47  THR47       0.1794
     15  OG1      -28.0000   11.9760   16.7550 O.3    47  THR47      -0.2208
     16  CG2      -29.5530   12.8590   15.0710 C.3    47  THR47       0.0378
     17  N        -27.1880   19.6260   19.1200 N.3    68  ASN68      -0.1240
     18  CA       -28.5880   19.2780   19.2890 C.3    68  ASN68       0.1653
     19  C        -29.3460   20.2910   20.1360 C.2    68  ASN68       0.2266
     20  O        -30.5740   20.3230   20.0890 O.2    68  ASN68      -0.2867
     21  CB       -28.7510   17.8600   19.8610 C.3    68  ASN68       0.1155
     22  CG       -29.0350   16.8240   18.7820 C.2    68  ASN68       0.2627
     23  OD1      -28.3960   16.8240   17.7130 O.2    68  ASN68      -0.2716
     24  ND2      -30.0360   15.9650   19.0280 N.am   68  ASN68      -0.0877
     25  N        -34.0420   19.2880   19.8780 N.3    81  ASP81      -0.1239
     26  CA       -34.4870   18.3450   18.8480 C.3    81  ASP81       0.1674
     27  C        -35.9960   18.3760   18.6610 C.2    81  ASP81       0.2266
     28  O        -36.4830   18.3270   17.5190 O.2    81  ASP81      -0.2867
     29  CB       -33.9890   16.9180   19.1160 C.3    81  ASP81       0.1410
     30  CG       -34.4470   16.3750   20.4570 C.2    81  ASP81       0.3668
     31  OD1      -34.7970   17.1770   21.3530 O.co2  81  ASP81      -0.2456
     32  OD2      -34.4490   15.1330   20.6150 O.co2  81  ASP81      -0.2456
     33  N        -28.7600    4.0660   17.7650 N.3   166  ASP166     -0.1225
     34  CA       -28.3340    5.1140   18.7010 C.3   166  ASP166      0.1805
     35  C        -29.0040    4.9990   20.0750 C.2   166  ASP166      0.2597
     36  O        -28.3280    4.9800   21.1050 O.2   166  ASP166     -0.2718
     37  CB       -28.6200    6.4850   18.0980 C.3   166  ASP166      0.1424
     38  CG       -28.0700    7.6250   18.9500 C.2   166  ASP166      0.3668
     39  OD1      -26.8430    7.7270   19.0890 O.co2 166  ASP166     -0.2456
     40  OD2      -28.8630    8.4260   19.4640 O.co2 166  ASP166     -0.2456
     41  N        -30.3300    4.9160   20.0880 N.am  167  ALA167     -0.1979
     42  CA       -31.0820    4.8750   21.3450 C.3   167  ALA167      0.1597
     43  C        -30.5880    3.7710   22.2850 C.2   167  ALA167      0.2287
     44  O        -30.3400    4.0240   23.4850 O.2   167  ALA167     -0.2864
     45  CB       -32.5870    4.7080   21.0660 C.3   167  ALA167      0.0319
     46  N        -26.9170    4.1240   23.6140 N.3   170  HIS170     -0.1241
     47  CA       -26.8510    4.9790   24.7990 C.3   170  HIS170      0.1621
     48  C        -27.2140    4.1750   26.0340 C.2   170  HIS170      0.2264
     49  O        -26.5470    4.2740   27.0690 O.2   170  HIS170     -0.2867
     50  CB       -27.8170    6.1560   24.6890 C.3   170  HIS170      0.0745
     51  CG       -27.3270    7.2690   23.8090 C.ar  170  HIS170      0.0817
     52  ND1      -26.1590    7.9530   24.0690 N.ar  170  HIS170     -0.2268
     53  CD2      -27.8420    7.8080   22.6790 C.ar  170  HIS170      0.1154
     54  CE1      -25.9660    8.8700   23.1360 C.ar  170  HIS170      0.1986
     55  NE2      -26.9810    8.8020   22.2770 N.ar  170  HIS170     -0.2212
     56  N        -25.5030    7.4330   31.6010 N.3   309  LYS309     -0.1245
     57  CA       -25.6910    7.0830   30.2030 C.3   309  LYS309      0.1561
     58  C        -24.4560    6.2830   29.7720 C.2   309  LYS309      0.2260
     59  O        -23.3730    6.8610   29.6300 O.2   309  LYS309     -0.2867
     60  CB       -25.8210    8.3370   29.3370 C.3   309  LYS309      0.0271
     61  CG       -26.5290    8.1040   28.0200 C.3   309  LYS309      0.0035
     62  CD       -26.4330    9.3200   27.0900 C.3   309  LYS309      0.0206
     63  CE       -27.0680   10.5630   27.6770 C.3   309  LYS309      0.1093
     64  NZ       -26.8350   11.7490   26.7930 N.3   309  LYS309     -0.1314
     65  N        -22.1290    7.1150   24.6890 N.3   312  ASP312     -0.1225
     66  CA       -22.3130    8.4690   24.1900 C.3   312  ASP312      0.1805
     67  C        -21.4930    8.7500   22.9540 C.2   312  ASP312      0.2597
     68  O        -20.5530    8.0000   22.6090 O.2   312  ASP312     -0.2718
     69  CB       -22.0590    9.5180   25.2760 C.3   312  ASP312      0.1424
     70  CG       -22.9000   10.8030   25.0610 C.2   312  ASP312      0.3668
     71  OD1      -23.7840   10.8170   24.1450 O.co2 312  ASP312     -0.2456
     72  OD2      -22.7150   11.7770   25.8410 O.co2 312  ASP312     -0.2456
     73  N        -21.8450    9.8570   22.3000 N.am  313  HIS313     -0.1975
     74  CA       -21.1040   10.3480   21.1500 C.3   313  HIS313      0.1656
     75  C        -21.0680   11.8740   21.2240 C.2   313  HIS313      0.2291
     76  O        -21.7320   12.4980   22.0790 O.2   313  HIS313     -0.2864
     77  CB       -21.7660    9.9110   19.8360 C.3   313  HIS313      0.0771
     78  CG       -23.2330   10.2090   19.7690 C.ar  313  HIS313      0.0820
     79  ND1      -23.7260   11.3930   19.2570 N.ar  313  HIS313     -0.2267
     80  CD2      -24.3070    9.5320   20.2440 C.ar  313  HIS313      0.1154
     81  CE1      -25.0470   11.4090   19.3720 C.ar  313  HIS313      0.1986
     82  NE2      -25.4250   10.2870   19.9710 N.ar  313  HIS313     -0.2212
@<TRIPOS>BOND
     1    13    12    2
     2    12    11    1
     3     4     3    2
     4    16    14    1
     5    11    14    1
     6    11    10    1
     7    14    15    1
     8     3    10   am
     9     3     2    1
    10     1     2    1
    11     2     5    1
    12    28    27    2
    13    23    22    2
    14    33    34    1
    15    37    34    1
    16    37    38    1
    17     5     6    1
    18    27    26    1
    19    34    35    1
    20    22    24   am
    21    22    21    1
    22    26    29    1
    23    26    25    1
    24    38    39   ar
    25    38    40   ar
    26    29    30    1
    27    17    18    1
    28    79    81   ar
    29    79    78   ar
    30    18    21    1
    31    18    19    1
    32    81    82   ar
    33     6     7    1
    34    78    77    1
    35    78    80   ar
    36    77    74    1
    37    82    80   ar
    38    35    41   am
    39    35    36    2
    40    41    42    1
    41    20    19    2
    42    30    32   ar
    43    30    31   ar
    44     7     8    1
    45    45    42    1
    46    74    75    1
    47    74    73    1
    48    75    76    2
    49    42    43    1
    50     8     9    1
    51    55    53   ar
    52    55    54   ar
    53    43    44    2
    54    73    67   am
    55    68    67    2
    56    53    51   ar
    57    67    66    1
    58    54    52   ar
    59    46    47    1
    60    51    52   ar
    61    51    50    1
    62    71    70   ar
    63    66    65    1
    64    66    69    1
    65    50    47    1
    66    47    48    1
    67    70    69    1
    68    70    72   ar
    69    48    49    2
    70    64    63    1
    71    62    63    1
    72    62    61    1
    73    61    60    1
    74    60    57    1
    75    59    58    2
    76    58    57    1
    77    57    56    1
