@<TRIPOS>MOLECULE
tmp/4lr6A00.pdb
 109 106 0 0 0
SMALL
GASTEIGER

@<TRIPOS>ATOM
      1  N         -2.2890   -0.2700   -0.8530 N.3    40  TRP40      -0.1228
      2  CA        -1.9860   -1.5830   -1.4360 C.3    40  TRP40       0.1722
      3  C         -3.1920   -2.4740   -1.7930 C.2    40  TRP40       0.2437
      4  O         -3.1550   -3.1420   -2.8270 O.2    40  TRP40      -0.2733
      5  CB        -0.9580   -2.3490   -0.5800 C.3    40  TRP40       0.0563
      6  CG        -1.4080   -2.6660    0.8030 C.ar   40  TRP40       0.0003
      7  CD1       -1.1760   -1.9360    1.9310 C.ar   40  TRP40       0.0946
      8  CD2       -2.1760   -3.8000    1.2100 C.ar   40  TRP40       0.0152
      9  NE1       -1.7540   -2.5450    3.0170 N.ar   40  TRP40      -0.2442
     10  CE2       -2.3770   -3.6920    2.6010 C.ar   40  TRP40       0.0810
     11  CE3       -2.7230   -4.8970    0.5300 C.ar   40  TRP40       0.0012
     12  CZ2       -3.0990   -4.6400    3.3280 C.ar   40  TRP40       0.0191
     13  CZ3       -3.4320   -5.8380    1.2530 C.ar   40  TRP40       0.0001
     14  CH2       -3.6120   -5.7050    2.6390 C.ar   40  TRP40       0.0015
     15  N         -4.2700   -2.4830   -0.9730 N.am   41  PRO41      -0.2718
     16  CA        -5.3920   -3.3450   -1.3730 C.3    41  PRO41       0.1535
     17  C         -6.1100   -2.8790   -2.6410 C.2    41  PRO41       0.2598
     18  O         -6.8400   -3.6570   -3.2500 O.2    41  PRO41      -0.2715
     19  CB        -6.3560   -3.2630   -0.1780 C.3    41  PRO41       0.0310
     20  CG        -5.5660   -2.6730    0.9410 C.3    41  PRO41       0.0237
     21  CD        -4.5700   -1.7720    0.2810 C.3    41  PRO41       0.0939
     22  N         -5.8890   -1.6240   -3.0200 N.am   42  PHE42      -0.1974
     23  CA        -6.6030   -0.9830   -4.1170 C.3    42  PHE42       0.1639
     24  C         -5.7540   -0.8110   -5.3740 C.2    42  PHE42       0.2290
     25  O         -6.1950   -0.1850   -6.3350 O.2    42  PHE42      -0.2864
     26  CB        -7.1110    0.3750   -3.6330 C.3    42  PHE42       0.0560
     27  CG        -7.9360    0.2840   -2.3850 C.ar   42  PHE42      -0.0200
     28  CD1       -9.2660   -0.1010   -2.4530 C.ar   42  PHE42      -0.0042
     29  CD2       -7.3790    0.5490   -1.1390 C.ar   42  PHE42      -0.0042
     30  CE1      -10.0340   -0.2070   -1.3060 C.ar   42  PHE42      -0.0003
     31  CE2       -8.1410    0.4450    0.0110 C.ar   42  PHE42      -0.0003
     32  CZ        -9.4710    0.0700   -0.0710 C.ar   42  PHE42      -0.0000
     33  N         -9.7200   -6.6570   -7.2560 N.3    46  VAL46      -0.1245
     34  CA        -9.9520   -7.5880   -6.1580 C.3    46  VAL46       0.1561
     35  C         -9.7990   -9.0100   -6.6920 C.2    46  VAL46       0.2260
     36  O        -10.5270   -9.4190   -7.5960 O.2    46  VAL46      -0.2867
     37  CB       -11.3540   -7.4030   -5.5360 C.3    46  VAL46       0.0252
     38  CG1      -11.7040   -8.5540   -4.5970 C.3    46  VAL46       0.0019
     39  CG2      -11.4290   -6.0710   -4.8020 C.3    46  VAL46       0.0019
     40  N         -7.9750  -13.7750   -2.0420 N.3    51  LEU51      -0.1245
     41  CA        -8.4720  -13.1810   -0.8000 C.3    51  LEU51       0.1561
     42  C         -9.5540  -14.0140   -0.1150 C.2    51  LEU51       0.2260
     43  O        -10.0220  -13.6540    0.9670 O.2    51  LEU51      -0.2867
     44  CB        -9.0040  -11.7680   -1.0690 C.3    51  LEU51       0.0270
     45  CG        -7.9300  -10.7540   -1.4640 C.3    51  LEU51       0.0019
     46  CD1       -8.5570   -9.5050   -2.0630 C.3    51  LEU51       0.0001
     47  CD2       -7.0590  -10.4000   -0.2670 C.3    51  LEU51       0.0001
     48  N        -12.6660  -14.4480   -1.0160 N.3    53  LEU53      -0.1245
     49  CA       -13.9060  -13.6920   -1.0490 C.3    53  LEU53       0.1561
     50  C        -14.7310  -14.2200   -2.2160 C.2    53  LEU53       0.2260
     51  O        -14.9800  -13.4970   -3.1810 O.2    53  LEU53      -0.2867
     52  CB       -13.6100  -12.2000   -1.2410 C.3    53  LEU53       0.0270
     53  CG       -12.6020  -11.5610   -0.2840 C.3    53  LEU53       0.0019
     54  CD1      -12.2990  -10.1290   -0.7040 C.3    53  LEU53       0.0001
     55  CD2      -13.1140  -11.6070    1.1480 C.3    53  LEU53       0.0001
     56  N        -17.5330  -12.0550   -3.5990 N.3    56  TYR56      -0.1241
     57  CA       -17.2550  -10.6520   -3.9220 C.3    56  TYR56       0.1605
     58  C        -17.9540  -10.2080   -5.2040 C.2    56  TYR56       0.2264
     59  O        -18.6720   -9.2110   -5.2120 O.2    56  TYR56      -0.2867
     60  CB       -15.7520  -10.3700   -4.0500 C.3    56  TYR56       0.0534
     61  CG       -15.4820   -8.8950   -4.2360 C.ar   56  TYR56      -0.0201
     62  CD1      -15.4500   -8.0360   -3.1450 C.ar   56  TYR56      -0.0009
     63  CD2      -15.3080   -8.3510   -5.5020 C.ar   56  TYR56      -0.0009
     64  CE1      -15.2320   -6.6800   -3.3030 C.ar   56  TYR56       0.0417
     65  CE2      -15.0920   -6.9940   -5.6750 C.ar   56  TYR56       0.0417
     66  CZ       -15.0510   -6.1630   -4.5720 C.ar   56  TYR56       0.1957
     67  OH       -14.8380   -4.8150   -4.7430 O.3    56  TYR56      -0.2866
     68  N        -16.0890   -0.8710   -1.9610 N.3    95  CYS95      -0.1235
     69  CA       -15.5260   -1.2630   -0.6800 C.3    95  CYS95       0.1677
     70  C        -16.5450   -1.1090    0.4540 C.2    95  CYS95       0.2270
     71  O        -16.6690   -2.0010    1.2960 O.2    95  CYS95      -0.2867
     72  CB       -14.2620   -0.4530   -0.3970 C.3    95  CYS95       0.0956
     73  SG       -13.3520   -1.0240    1.0500 S.3    95  CYS95      -0.0801
     74  N        -19.4300   -3.9110   -0.0730 N.3    98  TYR98      -0.1227
     75  CA       -19.0710   -5.2970    0.2380 C.3    98  TYR98       0.1736
     76  C        -18.7330   -5.5050    1.7160 C.2    98  TYR98       0.2595
     77  O        -19.0160   -6.5660    2.2800 O.2    98  TYR98      -0.2718
     78  CB       -17.9000   -5.7770   -0.6250 C.3    98  TYR98       0.0548
     79  CG       -17.5430   -7.2190   -0.3500 C.ar   98  TYR98      -0.0200
     80  CD1      -18.3580   -8.2530   -0.7990 C.ar   98  TYR98      -0.0009
     81  CD2      -16.4090   -7.5480    0.3880 C.ar   98  TYR98      -0.0009
     82  CE1      -18.0480   -9.5750   -0.5290 C.ar   98  TYR98       0.0417
     83  CE2      -16.0910   -8.8680    0.6610 C.ar   98  TYR98       0.0417
     84  CZ       -16.9120   -9.8760    0.1950 C.ar   98  TYR98       0.1957
     85  OH       -16.6070  -11.1910    0.4610 O.3    98  TYR98      -0.2866
     86  N        -18.1350   -4.4930    2.3370 N.am   99  ASN99      -0.1974
     87  CA       -17.6600   -4.6010    3.7130 C.3    99  ASN99       0.1688
     88  C        -18.5630   -3.8210    4.6650 C.2    99  ASN99       0.2292
     89  O        -19.5900   -3.2980    4.2480 O.2    99  ASN99      -0.2864
     90  CB       -16.2070   -4.1360    3.7780 C.3    99  ASN99       0.1181
     91  CG       -15.3160   -4.9090    2.8180 C.2    99  ASN99       0.2629
     92  OD1      -14.9910   -6.0690    3.0610 O.2    99  ASN99      -0.2716
     93  ND2      -14.9420   -4.2780    1.7090 N.am   99  ASN99      -0.0877
     94  N        -10.4680   -2.8380    6.0920 N.3   105  ILE105     -0.1245
     95  CA       -10.4330   -2.3860    4.7030 C.3   105  ILE105      0.1561
     96  C        -11.2730   -1.1220    4.5050 C.2   105  ILE105      0.2260
     97  O        -10.9230   -0.2580    3.6970 O.2   105  ILE105     -0.2867
     98  CB       -10.8680   -3.4950    3.7160 C.3   105  ILE105      0.0252
     99  CG1      -10.5150   -3.1020    2.2760 C.3   105  ILE105      0.0019
    100  CG2      -12.3560   -3.7970    3.8300 C.3   105  ILE105      0.0019
    101  CD1       -9.0300   -3.0220    1.9990 C.3   105  ILE105      0.0001
    102  N         -9.3780    1.8270    5.6980 N.3   108  MET108     -0.1245
    103  CA        -8.3860    2.1570    4.6810 C.3   108  MET108      0.1570
    104  C         -9.0130    2.9860    3.5590 C.2   108  MET108      0.2261
    105  O         -8.4850    4.0370    3.1910 O.2   108  MET108     -0.2867
    106  CB        -7.7540    0.8820    4.1220 C.3   108  MET108      0.0387
    107  CG        -6.9100    0.1460    5.1500 C.3   108  MET108      0.0595
    108  SD        -6.4540   -1.5130    4.6260 S.3   108  MET108     -0.1393
    109  CE        -4.8250   -1.2130    3.9730 C.3   108  MET108      0.0692
@<TRIPOS>BOND
     1    36    35    2
     2    33    34    1
     3    35    34    1
     4    25    24    2
     5    34    37    1
     6    65    63   ar
     7    65    66   ar
     8    37    39    1
     9    37    38    1
    10    63    61   ar
    11    24    23    1
    12    59    58    2
    13    58    57    1
    14    67    66    1
    15    66    64   ar
    16    61    60    1
    17    61    62   ar
    18    23    26    1
    19    23    22    1
    20    60    57    1
    21    57    56    1
    22    26    27    1
    23    64    62   ar
    24    18    17    2
    25    51    50    2
    26    22    17   am
    27     4     3    2
    28    17    16    1
    29    28    27   ar
    30    28    30   ar
    31    27    29   ar
    32    50    49    1
    33    46    45    1
    34    40    41    1
    35    68    69    1
    36     3     2    1
    37     3    15   am
    38    45    44    1
    39    45    47    1
    40     2     1    1
    41     2     5    1
    42    16    15    1
    43    16    19    1
    44    30    32   ar
    45    52    49    1
    46    52    53    1
    47    29    31   ar
    48    44    41    1
    49    49    48    1
    50    15    21    1
    51    41    42    1
    52    80    82   ar
    53    80    79   ar
    54    54    53    1
    55    69    72    1
    56    69    70    1
    57    78    79    1
    58    78    75    1
    59     5     6    1
    60    82    84   ar
    61    72    73    1
    62    79    81   ar
    63    53    55    1
    64    19    20    1
    65    42    43    2
    66    74    75    1
    67    32    31   ar
    68    84    85    1
    69    84    83   ar
    70    75    76    1
    71    21    20    1
    72    81    83   ar
    73    70    71    2
    74    11     8   ar
    75    11    13   ar
    76     6     8   ar
    77     6     7   ar
    78     8    10   ar
    79    13    14   ar
    80    93    91   am
    81    76    77    2
    82    76    86   am
    83     7     9   ar
    84   101    99    1
    85    99    98    1
    86    86    87    1
    87    10     9   ar
    88    10    12   ar
    89    14    12   ar
    90    91    92    2
    91    91    90    1
    92   105   104    2
    93   104   103    1
    94    97    96    2
    95    87    90    1
    96    87    88    1
    97    98   100    1
    98    98    95    1
    99   109   108    1
   100   106   103    1
   101   106   107    1
   102    89    88    2
   103    96    95    1
   104   108   107    1
   105   103   102    1
   106    95    94    1
