@<TRIPOS>MOLECULE
tmp/4lrbA00.pdb
 128 117 0 0 0
SMALL
GASTEIGER

@<TRIPOS>ATOM
      1  N         25.4600   10.1980    5.1310 N.3   128  ALA128     -0.1231
      2  CA        25.8150    8.9250    5.7580 C.3   128  ALA128      0.1694
      3  C         24.5570    8.3160    6.3520 C.2   128  ALA128      0.2593
      4  O         23.6060    9.0300    6.6760 O.2   128  ALA128     -0.2718
      5  CB        26.8700    9.1240    6.8430 C.3   128  ALA128      0.0304
      6  N         24.5420    6.9940    6.4750 N.am  129  SER129     -0.1938
      7  CA        23.5170    6.3410    7.2720 C.3   129  SER129      0.2055
      8  C         23.8720    6.5370    8.7530 C.2   129  SER129      0.2643
      9  O         25.0170    6.8740    9.0830 O.2   129  SER129     -0.2714
     10  CB        23.4270    4.8580    6.9200 C.3   129  SER129      0.2130
     11  OG        24.6480    4.2080    7.1960 O.3   129  SER129     -0.2179
     12  N         22.8870    6.3380    9.6290 N.am  130  GLY130     -0.1954
     13  CA        23.0830    6.4330   11.0790 C.3   130  GLY130      0.1869
     14  C         24.1010    5.4510   11.6350 C.2   130  GLY130      0.2309
     15  O         24.8490    5.7840   12.5550 O.2   130  GLY130     -0.2863
     16  N         24.8160   15.3680   10.2250 N.3   150  TYR150     -0.1241
     17  CA        24.9340   14.6550    8.9610 C.3   150  TYR150      0.1605
     18  C         23.6770   14.7890    8.1000 C.2   150  TYR150      0.2264
     19  O         22.6410   15.2950    8.5440 O.2   150  TYR150     -0.2867
     20  CB        25.3530   13.1860    9.1790 C.3   150  TYR150      0.0534
     21  CG        24.3570   12.2880    9.9000 C.ar  150  TYR150     -0.0201
     22  CD1       23.6080   11.3460    9.1960 C.ar  150  TYR150     -0.0009
     23  CD2       24.1900   12.3530   11.2910 C.ar  150  TYR150     -0.0009
     24  CE1       22.7120   10.5110    9.8450 C.ar  150  TYR150      0.0417
     25  CE2       23.2920   11.5160   11.9510 C.ar  150  TYR150      0.0417
     26  CZ        22.5600   10.5940   11.2220 C.ar  150  TYR150      0.1957
     27  OH        21.6720    9.7510   11.8610 O.3   150  TYR150     -0.2866
     28  N         21.5420   13.0170    4.2940 N.3   152  GLY152     -0.1210
     29  CA        21.2810   11.8030    3.5430 C.3   152  GLY152      0.1956
     30  C         20.9600   12.1800    2.1130 C.2   152  GLY152      0.2612
     31  O         21.2900   13.2840    1.6690 O.2   152  GLY152     -0.2717
     32  N         20.3100   11.2680    1.3950 N.am  153  ALA153     -0.1965
     33  CA        19.9200   11.5210    0.0080 C.3   153  ALA153      0.1728
     34  C         18.7650   12.5140   -0.1160 C.2   153  ALA153      0.2616
     35  O         18.6370   13.1840   -1.1510 O.2   153  ALA153     -0.2715
     36  CB        19.5910   10.2180   -0.7010 C.3   153  ALA153      0.0334
     37  N         17.9280   12.5980    0.9270 N.am  154  ASP154     -0.1971
     38  CA        16.7990   13.5240    0.9710 C.3   154  ASP154      0.1709
     39  C         17.1490   14.8530    1.6720 C.2   154  ASP154      0.2293
     40  O         18.2490   15.0240    2.2050 O.2   154  ASP154     -0.2864
     41  CB        15.5760   12.8690    1.6470 C.3   154  ASP154      0.1436
     42  CG        14.7320   12.0370    0.6730 C.2   154  ASP154      0.3671
     43  OD1       14.4800   10.8410    0.9430 O.co2 154  ASP154     -0.2456
     44  OD2       14.3360   12.5650   -0.3830 O.co2 154  ASP154     -0.2456
     45  N         17.3790   16.6850    4.4260 N.3   156  VAL156     -0.1245
     46  CA        17.3540   16.4750    5.8730 C.3   156  VAL156      0.1561
     47  C         18.6150   16.9840    6.5490 C.2   156  VAL156      0.2260
     48  O         19.7040   16.9540    5.9720 O.2   156  VAL156     -0.2867
     49  CB        17.1330   14.9780    6.2620 C.3   156  VAL156      0.0252
     50  CG1       15.8040   14.4600    5.7290 C.3   156  VAL156      0.0019
     51  CG2       18.2880   14.0970    5.8000 C.3   156  VAL156      0.0019
     52  N         20.4070   16.0340   10.1370 N.3   158  GLN158     -0.1245
     53  CA        20.3070   15.0800   11.2520 C.3   158  GLN158      0.1566
     54  C         21.3470   15.3690   12.3410 C.2   158  GLN158      0.2260
     55  O         22.5170   15.5850   12.0300 O.2   158  GLN158     -0.2867
     56  CB        20.4630   13.6370   10.7300 C.3   158  GLN158      0.0367
     57  CG        19.7280   13.3800    9.4150 C.3   158  GLN158      0.0905
     58  CD        19.6160   11.9110    9.0550 C.2   158  GLN158      0.2608
     59  OE1       19.0250   11.1290    9.7870 O.2   158  GLN158     -0.2717
     60  NE2       20.1770   11.5340    7.9110 N.am  158  GLN158     -0.0878
     61  N         13.4230   18.5320    6.6700 N.3   191  ARG191     -0.1245
     62  CA        13.2570   18.2350    8.0820 C.3   191  ARG191      0.1563
     63  C         14.5740   18.1470    8.8250 C.2   191  ARG191      0.2260
     64  O         15.6150   17.7670    8.2820 O.2   191  ARG191     -0.2867
     65  CB        12.3590   17.0030    8.3300 C.3   191  ARG191      0.0307
     66  CG        12.8480   15.6860    7.7580 C.3   191  ARG191      0.0489
     67  CD        11.7630   14.6150    7.8470 C.3   191  ARG191      0.2205
     68  NE        10.4890   15.0800    7.2960 N.pl3 191  ARG191     -0.0865
     69  CZ         9.3780   15.2600    8.0070 C.cat 191  ARG191      0.5346
     70  NH1        9.3650   14.9950    9.3090 N.pl3 191  ARG191      0.1354
     71  NH2        8.2760   15.6970    7.4110 N.pl3 191  ARG191      0.1354
     72  N         16.2040   16.3080   12.1090 N.3   193  ILE193     -0.1245
     73  CA        15.9070   15.0740   12.8470 C.3   193  ILE193      0.1561
     74  C         16.8640   14.8920   14.0170 C.2   193  ILE193      0.2260
     75  O         18.0810   14.8670   13.8230 O.2   193  ILE193     -0.2867
     76  CB        15.9720   13.8230   11.9330 C.3   193  ILE193      0.0252
     77  CG1       15.1090   14.0110   10.6830 C.3   193  ILE193      0.0019
     78  CG2       15.5810   12.5580   12.7050 C.3   193  ILE193      0.0019
     79  CD1       15.2220   12.8700    9.6880 C.3   193  ILE193      0.0001
     80  N         18.6890   12.5750   16.4400 N.3   195  ARG195     -0.1245
     81  CA        19.1340   11.1770   16.3930 C.3   195  ARG195      0.1563
     82  C         19.9030   10.7840   17.6650 C.2   195  ARG195      0.2260
     83  O         21.1130   10.5230   17.6100 O.2   195  ARG195     -0.2867
     84  CB        19.9990   10.9110   15.1430 C.3   195  ARG195      0.0307
     85  CG        19.3010   11.1060   13.7880 C.3   195  ARG195      0.0489
     86  CD        18.2990    9.9990   13.4930 C.3   195  ARG195      0.2205
     87  NE        17.9120    9.9460   12.0820 N.pl3 195  ARG195     -0.0865
     88  CZ        17.2380    8.9410   11.5200 C.cat 195  ARG195      0.5346
     89  NH1       16.8590    7.8880   12.2400 N.pl3 195  ARG195      0.1354
     90  NH2       16.9400    8.9810   10.2290 N.pl3 195  ARG195      0.1354
     91  N         20.8870    3.7200   17.6760 N.3   206  ARG206     -0.1245
     92  CA        19.9590    4.8540   17.7220 C.3   206  ARG206      0.1563
     93  C         18.7140    4.4370   18.5040 C.2   206  ARG206      0.2260
     94  O         18.2470    3.3040   18.3710 O.2   206  ARG206     -0.2867
     95  CB        19.5860    5.3150   16.3070 C.3   206  ARG206      0.0307
     96  CG        20.6910    6.0970   15.5950 C.3   206  ARG206      0.0489
     97  CD        20.4090    6.2690   14.1090 C.3   206  ARG206      0.2205
     98  NE        20.3160    4.9720   13.4440 N.pl3 206  ARG206     -0.0865
     99  CZ        19.7290    4.7430   12.2710 C.cat 206  ARG206      0.5346
    100  NH1       19.1560    5.7290   11.5900 N.pl3 206  ARG206      0.1354
    101  NH2       19.7150    3.5120   11.7790 N.pl3 206  ARG206      0.1354
    102  N         14.1170    9.3380   18.7590 N.3   210  ARG210     -0.1245
    103  CA        14.1560   10.1280   17.5360 C.3   210  ARG210      0.1563
    104  C         12.9560   11.0800   17.4870 C.2   210  ARG210      0.2260
    105  O         11.8330   10.6800   17.8220 O.2   210  ARG210     -0.2867
    106  CB        14.1040    9.2010   16.3100 C.3   210  ARG210      0.0307
    107  CG        14.2750    9.9260   14.9770 C.3   210  ARG210      0.0489
    108  CD        13.1390    9.6660   14.0080 C.3   210  ARG210      0.2205
    109  NE        13.4850    8.6730   12.9980 N.pl3 210  ARG210     -0.0865
    110  CZ        13.3220    8.8140   11.6830 C.cat 210  ARG210      0.5346
    111  NH1       13.6790    7.8240   10.8780 N.pl3 210  ARG210      0.1354
    112  NH2       12.8000    9.9170   11.1640 N.pl3 210  ARG210      0.1354
    113  N         12.7250    5.3700   -0.6680 N.3   285  ALA285     -0.1245
    114  CA        13.7380    5.2740    0.3960 C.3   285  ALA285      0.1562
    115  C         14.7100    4.1050    0.2160 C.2   285  ALA285      0.2260
    116  O         15.9150    4.2480    0.4380 O.2   285  ALA285     -0.2867
    117  CB        13.0720    5.2190    1.7720 C.3   285  ALA285      0.0290
    118  N         18.9420    4.5660   -3.5870 N.3   290  ARG290     -0.1245
    119  CA        20.0290    3.5840   -3.5860 C.3   290  ARG290      0.1563
    120  C         20.3520    3.0560   -4.9870 C.2   290  ARG290      0.2260
    121  O         21.2120    2.1880   -5.1360 O.2   290  ARG290     -0.2867
    122  CB        19.7370    2.4210   -2.6130 C.3   290  ARG290      0.0307
    123  CG        19.6920    2.8640   -1.1530 C.3   290  ARG290      0.0489
    124  CD        19.3910    1.7250   -0.1870 C.3   290  ARG290      0.2205
    125  NE        19.0440    2.2710    1.1300 N.pl3 290  ARG290     -0.0865
    126  CZ        18.6290    1.5630    2.1800 C.cat 290  ARG290      0.5346
    127  NH1       18.4910    0.2420    2.1160 N.pl3 290  ARG290      0.1354
    128  NH2       18.3520    2.1950    3.3150 N.pl3 290  ARG290      0.1354
@<TRIPOS>BOND
     1   121   120    2
     2   120   119    1
     3   118   119    1
     4   119   122    1
     5   122   123    1
     6   123   124    1
     7    35    34    2
     8    36    33    1
     9   113   114    1
    10    44    42   ar
    11   124   125    1
    12    34    33    1
    13    34    37   am
    14    33    32    1
    15   115   114    1
    16   115   116    2
    17   114   117    1
    18    42    43   ar
    19    42    41    1
    20    37    38    1
    21    38    41    1
    22    38    39    1
    23   125   126    2
    24    32    30   am
    25    31    30    2
    26    39    40    2
    27    30    29    1
    28   127   126    1
    29   126   128    1
    30    29    28    1
    31    45    46    1
    32     1     2    1
    33    50    49    1
    34     2     3    1
    35     2     5    1
    36    51    49    1
    37    46    49    1
    38    46    47    1
    39    48    47    2
    40     3     6   am
    41     3     4    2
    42     6     7    1
    43    61    62    1
    44    10    11    1
    45    10     7    1
    46     7     8    1
    47    68    67    1
    48    68    69    2
    49    71    69    1
    50    66    67    1
    51    66    65    1
    52    60    58   am
    53    69    70    1
    54    62    65    1
    55    62    63    1
    56    18    19    2
    57    18    17    1
    58    64    63    2
    59     8     9    2
    60     8    12   am
    61    17    20    1
    62    17    16    1
    63    58    57    1
    64    58    59    2
    65    20    21    1
    66    22    24   ar
    67    22    21   ar
    68    57    56    1
    69    12    13    1
    70    79    77    1
    71    24    26   ar
    72    21    23   ar
    73    52    53    1
    74    90    88    1
    75    77    76    1
    76    56    53    1
    77   111   110    1
    78    13    14    1
    79   112   110    1
    80    26    27    1
    81    26    25   ar
    82    53    54    1
    83    23    25   ar
    84    88    87    2
    85    88    89    1
    86   100    99    1
    87    14    15    2
    88   110   109    2
    89   101    99    1
    90    76    78    1
    91    76    73    1
    92    55    54    2
    93    87    86    1
    94    72    73    1
    95    99    98    2
    96    73    74    1
    97   109   108    1
    98    98    97    1
    99    86    85    1
   100    85    84    1
   101    75    74    2
   102   108   107    1
   103    97    96    1
   104   107   106    1
   105    84    81    1
   106    96    95    1
   107    95    92    1
   108   106   103    1
   109    81    80    1
   110    81    82    1
   111   104   103    1
   112   104   105    2
   113   103   102    1
   114    83    82    2
   115    91    92    1
   116    92    93    1
   117    94    93    2
