@<TRIPOS>MOLECULE
tmp/4lrgA00.pdb
 143 139 0 0 0
SMALL
GASTEIGER

@<TRIPOS>ATOM
      1  N         14.4140  -22.6720    1.0790 N.3    41  TRP41      -0.1228
      2  CA        14.7020  -21.3300    1.5980 C.3    41  TRP41       0.1722
      3  C         13.4730  -20.4290    1.8070 C.2    41  TRP41       0.2437
      4  O         13.3970  -19.7440    2.8160 O.2    41  TRP41      -0.2733
      5  CB        15.7960  -20.6140    0.7640 C.3    41  TRP41       0.0563
      6  CG        15.4480  -20.3950   -0.6630 C.ar   41  TRP41       0.0003
      7  CD1       15.7480  -21.2150   -1.7090 C.ar   41  TRP41       0.0946
      8  CD2       14.7210  -19.2910   -1.2120 C.ar   41  TRP41       0.0152
      9  NE1       15.2510  -20.6910   -2.8790 N.ar   41  TRP41      -0.2442
     10  CE2       14.6180  -19.5070   -2.6030 C.ar   41  TRP41       0.0810
     11  CE3       14.1370  -18.1410   -0.6660 C.ar   41  TRP41       0.0012
     12  CZ2       13.9500  -18.6200   -3.4520 C.ar   41  TRP41       0.0191
     13  CZ3       13.4760  -17.2600   -1.5130 C.ar   41  TRP41       0.0001
     14  CH2       13.3860  -17.5070   -2.8860 C.ar   41  TRP41       0.0015
     15  N         12.4930  -20.4480    0.8930 N.am   42  PRO42      -0.2718
     16  CA        11.3290  -19.6110    1.2060 C.3    42  PRO42       0.1535
     17  C         10.5640  -20.0540    2.4610 C.2    42  PRO42       0.2598
     18  O          9.7770  -19.2730    3.0040 O.2    42  PRO42      -0.2715
     19  CB        10.4400  -19.7750   -0.0320 C.3    42  PRO42       0.0310
     20  CG        11.3230  -20.3500   -1.0870 C.3    42  PRO42       0.0237
     21  CD        12.2700  -21.2230   -0.3370 C.3    42  PRO42       0.0939
     22  N         10.8050  -21.2860    2.9130 N.am   43  PHE43      -0.1974
     23  CA        10.0940  -21.8730    4.0430 C.3    43  PHE43       0.1639
     24  C         10.9530  -22.0370    5.3000 C.2    43  PHE43       0.2290
     25  O         10.4910  -22.5930    6.3030 O.2    43  PHE43      -0.2864
     26  CB         9.5540  -23.2490    3.6450 C.3    43  PHE43       0.0560
     27  CG         8.8020  -23.2520    2.3520 C.ar   43  PHE43      -0.0200
     28  CD1        7.4380  -22.9790    2.3250 C.ar   43  PHE43      -0.0042
     29  CD2        9.4510  -23.5380    1.1610 C.ar   43  PHE43      -0.0042
     30  CE1        6.7370  -22.9730    1.1300 C.ar   43  PHE43      -0.0003
     31  CE2        8.7500  -23.5420   -0.0400 C.ar   43  PHE43      -0.0003
     32  CZ         7.3930  -23.2600   -0.0560 C.ar   43  PHE43      -0.0000
     33  N         11.8910  -19.7190    7.2620 N.3    45  GLN45      -0.1245
     34  CA        11.5050  -18.6890    8.2310 C.3    45  GLN45       0.1566
     35  C         10.1110  -18.1630    7.9120 C.2    45  GLN45       0.2260
     36  O          9.6080  -18.3700    6.7960 O.2    45  GLN45      -0.2867
     37  CB        12.5150  -17.5130    8.2390 C.3    45  GLN45       0.0367
     38  CG        12.6520  -16.7460    6.9180 C.3    45  GLN45       0.0905
     39  CD        13.3680  -17.5650    5.8540 C.2    45  GLN45       0.2608
     40  OE1       14.4070  -18.1790    6.1250 O.2    45  GLN45      -0.2717
     41  NE2       12.7900  -17.6220    4.6540 N.am   45  GLN45      -0.0878
     42  N          7.0310  -15.9430    6.7320 N.3    47  VAL47      -0.1231
     43  CA         6.8390  -15.0420    5.6060 C.3    47  VAL47       0.1692
     44  C          6.8960  -13.6050    6.1200 C.2    47  VAL47       0.2592
     45  O          6.2060  -13.2460    7.0850 O.2    47  VAL47      -0.2718
     46  CB         5.4960  -15.2910    4.8680 C.3    47  VAL47       0.0266
     47  CG1        5.1760  -14.1490    3.8890 C.3    47  VAL47       0.0020
     48  CG2        5.5530  -16.6150    4.1300 C.3    47  VAL47       0.0020
     49  N          7.7580  -12.8140    5.4900 N.am   48  ASP48      -0.1974
     50  CA         7.9320  -11.4040    5.8240 C.3    48  ASP48       0.1709
     51  C          7.1200  -10.5870    4.8570 C.2    48  ASP48       0.2293
     52  O          7.6260  -10.1680    3.7920 O.2    48  ASP48      -0.2864
     53  CB         9.4020  -11.0050    5.7370 C.3    48  ASP48       0.1436
     54  CG         9.6570   -9.6020    6.2400 C.2    48  ASP48       0.3671
     55  OD1        8.7790   -8.7060    6.0900 O.co2  48  ASP48      -0.2456
     56  OD2       10.7670   -9.4000    6.7690 O.co2  48  ASP48      -0.2456
     57  N          8.6700   -6.9650    3.9090 N.3    51  LYS51      -0.1231
     58  CA         9.7460   -6.8530    2.9080 C.3    51  LYS51       0.1693
     59  C          9.3900   -7.4310    1.5300 C.2    51  LYS51       0.2591
     60  O          9.8430   -6.9270    0.4970 O.2    51  LYS51      -0.2718
     61  CB        11.0790   -7.3900    3.4350 C.3    51  LYS51       0.0285
     62  CG        11.3450   -8.8910    3.3150 C.3    51  LYS51       0.0035
     63  CD        12.8600   -9.1200    3.1490 C.3    51  LYS51       0.0206
     64  CE        13.3840  -10.3490    3.8870 C.3    51  LYS51       0.1093
     65  NZ        14.8060  -10.6430    3.4810 N.3    51  LYS51      -0.1314
     66  N          8.5580   -8.4650    1.5170 N.am   52  LEU52      -0.1980
     67  CA         8.0140   -9.0060    0.2700 C.3    52  LEU52       0.1596
     68  C          6.8800   -8.1500   -0.3070 C.2    52  LEU52       0.2287
     69  O          6.4090   -8.4030   -1.4100 O.2    52  LEU52      -0.2864
     70  CB         7.5060  -10.4250    0.5150 C.3    52  LEU52       0.0297
     71  CG         8.5370  -11.4630    0.9730 C.3    52  LEU52       0.0022
     72  CD1        7.8920  -12.8030    1.1760 C.3    52  LEU52       0.0001
     73  CD2        9.6530  -11.5830   -0.0400 C.3    52  LEU52       0.0001
     74  N          3.6600   -7.8370    0.7580 N.3    54  LEU54      -0.1245
     75  CA         2.4400   -8.6460    0.6450 C.3    54  LEU54       0.1561
     76  C          1.4970   -8.2770    1.7720 C.2    54  LEU54       0.2260
     77  O          1.2410   -9.0870    2.6700 O.2    54  LEU54      -0.2867
     78  CB         2.7640  -10.1280    0.7280 C.3    54  LEU54       0.0270
     79  CG         3.7890  -10.6620   -0.2560 C.3    54  LEU54       0.0019
     80  CD1        4.2110  -12.0610    0.1880 C.3    54  LEU54       0.0001
     81  CD2        3.2420  -10.6500   -1.6690 C.3    54  LEU54       0.0001
     82  N         -1.0860  -10.7980    2.9500 N.3    57  TYR57      -0.1241
     83  CA        -0.7060  -12.1660    3.3230 C.3    57  TYR57       0.1605
     84  C         -1.3700  -12.6290    4.6200 C.2    57  TYR57       0.2264
     85  O         -1.9960  -13.6940    4.6680 O.2    57  TYR57      -0.2867
     86  CB         0.8140  -12.3400    3.4610 C.3    57  TYR57       0.0534
     87  CG         1.1910  -13.7950    3.6620 C.ar   57  TYR57      -0.0201
     88  CD1        1.5070  -14.2890    4.9240 C.ar   57  TYR57      -0.0009
     89  CD2        1.1680  -14.6910    2.5980 C.ar   57  TYR57      -0.0009
     90  CE1        1.8160  -15.6430    5.1230 C.ar   57  TYR57       0.0417
     91  CE2        1.4690  -16.0440    2.7860 C.ar   57  TYR57       0.0417
     92  CZ         1.8050  -16.5110    4.0530 C.ar   57  TYR57       0.1957
     93  OH         2.1190  -17.8470    4.2390 O.3    57  TYR57      -0.2866
     94  N          0.7480  -22.1110    1.6060 N.3    96  CYS96      -0.1235
     95  CA         1.3950  -21.7910    0.3340 C.3    96  CYS96       0.1677
     96  C          0.4380  -22.0040   -0.8410 C.2    96  CYS96       0.2270
     97  O          0.3530  -21.1580   -1.7360 O.2    96  CYS96      -0.2867
     98  CB         2.6580  -22.6420    0.1690 C.3    96  CYS96       0.0956
     99  SG         3.6120  -22.3610   -1.3210 S.3    96  CYS96      -0.0801
    100  N         -2.5100  -19.3080   -0.7280 N.3    99  TYR99      -0.1227
    101  CA        -2.1970  -17.9120   -1.0530 C.3    99  TYR99       0.1736
    102  C         -1.7890  -17.7450   -2.5180 C.2    99  TYR99       0.2595
    103  O         -2.1720  -16.7640   -3.1610 O.2    99  TYR99      -0.2718
    104  CB        -1.0900  -17.3530   -0.1450 C.3    99  TYR99       0.0548
    105  CG        -0.8090  -15.8870   -0.4100 C.ar   99  TYR99      -0.0200
    106  CD1       -1.6180  -14.8930    0.1250 C.ar   99  TYR99      -0.0009
    107  CD2        0.2730  -15.4900   -1.2110 C.ar   99  TYR99      -0.0009
    108  CE1       -1.3560  -13.5560   -0.1210 C.ar   99  TYR99       0.0417
    109  CE2        0.5380  -14.1560   -1.4560 C.ar   99  TYR99       0.0417
    110  CZ        -0.2740  -13.1940   -0.9150 C.ar   99  TYR99       0.1957
    111  OH        -0.0130  -11.8620   -1.1660 O.3    99  TYR99      -0.2866
    112  N         -1.0040  -18.7000   -3.0170 N.am  100  ASN100     -0.1974
    113  CA        -0.4220  -18.6260   -4.3560 C.3   100  ASN100      0.1688
    114  C         -1.2360  -19.4080   -5.3930 C.2   100  ASN100      0.2292
    115  O         -1.9090  -20.3770   -5.0530 O.2   100  ASN100     -0.2864
    116  CB         1.0240  -19.1270   -4.3030 C.3   100  ASN100      0.1181
    117  CG         1.8870  -18.3120   -3.3320 C.2   100  ASN100      0.2629
    118  OD1        2.2800  -17.1850   -3.6370 O.2   100  ASN100     -0.2716
    119  ND2        2.1810  -18.8810   -2.1640 N.am  100  ASN100     -0.0877
    120  N          6.2010  -20.7050   -9.1400 N.3   105  ASP105     -0.1225
    121  CA         7.4850  -21.2270   -8.6920 C.3   105  ASP105      0.1805
    122  C          7.3660  -21.7230   -7.2570 C.2   105  ASP105      0.2597
    123  O          7.7870  -22.8290   -6.9470 O.2   105  ASP105     -0.2718
    124  CB         8.5710  -20.1610   -8.7690 C.3   105  ASP105      0.1424
    125  CG         8.9520  -19.8020  -10.1980 C.2   105  ASP105      0.3668
    126  OD1        8.7900  -20.6450  -11.1180 O.co2 105  ASP105     -0.2456
    127  OD2        9.4280  -18.6620  -10.3880 O.co2 105  ASP105     -0.2456
    128  N          6.7670  -20.9010   -6.4000 N.am  106  ILE106     -0.1980
    129  CA         6.6420  -21.2050   -4.9640 C.3   106  ILE106      0.1595
    130  C          5.7620  -22.4210   -4.6800 C.2   106  ILE106      0.2287
    131  O          6.0220  -23.1540   -3.7310 O.2   106  ILE106     -0.2864
    132  CB         6.1600  -19.9500   -4.1560 C.3   106  ILE106      0.0276
    133  CG1        6.2350  -20.1970   -2.6380 C.3   106  ILE106      0.0022
    134  CG2        4.7520  -19.5060   -4.5830 C.3   106  ILE106      0.0022
    135  CD1        7.6370  -20.4810   -2.1030 C.3   106  ILE106      0.0001
    136  N          7.8400  -25.4410   -5.5910 N.3   109  MET109     -0.1245
    137  CA         8.7870  -25.6270   -4.4940 C.3   109  MET109      0.1570
    138  C          8.1340  -26.3520   -3.3220 C.2   109  MET109      0.2261
    139  O          8.7130  -27.2740   -2.7580 O.2   109  MET109     -0.2867
    140  CB         9.3520  -24.2770   -4.0460 C.3   109  MET109      0.0387
    141  CG        10.1850  -23.6010   -5.1140 C.3   109  MET109      0.0595
    142  SD        10.6180  -21.8970   -4.7540 S.3   109  MET109     -0.1393
    143  CE        12.1120  -22.1060   -3.7970 C.3   109  MET109      0.0692
@<TRIPOS>BOND
     1   126   125   ar
     2   127   125   ar
     3   125   124    1
     4   120   121    1
     5   124   121    1
     6   121   122    1
     7   122   123    2
     8   122   128   am
     9   128   129    1
    10   136   137    1
    11   114   115    2
    12   114   113    1
    13   141   142    1
    14   141   140    1
    15   129   130    1
    16   129   132    1
    17   142   143    1
    18   130   131    2
    19   134   132    1
    20   137   140    1
    21   137   138    1
    22   113   116    1
    23   113   112    1
    24   116   117    1
    25   132   133    1
    26   118   117    2
    27    12    14   ar
    28    12    10   ar
    29   117   119   am
    30   138   139    2
    31   103   102    2
    32   112   102   am
    33    14    13   ar
    34     9    10   ar
    35     9     7   ar
    36   133   135    1
    37    10     8   ar
    38   102   101    1
    39    97    96    2
    40     7     6   ar
    41    81    79    1
    42    13    11   ar
    43   109   107   ar
    44   109   110   ar
    45    69    68    2
    46    99    98    1
    47     8    11   ar
    48     8     6   ar
    49   107   105   ar
    50   111   110    1
    51    20    21    1
    52    20    19    1
    53   101   100    1
    54   101   104    1
    55   110   108   ar
    56    96    95    1
    57     6     5    1
    58   105   104    1
    59   105   106   ar
    60    21    15    1
    61    68    67    1
    62    79    80    1
    63    79    78    1
    64   108   106   ar
    65    32    31   ar
    66    32    30   ar
    67    31    29   ar
    68    73    71    1
    69    19    16    1
    70    98    95    1
    71    67    70    1
    72    67    66    1
    73    95    94    1
    74    60    59    2
    75    70    71    1
    76    75    78    1
    77    75    74    1
    78    75    76    1
    79     5     2    1
    80    15    16    1
    81    15     3   am
    82    71    72    1
    83     1     2    1
    84    30    28   ar
    85    29    27   ar
    86    16    17    1
    87    66    59   am
    88    59    58    1
    89     2     3    1
    90    76    77    2
    91     3     4    2
    92    28    27   ar
    93    27    26    1
    94    17    22   am
    95    17    18    2
    96    89    91   ar
    97    89    87   ar
    98    91    92   ar
    99    58    61    1
   100    58    57    1
   101    22    23    1
   102    82    83    1
   103    63    62    1
   104    63    64    1
   105    62    61    1
   106    83    86    1
   107    83    84    1
   108    86    87    1
   109    65    64    1
   110    26    23    1
   111    87    88   ar
   112    52    51    2
   113    47    46    1
   114    23    24    1
   115    92    93    1
   116    92    90   ar
   117    48    46    1
   118    84    85    2
   119    41    39   am
   120    51    50    1
   121    46    43    1
   122    88    90   ar
   123    24    25    2
   124    49    50    1
   125    49    44   am
   126    43    44    1
   127    43    42    1
   128    53    50    1
   129    53    54    1
   130    39    40    2
   131    39    38    1
   132    55    54   ar
   133    44    45    2
   134    54    56   ar
   135    36    35    2
   136    38    37    1
   137    33    34    1
   138    35    34    1
   139    34    37    1
