@<TRIPOS>MOLECULE
tmp/4lrhD00.pdb
 236 242 0 0 0
SMALL
GASTEIGER

@<TRIPOS>ATOM
      1  N         13.7140    7.8480   61.3760 N.3    57  TYR57      -0.1241
      2  CA        14.0840    6.4570   61.1450 C.3    57  TYR57       0.1605
      3  C         13.6060    5.9720   59.7890 C.2    57  TYR57       0.2264
      4  O         13.7200    4.7890   59.4720 O.2    57  TYR57      -0.2867
      5  CB        13.5190    5.5430   62.2450 C.3    57  TYR57       0.0534
      6  CG        13.7740    6.0410   63.6480 C.ar   57  TYR57      -0.0201
      7  CD1       12.8340    6.8290   64.3130 C.ar   57  TYR57      -0.0009
      8  CD2       14.9770    5.7730   64.2990 C.ar   57  TYR57      -0.0009
      9  CE1       13.0830    7.3380   65.5870 C.ar   57  TYR57       0.0417
     10  CE2       15.2410    6.2750   65.5720 C.ar   57  TYR57       0.0417
     11  CZ        14.2890    7.0560   66.2110 C.ar   57  TYR57       0.1957
     12  OH        14.5420    7.5470   67.4780 O.3    57  TYR57      -0.2866
     13  N         10.8820    5.3460   58.9370 N.3    59  PHE59      -0.1241
     14  CA         9.8620    4.3370   59.2310 C.3    59  PHE59       0.1605
     15  C          8.5570    4.6110   58.5040 C.2    59  PHE59       0.2264
     16  O          8.0580    5.7360   58.4980 O.2    59  PHE59      -0.2867
     17  CB         9.5800    4.2780   60.7290 C.3    59  PHE59       0.0534
     18  CG         8.9480    2.9980   61.1710 C.ar   59  PHE59      -0.0203
     19  CD1        9.7330    1.8860   61.4530 C.ar   59  PHE59      -0.0042
     20  CD2        7.5770    2.9070   61.3240 C.ar   59  PHE59      -0.0042
     21  CE1        9.1610    0.7050   61.8860 C.ar   59  PHE59      -0.0003
     22  CE2        7.0030    1.7340   61.7530 C.ar   59  PHE59      -0.0003
     23  CZ         7.7980    0.6300   62.0370 C.ar   59  PHE59      -0.0000
     24  N          4.6920    3.9860   58.3580 N.3    61  TRP61      -0.1241
     25  CA         3.5060    3.5830   59.1050 C.3    61  TRP61       0.1605
     26  C          2.5380    2.8290   58.1990 C.2    61  TRP61       0.2264
     27  O          1.7350    2.0250   58.6700 O.2    61  TRP61      -0.2867
     28  CB         2.7850    4.8090   59.6690 C.3    61  TRP61       0.0550
     29  CG         3.6310    5.7040   60.5210 C.ar   61  TRP61       0.0003
     30  CD1        3.8710    7.0380   60.3270 C.ar   61  TRP61       0.0946
     31  CD2        4.2950    5.3490   61.7380 C.ar   61  TRP61       0.0152
     32  NE1        4.6390    7.5360   61.3530 N.ar   61  TRP61      -0.2442
     33  CE2        4.9140    6.5220   62.2340 C.ar   61  TRP61       0.0810
     34  CE3        4.4260    4.1550   62.4630 C.ar   61  TRP61       0.0012
     35  CZ2        5.6520    6.5350   63.4250 C.ar   61  TRP61       0.0191
     36  CZ3        5.1600    4.1680   63.6470 C.ar   61  TRP61       0.0001
     37  CH2        5.7650    5.3530   64.1160 C.ar   61  TRP61       0.0015
     38  N          3.3610    9.1050   70.3910 N.3    78  ASP78      -0.1225
     39  CA         4.2870    8.1600   71.0000 C.3    78  ASP78       0.1805
     40  C          5.7000    8.6570   70.7290 C.2    78  ASP78       0.2598
     41  O          6.5450    8.7240   71.6220 O.2    78  ASP78      -0.2718
     42  CB         4.1020    6.7730   70.3920 C.3    78  ASP78       0.1424
     43  CG         5.1590    5.7950   70.8410 C.2    78  ASP78       0.3668
     44  OD1        5.1380    5.4140   72.0330 O.co2  78  ASP78      -0.2456
     45  OD2        6.0120    5.4260   69.9970 O.co2  78  ASP78      -0.2456
     46  N          5.9490    9.0150   69.4810 N.am   79  THR79      -0.1953
     47  CA         7.2460    9.5160   69.1010 C.3    79  THR79       0.1897
     48  C          7.5600   10.8060   69.8520 C.2    79  THR79       0.2313
     49  O          8.7070   11.0150   70.2420 O.2    79  THR79      -0.2863
     50  CB         7.3080    9.7620   67.5980 C.3    79  THR79       0.1794
     51  OG1        7.1030    8.5160   66.9150 O.3    79  THR79      -0.2208
     52  CG2        8.6520   10.3450   67.2090 C.3    79  THR79       0.0378
     53  N          6.5760   11.7030   72.8860 N.3    81  LEU81      -0.1231
     54  CA         6.9730   11.3430   74.2340 C.3    81  LEU81       0.1693
     55  C          8.3780   10.7620   74.2610 C.2    81  LEU81       0.2592
     56  O          9.2120   11.1740   75.0600 O.2    81  LEU81      -0.2718
     57  CB         6.0260   10.3060   74.8220 C.3    81  LEU81       0.0284
     58  CG         6.4020    9.7950   76.2140 C.3    81  LEU81       0.0019
     59  CD1        5.9810   10.8280   77.2230 C.3    81  LEU81       0.0001
     60  CD2        5.7220    8.4810   76.5130 C.3    81  LEU81       0.0001
     61  N          8.6320    9.7920   73.3980 N.am   82  TYR82      -0.1962
     62  CA         9.9290    9.1360   73.3580 C.3    82  TYR82       0.1771
     63  C         11.0850   10.0510   73.0180 C.2    82  TYR82       0.2619
     64  O         12.1910    9.8530   73.5180 O.2    82  TYR82      -0.2715
     65  CB         9.8900    7.9710   72.3660 C.3    82  TYR82       0.0574
     66  CG        11.2370    7.3500   72.0550 C.ar   82  TYR82      -0.0198
     67  CD1       12.0010    7.7970   70.9780 C.ar   82  TYR82      -0.0009
     68  CD2       11.7590    6.3380   72.8500 C.ar   82  TYR82      -0.0009
     69  CE1       13.2570    7.2480   70.7040 C.ar   82  TYR82       0.0417
     70  CE2       13.0120    5.7840   72.5860 C.ar   82  TYR82       0.0417
     71  CZ        13.7570    6.2460   71.5150 C.ar   82  TYR82       0.1957
     72  OH        15.0150    5.7330   71.2840 O.3    82  TYR82      -0.2866
     73  N         10.8310   11.0430   72.1700 N.am   83  GLU83      -0.1977
     74  CA        11.8620   11.9790   71.7380 C.3    83  GLU83       0.1602
     75  C         11.9150   13.2880   72.5230 C.2    83  GLU83       0.2287
     76  O         12.9390   13.9680   72.5000 O.2    83  GLU83      -0.2864
     77  CB        11.6850   12.3150   70.2500 C.3    83  GLU83       0.0415
     78  CG        11.5530   11.1240   69.3230 C.3    83  GLU83       0.1163
     79  CD        12.8790   10.5470   68.8800 C.2    83  GLU83       0.3649
     80  OE1       13.9440   11.0610   69.3160 O.co2  83  GLU83      -0.2457
     81  OE2       12.8410    9.5800   68.0860 O.co2  83  GLU83      -0.2457
     82  N         23.4440   -0.1700   71.2540 N.3    97  GLN97      -0.1231
     83  CA        23.1570   -0.6710   69.9180 C.3    97  GLN97       0.1698
     84  C         23.4110    0.3900   68.8630 C.2    97  GLN97       0.2593
     85  O         23.2250    1.5830   69.1010 O.2    97  GLN97      -0.2718
     86  CB        21.7170   -1.2000   69.8250 C.3    97  GLN97       0.0381
     87  CG        20.6380   -0.3110   70.4510 C.3    97  GLN97       0.0905
     88  CD        19.2230   -0.8580   70.2470 C.2    97  GLN97       0.2608
     89  OE1       18.2640   -0.3910   70.8640 O.2    97  GLN97      -0.2717
     90  NE2       19.0950   -1.8470   69.3730 N.am   97  GLN97      -0.0878
     91  N         23.8460   -0.0780   67.6970 N.am   98  SER98      -0.1938
     92  CA        24.1870    0.7680   66.5570 C.3    98  SER98       0.2055
     93  C         23.6260    2.1930   66.5400 C.2    98  SER98       0.2643
     94  O         24.3730    3.1570   66.3410 O.2    98  SER98      -0.2714
     95  CB        23.8110    0.0500   65.2530 C.3    98  SER98       0.2130
     96  OG        22.4430   -0.3220   65.2410 O.3    98  SER98      -0.2179
     97  N         22.3210    2.3360   66.7560 N.am   99  TRP99      -0.1959
     98  CA        21.7090    3.6610   66.7140 C.3    99  TRP99       0.1771
     99  C         21.4150    4.3420   68.0570 C.2    99  TRP99       0.2619
    100  O         21.0560    5.5190   68.0840 O.2    99  TRP99      -0.2715
    101  CB        20.4380    3.6260   65.8400 C.3    99  TRP99       0.0590
    102  CG        19.4790    2.5170   66.1540 C.ar   99  TRP99       0.0006
    103  CD1       19.6480    1.1850   65.9000 C.ar   99  TRP99       0.0946
    104  CD2       18.1980    2.6480   66.7830 C.ar   99  TRP99       0.0152
    105  NE1       18.5510    0.4770   66.3310 N.ar   99  TRP99      -0.2442
    106  CE2       17.6470    1.3490   66.8780 C.ar   99  TRP99       0.0810
    107  CE3       17.4620    3.7370   67.2780 C.ar   99  TRP99       0.0012
    108  CZ2       16.3900    1.1070   67.4460 C.ar   99  TRP99       0.0191
    109  CZ3       16.2120    3.4980   67.8430 C.ar   99  TRP99       0.0001
    110  CH2       15.6900    2.1900   67.9220 C.ar   99  TRP99       0.0015
    111  N         21.5680    3.6270   69.1680 N.am  100  ARG100     -0.1977
    112  CA        21.3320    4.2420   70.4760 C.3   100  ARG100      0.1597
    113  C         22.0380    3.5040   71.6040 C.2   100  ARG100      0.2287
    114  O         21.9610    2.2820   71.7100 O.2   100  ARG100     -0.2864
    115  CB        19.8330    4.3280   70.7710 C.3   100  ARG100      0.0334
    116  CG        19.1520    2.9890   70.8720 C.3   100  ARG100      0.0492
    117  CD        17.6860    3.1440   71.2250 C.3   100  ARG100      0.2205
    118  NE        16.9700    1.8820   71.0510 N.pl3 100  ARG100     -0.0865
    119  CZ        15.6460    1.7740   70.9820 C.cat 100  ARG100      0.5346
    120  NH1       14.8920    2.8590   71.0790 N.pl3 100  ARG100      0.1354
    121  NH2       15.0780    0.5870   70.7870 N.pl3 100  ARG100      0.1354
    122  N         18.0380    3.4370   75.8480 N.3   103  ARG103     -0.1231
    123  CA        16.6400    3.4040   75.4390 C.3   103  ARG103      0.1694
    124  C         15.8040    3.3680   76.7130 C.2   103  ARG103      0.2591
    125  O         16.3120    3.6300   77.8020 O.2   103  ARG103     -0.2718
    126  CB        16.3500    2.1700   74.5790 C.3   103  ARG103      0.0321
    127  CG        16.0700    0.8910   75.3500 C.3   103  ARG103      0.0489
    128  CD        16.1970   -0.3080   74.4310 C.3   103  ARG103      0.2205
    129  NE        14.9680   -1.0750   74.2450 N.pl3 103  ARG103     -0.0865
    130  CZ        13.8120   -0.5710   73.8300 C.cat 103  ARG103      0.5346
    131  NH1       13.7010    0.7250   73.5680 N.pl3 103  ARG103      0.1354
    132  NH2       12.7800   -1.3700   73.6210 N.pl3 103  ARG103      0.1354
    133  N         14.5200    3.0600   76.5770 N.am  104  VAL104     -0.1980
    134  CA        13.6540    2.9910   77.7410 C.3   104  VAL104      0.1595
    135  C         13.0320    1.6130   77.7640 C.2   104  VAL104      0.2287
    136  O         12.8770    0.9860   76.7150 O.2   104  VAL104     -0.2864
    137  CB        12.5430    4.0630   77.6890 C.3   104  VAL104      0.0276
    138  CG1       13.0900    5.4170   78.1640 C.3   104  VAL104      0.0022
    139  CG2       12.0080    4.1750   76.2760 C.3   104  VAL104      0.0022
    140  N          7.9480   -4.3650   65.8360 N.3   131  TRP131     -0.1227
    141  CA         8.3090   -3.3100   64.8890 C.3   131  TRP131      0.1737
    142  C          9.7280   -2.7720   65.0340 C.2   131  TRP131      0.2595
    143  O         10.1300   -1.8620   64.3120 O.2   131  TRP131     -0.2718
    144  CB         7.3070   -2.1540   64.9820 C.3   131  TRP131      0.0564
    145  CG         5.9360   -2.4920   64.4690 C.ar  131  TRP131      0.0003
    146  CD1        5.3980   -3.7400   64.3130 C.ar  131  TRP131      0.0946
    147  CD2        4.9140   -1.5660   64.0830 C.ar  131  TRP131      0.0152
    148  NE1        4.1080   -3.6440   63.8520 N.ar  131  TRP131     -0.2442
    149  CE2        3.7870   -2.3210   63.7050 C.ar  131  TRP131      0.0810
    150  CE3        4.8420   -0.1680   64.0240 C.ar  131  TRP131      0.0012
    151  CZ2        2.6030   -1.7260   63.2730 C.ar  131  TRP131      0.0191
    152  CZ3        3.6630    0.4230   63.5930 C.ar  131  TRP131      0.0001
    153  CH2        2.5640   -0.3560   63.2240 C.ar  131  TRP131      0.0015
    154  N         10.4910   -3.3540   65.9530 N.am  132  HIS132     -0.1961
    155  CA        11.8730   -2.9500   66.1830 C.3   132  HIS132      0.1787
    156  C         12.9170   -3.7660   65.4220 C.2   132  HIS132      0.2620
    157  O         14.0250   -3.2760   65.1710 O.2   132  HIS132     -0.2715
    158  CB        12.1850   -3.0340   67.6640 C.3   132  HIS132      0.0785
    159  CG        12.1880   -1.7120   68.3500 C.ar  132  HIS132      0.0821
    160  ND1       11.9140   -1.5760   69.6940 N.ar  132  HIS132     -0.2267
    161  CD2       12.4370   -0.4650   67.8870 C.ar  132  HIS132      0.1154
    162  CE1       11.9860   -0.2990   70.0260 C.ar  132  HIS132      0.1986
    163  NE2       12.3010    0.3970   68.9470 N.ar  132  HIS132     -0.2212
    164  N         12.5750   -5.0090   65.0730 N.am  133  LYS133     -0.1963
    165  CA        13.5010   -5.9070   64.3800 C.3   133  LYS133      0.1728
    166  C         12.7660   -6.7950   63.3910 C.2   133  LYS133      0.2617
    167  O         11.6320   -7.1900   63.6420 O.2   133  LYS133     -0.2715
    168  CB        14.2200   -6.8070   65.3950 C.3   133  LYS133      0.0311
    169  CG        14.6250   -6.1030   66.7030 C.3   133  LYS133      0.0038
    170  CD        16.0350   -5.5310   66.6440 C.3   133  LYS133      0.0206
    171  CE        17.0740   -6.6510   66.7570 C.3   133  LYS133      0.1093
    172  NZ        18.4610   -6.1710   66.4690 N.3   133  LYS133     -0.1314
    173  N         13.4020   -7.1010   62.2610 N.am  134  GLY134     -0.1940
    174  CA        12.7770   -7.9840   61.2940 C.3   134  GLY134      0.2014
    175  C         12.2920   -7.4050   59.9830 C.2   134  GLY134      0.2638
    176  O         12.0270   -8.1460   59.0380 O.2   134  GLY134     -0.2714
    177  N         12.1700   -6.0920   59.8940 N.am  135  TRP135     -0.1973
    178  CA        11.6950   -5.4910   58.6540 C.3   135  TRP135      0.1640
    179  C         12.6500   -5.6710   57.4720 C.2   135  TRP135      0.2290
    180  O         13.7970   -6.0700   57.6410 O.2   135  TRP135     -0.2864
    181  CB        11.4590   -3.9980   58.8540 C.3   135  TRP135      0.0576
    182  CG        10.4110   -3.6570   59.8570 C.ar  135  TRP135      0.0006
    183  CD1       10.5970   -3.2630   61.1530 C.ar  135  TRP135      0.0946
    184  CD2        9.0040   -3.7010   59.6470 C.ar  135  TRP135      0.0152
    185  NE1        9.3830   -3.0580   61.7650 N.ar  135  TRP135     -0.2442
    186  CE2        8.3860   -3.3220   60.8610 C.ar  135  TRP135      0.0810
    187  CE3        8.2010   -4.0280   58.5480 C.ar  135  TRP135      0.0012
    188  CZ2        6.9990   -3.2610   61.0050 C.ar  135  TRP135      0.0191
    189  CZ3        6.8290   -3.9680   58.6900 C.ar  135  TRP135      0.0001
    190  CH2        6.2390   -3.5870   59.9130 C.ar  135  TRP135      0.0015
    191  N         14.4370   -3.4990   54.8620 N.3   137  TRP137     -0.1241
    192  CA        14.7620   -2.1310   54.5070 C.3   137  TRP137      0.1605
    193  C         15.4080   -1.9490   53.1320 C.2   137  TRP137      0.2264
    194  O         16.0250   -0.9180   52.8620 O.2   137  TRP137     -0.2867
    195  CB        15.6600   -1.5360   55.5750 C.3   137  TRP137      0.0550
    196  CG        15.0070   -1.4210   56.9000 C.ar  137  TRP137      0.0003
    197  CD1       14.8870   -2.3950   57.8500 C.ar  137  TRP137      0.0946
    198  CD2       14.4150   -0.2440   57.4520 C.ar  137  TRP137      0.0152
    199  NE1       14.2630   -1.8920   58.9670 N.ar  137  TRP137     -0.2442
    200  CE2       13.9630   -0.5740   58.7500 C.ar  137  TRP137      0.0810
    201  CE3       14.2240    1.0620   56.9770 C.ar  137  TRP137      0.0012
    202  CZ2       13.3310    0.3550   59.5810 C.ar  137  TRP137      0.0191
    203  CZ3       13.5970    1.9860   57.8010 C.ar  137  TRP137      0.0001
    204  CH2       13.1580    1.6270   59.0940 C.ar  137  TRP137      0.0015
    205  N          7.1280   -2.0690   70.5060 N.3   168  TRP168     -0.1241
    206  CA         8.4780   -1.5070   70.5880 C.3   168  TRP168      0.1605
    207  C          9.3300   -2.3180   71.5690 C.2   168  TRP168      0.2264
    208  O          9.9840   -1.7660   72.4570 O.2   168  TRP168     -0.2867
    209  CB         8.4110   -0.0490   71.0470 C.3   168  TRP168      0.0550
    210  CG         7.7310    0.8930   70.0830 C.ar  168  TRP168      0.0003
    211  CD1        6.8500    1.8930   70.4030 C.ar  168  TRP168      0.0946
    212  CD2        7.9230    0.9680   68.6600 C.ar  168  TRP168      0.0152
    213  NE1        6.4860    2.5840   69.2690 N.ar  168  TRP168     -0.2442
    214  CE2        7.1270    2.0390   68.1860 C.ar  168  TRP168      0.0810
    215  CE3        8.6890    0.2370   67.7410 C.ar  168  TRP168      0.0012
    216  CZ2        7.0770    2.3980   66.8280 C.ar  168  TRP168      0.0191
    217  CZ3        8.6400    0.5920   66.3880 C.ar  168  TRP168      0.0001
    218  CH2        7.8370    1.6650   65.9460 C.ar  168  TRP168      0.0015
    219  N          9.4220   -1.4120   75.3360 N.3   171  SER171     -0.1202
    220  CA         9.7580   -0.0370   75.7150 C.3   171  SER171      0.2020
    221  C          8.7320    0.3760   76.7580 C.2   171  SER171      0.2618
    222  O          9.0090    1.1820   77.6480 O.2   171  SER171     -0.2717
    223  CB         9.6800    0.9280   74.5200 C.3   171  SER171      0.2103
    224  OG        10.8930    0.9710   73.7840 O.3   171  SER171     -0.2182
    225  N          7.5350   -0.1930   76.6340 N.am  172  TYR172     -0.1975
    226  CA         6.4400    0.0840   77.5520 C.3   172  TYR172      0.1639
    227  C          6.0780   -1.1740   78.3310 C.2   172  TYR172      0.2290
    228  O          6.4230   -2.2890   77.9440 O.2   172  TYR172     -0.2864
    229  CB         5.1920    0.5430   76.7910 C.3   172  TYR172      0.0560
    230  CG         5.2110    1.9650   76.2650 C.ar  172  TYR172     -0.0198
    231  CD1        5.1470    2.2240   74.8820 C.ar  172  TYR172     -0.0009
    232  CD2        5.2160    3.0600   77.1410 C.ar  172  TYR172     -0.0009
    233  CE1        5.0790    3.5360   74.3810 C.ar  172  TYR172      0.0417
    234  CE2        5.1480    4.3840   76.6550 C.ar  172  TYR172      0.0417
    235  CZ         5.0760    4.6130   75.2680 C.ar  172  TYR172      0.1957
    236  OH         4.9800    5.8950   74.7600 O.3   172  TYR172     -0.2866
@<TRIPOS>BOND
     1   194   193    2
     2   193   192    1
     3   192   191    1
     4   192   195    1
     5   195   196    1
     6   196   198   ar
     7   196   197   ar
     8   201   198   ar
     9   201   203   ar
    10   198   200   ar
    11   179   180    2
    12   179   178    1
    13   203   204   ar
    14   197   199   ar
    15    26    27    2
    16    26    25    1
    17    24    25    1
    18    16    15    2
    19    15    14    1
    20   187   189   ar
    21   187   184   ar
    22   178   181    1
    23   178   177    1
    24   189   190   ar
    25   200   199   ar
    26   200   202   ar
    27   181   182    1
    28    13    14    1
    29   176   175    2
    30   204   202   ar
    31    25    28    1
    32    14    17    1
    33     4     3    2
    34   184   182   ar
    35   184   186   ar
    36    28    29    1
    37     3     2    1
    38   182   183   ar
    39   177   175   am
    40   190   188   ar
    41   175   174    1
    42    30    29   ar
    43    30    32   ar
    44    29    31   ar
    45    17    18    1
    46   186   188   ar
    47   186   185   ar
    48     2     1    1
    49     2     5    1
    50   183   185   ar
    51    18    20   ar
    52    18    19   ar
    53   174   173    1
    54    20    22   ar
    55    32    33   ar
    56    19    21   ar
    57    31    33   ar
    58    31    34   ar
    59    22    23   ar
    60    21    23   ar
    61    33    35   ar
    62     5     6    1
    63   173   166   am
    64    34    36   ar
    65   153   151   ar
    66   153   152   ar
    67   151   149   ar
    68   166   167    2
    69   166   165    1
    70    35    37   ar
    71   152   150   ar
    72    36    37   ar
    73     6     8   ar
    74     6     7   ar
    75   149   148   ar
    76   149   147   ar
    77   148   146   ar
    78   150   147   ar
    79   147   145   ar
    80     8    10   ar
    81   143   142    2
    82   146   145   ar
    83     7     9   ar
    84   165   164    1
    85   165   168    1
    86   145   144    1
    87   141   144    1
    88   141   142    1
    89   141   140    1
    90   142   154   am
    91   164   156   am
    92   157   156    2
    93    96    95    1
    94    95    92    1
    95   168   169    1
    96   156   155    1
    97    10    11   ar
    98     9    11   ar
    99   101   102    1
   100   101    98    1
   101   103   102   ar
   102   103   105   ar
   103   218   217   ar
   104   218   216   ar
   105   154   155    1
   106   102   104   ar
   107   155   158    1
   108    11    12    1
   109   105   106   ar
   110    94    93    2
   111   217   215   ar
   112   172   171    1
   113    93    92    1
   114    93    97   am
   115    92    91    1
   116   170   169    1
   117   170   171    1
   118    98    97    1
   119    98    99    1
   120   104   106   ar
   121   104   107   ar
   122   216   214   ar
   123   106   108   ar
   124    51    50    1
   125    52    50    1
   126   107   109   ar
   127   108   110   ar
   128    50    47    1
   129   158   159    1
   130    91    84   am
   131   215   212   ar
   132   109   110   ar
   133   161   159   ar
   134   161   163   ar
   135    99   100    2
   136    99   111   am
   137    81    79   ar
   138   214   212   ar
   139   214   213   ar
   140   159   160   ar
   141   212   210   ar
   142    84    85    2
   143    84    83    1
   144    79    80   ar
   145    79    78    1
   146   163   162   ar
   147    47    46    1
   148    47    48    1
   149   111   112    1
   150   213   211   ar
   151    78    77    1
   152    90    88   am
   153    46    40   am
   154   160   162   ar
   155    86    83    1
   156    86    87    1
   157    48    49    2
   158    83    82    1
   159    45    43   ar
   160   210   211   ar
   161   210   209    1
   162    88    87    1
   163    88    89    2
   164    77    74    1
   165    38    39    1
   166    42    43    1
   167    42    39    1
   168   112   115    1
   169   112   113    1
   170   205   206    1
   171   206   209    1
   172   206   207    1
   173    69    67   ar
   174    69    71   ar
   175    40    39    1
   176    40    41    2
   177   115   116    1
   178   121   119    1
   179    43    44   ar
   180   116   117    1
   181    67    66   ar
   182   119   118    2
   183   119   120    1
   184   118   117    1
   185    72    71    1
   186    71    70   ar
   187   207   208    2
   188   113   114    2
   189    74    73    1
   190    74    75    1
   191    66    65    1
   192    66    68   ar
   193    73    63   am
   194    65    62    1
   195    76    75    2
   196    70    68   ar
   197    53    54    1
   198    63    62    1
   199    63    64    2
   200    62    61    1
   201    61    55   am
   202   131   130    1
   203   132   130    1
   204   224   223    1
   205   130   129    2
   206    54    55    1
   207    54    57    1
   208   129   128    1
   209    55    56    2
   210   233   231   ar
   211   233   235   ar
   212   128   127    1
   213   223   220    1
   214   126   127    1
   215   126   123    1
   216   236   235    1
   217    57    58    1
   218   231   230   ar
   219   235   234   ar
   220   219   220    1
   221   123   122    1
   222   123   124    1
   223   220   221    1
   224    58    60    1
   225    58    59    1
   226   230   229    1
   227   230   232   ar
   228   139   137    1
   229   133   124   am
   230   133   134    1
   231   225   221   am
   232   225   226    1
   233   234   232   ar
   234   124   125    2
   235   136   135    2
   236   221   222    2
   237   229   226    1
   238   226   227    1
   239   137   134    1
   240   137   138    1
   241   134   135    1
   242   228   227    2
