@<TRIPOS>MOLECULE
tmp/4lrjA00.pdb
 154 145 0 0 0
SMALL
GASTEIGER

@<TRIPOS>ATOM
      1  N        -14.9800    5.5530  -23.3100 N.3     9  ILE9       -0.1231
      2  CA       -15.9850    5.6400  -22.2560 C.3     9  ILE9        0.1692
      3  C        -15.6720    6.8180  -21.3340 C.2     9  ILE9        0.2593
      4  O        -16.5650    7.5280  -20.8700 O.2     9  ILE9       -0.2718
      5  CB       -15.9960    4.3580  -21.4070 C.3     9  ILE9        0.0266
      6  CG1      -16.6160    3.2080  -22.1840 C.3     9  ILE9        0.0019
      7  CG2      -16.7660    4.5600  -20.1050 C.3     9  ILE9        0.0020
      8  CD1      -16.4950    1.9060  -21.4610 C.3     9  ILE9        0.0001
      9  N        -14.3900    7.0160  -21.0660 N.am   10  GLY10      -0.1942
     10  CA       -13.9560    8.0870  -20.2020 C.3    10  GLY10       0.2014
     11  C        -12.4820    7.9550  -19.9270 C.2    10  GLY10       0.2639
     12  O        -11.8300    7.0350  -20.4020 O.2    10  GLY10      -0.2714
     13  N        -11.9470    8.8930  -19.1660 N.am   11  LYS11      -0.1963
     14  CA       -10.5550    8.8210  -18.7940 C.3    11  LYS11       0.1728
     15  C        -10.2970    9.5020  -17.4490 C.2    11  LYS11       0.2617
     16  O        -11.1670   10.1880  -16.8980 O.2    11  LYS11      -0.2715
     17  CB        -9.6710    9.4240  -19.8880 C.3    11  LYS11       0.0311
     18  CG        -9.9130   10.8970  -20.1440 C.3    11  LYS11       0.0038
     19  CD        -8.8610   11.4590  -21.0710 C.3    11  LYS11       0.0206
     20  CE        -9.1790   12.8850  -21.4570 C.3    11  LYS11       0.1093
     21  NZ       -10.3240   12.9450  -22.3920 N.3    11  LYS11      -0.1314
     22  N         -9.0960    9.2810  -16.9280 N.am   12  GLY12      -0.1940
     23  CA        -8.6440    9.9210  -15.7150 C.3    12  GLY12       0.2014
     24  C         -7.2150   10.3940  -15.8850 C.2    12  GLY12       0.2639
     25  O         -6.7380   10.5570  -17.0130 O.2    12  GLY12      -0.2714
     26  N         -6.5310   10.6150  -14.7660 N.am   13  GLY13      -0.1939
     27  CA        -5.1540   11.0590  -14.7930 C.3    13  GLY13       0.2014
     28  C         -4.1750    9.9180  -14.9660 C.2    13  GLY13       0.2639
     29  O         -2.9760   10.1400  -15.0980 O.2    13  GLY13      -0.2714
     30  N         -4.6870    8.6930  -14.9790 N.am   14  ASN14      -0.1958
     31  CA        -3.8430    7.5090  -15.1090 C.3    14  ASN14       0.1819
     32  C         -4.0900    6.6880  -16.3680 C.2    14  ASN14       0.2621
     33  O         -3.2290    5.9120  -16.7740 O.2    14  ASN14      -0.2715
     34  CB        -4.0120    6.5930  -13.8970 C.3    14  ASN14       0.1195
     35  CG        -3.3750    7.1580  -12.6470 C.2    14  ASN14       0.2630
     36  OD1       -2.1700    7.0430  -12.4490 O.2    14  ASN14      -0.2716
     37  ND2       -4.1860    7.7750  -11.7930 N.am   14  ASN14      -0.0877
     38  N         -5.2590    6.8520  -16.9790 N.am   15  ALA15      -0.1977
     39  CA        -5.6480    5.9820  -18.0800 C.3    15  ALA15       0.1597
     40  C         -6.7760    6.5330  -18.9490 C.2    15  ALA15       0.2287
     41  O         -7.5420    7.4000  -18.5290 O.2    15  ALA15      -0.2864
     42  CB        -6.0310    4.6110  -17.5410 C.3    15  ALA15       0.0319
     43  N        -10.0270    4.8780  -20.9540 N.3    17  VAL17      -0.1245
     44  CA       -10.8080    3.6530  -20.9780 C.3    17  VAL17       0.1561
     45  C        -11.6210    3.5710  -22.2730 C.2    17  VAL17       0.2260
     46  O        -12.4290    4.4480  -22.5650 O.2    17  VAL17      -0.2867
     47  CB       -11.7500    3.5570  -19.7500 C.3    17  VAL17       0.0252
     48  CG1      -12.5020    2.2330  -19.7350 C.3    17  VAL17       0.0019
     49  CG2      -10.9570    3.7230  -18.4680 C.3    17  VAL17       0.0019
     50  N        -14.0640   -3.6720  -21.0000 N.3    27  VAL27      -0.1245
     51  CA       -13.4560   -2.3910  -21.3160 C.3    27  VAL27       0.1561
     52  C        -11.9410   -2.5440  -21.3030 C.2    27  VAL27       0.2260
     53  O        -11.4040   -3.4870  -20.7140 O.2    27  VAL27      -0.2867
     54  CB       -13.8910   -1.2650  -20.3380 C.3    27  VAL27       0.0252
     55  CG1      -15.4050   -1.1820  -20.2600 C.3    27  VAL27       0.0019
     56  CG2      -13.2870   -1.4730  -18.9570 C.3    27  VAL27       0.0019
     57  N         -8.7190   -0.5470  -20.1490 N.3    29  LYS29      -0.1245
     58  CA        -8.1630    0.5950  -19.4310 C.3    29  LYS29       0.1561
     59  C         -6.6790    0.7350  -19.7460 C.2    29  LYS29       0.2260
     60  O         -5.8690   -0.0370  -19.2540 O.2    29  LYS29      -0.2867
     61  CB        -8.3930    0.4510  -17.9290 C.3    29  LYS29       0.0271
     62  CG        -7.7930    1.5670  -17.1040 C.3    29  LYS29       0.0035
     63  CD        -8.1360    1.4070  -15.6420 C.3    29  LYS29       0.0206
     64  CE        -7.6180    2.5750  -14.8260 C.3    29  LYS29       0.1093
     65  NZ        -7.7900    2.3360  -13.3700 N.3    29  LYS29      -0.1314
     66  N        -10.2780   -6.6000   -8.2450 N.3    47  PHE47      -0.1241
     67  CA       -11.4270   -6.5950   -9.1400 C.3    47  PHE47       0.1605
     68  C        -11.9630   -8.0140   -9.2960 C.2    47  PHE47       0.2264
     69  O        -13.1660   -8.2310   -9.3410 O.2    47  PHE47      -0.2867
     70  CB       -11.0170   -6.0120  -10.4940 C.3    47  PHE47       0.0534
     71  CG       -12.1690   -5.5350  -11.3330 C.ar   47  PHE47      -0.0203
     72  CD1      -12.6820   -4.2550  -11.1740 C.ar   47  PHE47      -0.0042
     73  CD2      -12.7260   -6.3540  -12.2910 C.ar   47  PHE47      -0.0042
     74  CE1      -13.7320   -3.8190  -11.9520 C.ar   47  PHE47      -0.0003
     75  CE2      -13.7720   -5.9230  -13.0600 C.ar   47  PHE47      -0.0003
     76  CZ       -14.2740   -4.6530  -12.8920 C.ar   47  PHE47      -0.0000
     77  N        -11.0610   -5.4650  -18.4700 N.3    71  MET71      -0.1230
     78  CA       -11.9270   -5.8370  -17.3600 C.3    71  MET71       0.1702
     79  C        -13.3890   -5.6800  -17.6970 C.2    71  MET71       0.2592
     80  O        -13.7310   -4.9900  -18.6450 O.2    71  MET71      -0.2718
     81  CB       -11.5910   -4.9970  -16.1290 C.3    71  MET71       0.0401
     82  CG       -12.1870   -3.6120  -16.1580 C.3    71  MET71       0.0596
     83  SD       -11.5890   -2.5910  -14.8320 S.3    71  MET71      -0.1393
     84  CE       -10.2900   -1.7070  -15.6700 C.3    71  MET71       0.0692
     85  N        -14.2420   -6.3330  -16.9100 N.am   72  ASP72      -0.1960
     86  CA       -15.7010   -6.2270  -17.0520 C.3    72  ASP72       0.1840
     87  C        -16.1690   -4.7840  -17.1750 C.2    72  ASP72       0.2622
     88  O        -15.7510   -3.9280  -16.4040 O.2    72  ASP72      -0.2715
     89  CB       -16.4280   -6.8200  -15.8390 C.3    72  ASP72       0.1450
     90  CG       -16.3970   -8.3240  -15.7940 C.2    72  ASP72       0.3671
     91  OD1      -15.9150   -8.9510  -16.7530 O.co2  72  ASP72      -0.2456
     92  OD2      -16.8730   -8.8720  -14.7760 O.co2  72  ASP72      -0.2456
     93  N        -17.0340   -4.5200  -18.1510 N.am   73  LYS73      -0.1963
     94  CA       -17.7490   -3.2550  -18.1960 C.3    73  LYS73       0.1728
     95  C        -18.7920   -3.2980  -17.0910 C.2    73  LYS73       0.2616
     96  O        -19.6370   -4.1860  -17.0500 O.2    73  LYS73      -0.2715
     97  CB       -18.4180   -3.0450  -19.5500 C.3    73  LYS73       0.0311
     98  CG       -18.9810   -1.6590  -19.7400 C.3    73  LYS73       0.0038
     99  CD       -19.6760   -1.5290  -21.0830 C.3    73  LYS73       0.0206
    100  CE       -18.7810   -2.0250  -22.2080 C.3    73  LYS73       0.1093
    101  NZ       -19.4540   -2.0300  -23.5450 N.3    73  LYS73      -0.1314
    102  N        -18.7000   -2.3390  -16.1830 N.am   74  ILE74      -0.1977
    103  CA       -19.5930   -2.2380  -15.0440 C.3    74  ILE74       0.1596
    104  C        -20.8190   -1.4230  -15.4420 C.2    74  ILE74       0.2287
    105  O        -20.6920   -0.3580  -16.0470 O.2    74  ILE74      -0.2864
    106  CB       -18.8620   -1.5710  -13.8530 C.3    74  ILE74       0.0276
    107  CG1      -17.5720   -2.3270  -13.5180 C.3    74  ILE74       0.0022
    108  CG2      -19.7620   -1.4930  -12.6500 C.3    74  ILE74       0.0022
    109  CD1      -17.7630   -3.7970  -13.2840 C.3    74  ILE74       0.0001
    110  N        -22.7820    7.2490  -13.3600 N.3    78  SER78      -0.1217
    111  CA       -21.8660    7.7940  -12.3730 C.3    78  SER78       0.1889
    112  C        -22.6490    8.5930  -11.3290 C.2    78  SER78       0.2288
    113  O        -23.5950    9.3130  -11.6630 O.2    78  SER78      -0.2866
    114  CB       -20.8080    8.6640  -13.0540 C.3    78  SER78       0.2089
    115  OG       -19.8880    9.1830  -12.1120 O.3    78  SER78      -0.2183
    116  N        -16.9130    9.4730   -8.3180 N.3   113  THR113     -0.1203
    117  CA       -16.5800    9.0950   -9.6860 C.3   113  THR113      0.1994
    118  C        -16.0980    7.6470   -9.7660 C.2   113  THR113      0.2617
    119  O        -15.8700    7.1300  -10.8510 O.2   113  THR113     -0.2717
    120  CB       -15.5240   10.0420  -10.3150 C.3   113  THR113      0.1784
    121  OG1      -14.2580    9.8560   -9.6780 O.3   113  THR113     -0.2211
    122  CG2      -15.9440   11.4890  -10.1680 C.3   113  THR113      0.0376
    123  N        -15.9540    6.9950   -8.6170 N.am  114  ASN114     -0.1974
    124  CA       -15.4550    5.6260   -8.5690 C.3   114  ASN114      0.1688
    125  C        -16.5130    4.5600   -8.2780 C.2   114  ASN114      0.2292
    126  O        -16.1900    3.3870   -8.0700 O.2   114  ASN114     -0.2864
    127  CB       -14.3160    5.5000   -7.5620 C.3   114  ASN114      0.1181
    128  CG       -13.4620    4.2910   -7.8190 C.2   114  ASN114      0.2629
    129  OD1      -13.2440    3.9210   -8.9700 O.2   114  ASN114     -0.2716
    130  ND2      -12.9920    3.6490   -6.7570 N.am  114  ASN114     -0.0877
    131  N        -20.5980    3.3090   -9.7120 N.3   116  LEU116     -0.1245
    132  CA       -21.7010    3.4700  -10.6420 C.3   116  LEU116      0.1561
    133  C        -22.9930    3.0040   -9.9820 C.2   116  LEU116      0.2260
    134  O        -23.0050    2.0090   -9.2570 O.2   116  LEU116     -0.2867
    135  CB       -21.4450    2.6570  -11.9130 C.3   116  LEU116      0.0270
    136  CG       -20.1690    2.9770  -12.6910 C.3   116  LEU116      0.0019
    137  CD1      -20.1190    2.1890  -13.9860 C.3   116  LEU116      0.0001
    138  CD2      -20.0630    4.4690  -12.9660 C.3   116  LEU116      0.0001
    139  N        -15.6810    0.8240   -9.2790 N.3   127  ILE127     -0.1231
    140  CA       -14.9840    0.7090  -10.5560 C.3   127  ILE127      0.1692
    141  C        -13.5380    0.2620  -10.3630 C.2   127  ILE127      0.2592
    142  O        -13.1700   -0.8480  -10.7420 O.2   127  ILE127     -0.2718
    143  CB       -15.0320    2.0500  -11.3190 C.3   127  ILE127      0.0266
    144  CG1      -16.4820    2.4020  -11.6720 C.3   127  ILE127      0.0019
    145  CG2      -14.1570    2.0050  -12.5580 C.3   127  ILE127      0.0020
    146  CD1      -16.6430    3.7610  -12.2890 C.3   127  ILE127      0.0001
    147  N        -12.7310    1.1350   -9.7640 N.am  128  ASP128     -0.1974
    148  CA       -11.3490    0.8360   -9.4200 C.3   128  ASP128      0.1709
    149  C        -11.2400    0.4870   -7.9610 C.2   128  ASP128      0.2293
    150  O        -11.4820    1.3140   -7.0870 O.2   128  ASP128     -0.2864
    151  CB       -10.4530    2.0360   -9.6610 C.3   128  ASP128      0.1436
    152  CG       -10.0990    2.2010  -11.0990 C.2   128  ASP128      0.3671
    153  OD1      -10.4810    1.3250  -11.9050 O.co2 128  ASP128     -0.2456
    154  OD2       -9.4270    3.1990  -11.4220 O.co2 128  ASP128     -0.2456
@<TRIPOS>BOND
     1   101   100    1
     2     1     2    1
     3    46    45    2
     4    21    20    1
     5    45    44    1
     6     2     5    1
     7     2     3    1
     8   100    99    1
     9     6     8    1
    10     6     5    1
    11    20    19    1
    12     5     7    1
    13     3     9   am
    14     3     4    2
    15    51    52    1
    16    51    50    1
    17    51    54    1
    18    52    53    2
    19    99    98    1
    20    19    18    1
    21     9    10    1
    22    44    43    1
    23    44    47    1
    24    12    11    2
    25    54    55    1
    26    54    56    1
    27    10    11    1
    28    57    58    1
    29    18    17    1
    30    11    13   am
    31    17    14    1
    32    47    48    1
    33    47    49    1
    34    59    58    1
    35    59    60    2
    36    98    97    1
    37    97    94    1
    38    58    61    1
    39    13    14    1
    40    40    41    2
    41    40    39    1
    42    14    15    1
    43    80    79    2
    44    77    78    1
    45    94    93    1
    46    94    95    1
    47    93    87   am
    48    39    42    1
    49    39    38    1
    50    61    62    1
    51    79    78    1
    52    79    85   am
    53    15    22   am
    54    15    16    2
    55    78    81    1
    56    87    86    1
    57    87    88    2
    58    62    63    1
    59    95    96    2
    60    95   102   am
    61    86    85    1
    62    86    89    1
    63    25    24    2
    64    38    32   am
    65    22    23    1
    66    33    32    2
    67    91    90   ar
    68    32    31    1
    69   102   103    1
    70    82    81    1
    71    82    83    1
    72   105   104    2
    73    24    23    1
    74    24    26   am
    75    89    90    1
    76    90    92   ar
    77    84    83    1
    78    63    64    1
    79   104   103    1
    80    31    30    1
    81    31    34    1
    82    29    28    2
    83   103   106    1
    84    30    28   am
    85    28    27    1
    86    64    65    1
    87    27    26    1
    88   137   136    1
    89    34    35    1
    90   106   107    1
    91   106   108    1
    92   107   109    1
    93   110   111    1
    94    75    76   ar
    95    75    73   ar
    96   114   111    1
    97   114   115    1
    98   138   136    1
    99    76    74   ar
   100   136   135    1
   101    35    36    2
   102    35    37   am
   103   145   143    1
   104   111   112    1
   105    73    71   ar
   106   146   144    1
   107    74    72   ar
   108   135   132    1
   109   153   152   ar
   110   144   143    1
   111   113   112    2
   112   154   152   ar
   113    71    72   ar
   114    71    70    1
   115   143   140    1
   116   152   151    1
   117   119   118    2
   118   142   141    2
   119   132   133    1
   120   132   131    1
   121   140   141    1
   122   140   139    1
   123    70    67    1
   124   141   147   am
   125   120   122    1
   126   120   117    1
   127   120   121    1
   128   133   134    2
   129   118   117    1
   130   118   123   am
   131   147   148    1
   132   117   116    1
   133   151   148    1
   134   148   149    1
   135    69    68    2
   136    68    67    1
   137    67    66    1
   138   129   128    2
   139   123   124    1
   140   124   125    1
   141   124   127    1
   142   125   126    2
   143   149   150    2
   144   128   127    1
   145   128   130   am
