@<TRIPOS>MOLECULE
tmp/4lrlC02.pdb
 98 96 0 0 0
SMALL
GASTEIGER

@<TRIPOS>ATOM
      1  N          0.6450   -9.2210   24.3920 N.3    52  SER52      -0.1202
      2  CA         1.2510   -9.3530   23.0740 C.3    52  SER52       0.2020
      3  C          0.3670   -8.7610   21.9680 C.2    52  SER52       0.2619
      4  O          0.8380   -8.4750   20.8730 O.2    52  SER52      -0.2717
      5  CB         1.5940  -10.8150   22.7840 C.3    52  SER52       0.2103
      6  OG         0.4240  -11.5870   22.5460 O.3    52  SER52      -0.2182
      7  N         -0.9130   -8.5630   22.2590 N.am   53  PHE53      -0.1961
      8  CA        -1.8090   -7.9630   21.2700 C.3    53  PHE53       0.1771
      9  C         -1.5730   -6.4520   21.1100 C.2    53  PHE53       0.2620
     10  O         -1.8320   -5.8750   20.0380 O.2    53  PHE53      -0.2715
     11  CB        -3.2630   -8.2580   21.6210 C.3    53  PHE53       0.0574
     12  CG        -3.6520   -9.6970   21.4310 C.ar   53  PHE53      -0.0200
     13  CD1       -3.9420  -10.4990   22.5240 C.ar   53  PHE53      -0.0042
     14  CD2       -3.7360  -10.2510   20.1480 C.ar   53  PHE53      -0.0042
     15  CE1       -4.3120  -11.8490   22.3630 C.ar   53  PHE53      -0.0003
     16  CE2       -4.1030  -11.5990   19.9690 C.ar   53  PHE53      -0.0003
     17  CZ        -4.3980  -12.3960   21.0880 C.ar   53  PHE53      -0.0000
     18  N         -1.0580   -5.8270   22.1680 N.am   54  THR54      -0.1937
     19  CA        -0.7650   -4.3960   22.1510 C.3    54  THR54       0.2028
     20  C          0.7320   -4.1240   21.9650 C.2    54  THR54       0.2642
     21  O          1.0990   -3.1500   21.3060 O.2    54  THR54      -0.2714
     22  CB        -1.2800   -3.6980   23.4260 C.3    54  THR54       0.1808
     23  OG1       -2.6840   -3.9350   23.5620 O.3    54  THR54      -0.2208
     24  CG2       -1.0440   -2.1970   23.3560 C.3    54  THR54       0.0379
     25  N          1.5710   -4.9840   22.5500 N.am   55  PHE55      -0.1959
     26  CA         3.0240   -4.9480   22.4030 C.3    55  PHE55       0.1771
     27  C          3.4530   -6.2860   21.8110 C.2    55  PHE55       0.2619
     28  O          3.6260   -7.2690   22.5530 O.2    55  PHE55      -0.2715
     29  CB         3.6960   -4.7500   23.7720 C.3    55  PHE55       0.0574
     30  CG         3.2980   -3.4680   24.4730 C.ar   55  PHE55      -0.0200
     31  CD1        4.0430   -2.3070   24.3010 C.ar   55  PHE55      -0.0042
     32  CD2        2.1720   -3.4300   25.3040 C.ar   55  PHE55      -0.0042
     33  CE1        3.6840   -1.1240   24.9530 C.ar   55  PHE55      -0.0003
     34  CE2        1.7910   -2.2490   25.9540 C.ar   55  PHE55      -0.0003
     35  CZ         2.5400   -1.0920   25.7840 C.ar   55  PHE55      -0.0000
     36  N          3.6070   -6.3430   20.4810 N.am   56  HIS56      -0.1973
     37  CA         3.7580   -7.6260   19.8120 C.3    56  HIS56       0.1656
     38  C          5.1070   -8.3210   20.0540 C.2    56  HIS56       0.2291
     39  O          5.2900   -9.4850   19.7090 O.2    56  HIS56      -0.2864
     40  CB         3.4080   -7.5340   18.3180 C.3    56  HIS56       0.0771
     41  CG         4.3530   -6.6970   17.5190 C.ar   56  HIS56       0.0820
     42  ND1        4.0560   -5.4120   17.1220 N.ar   56  HIS56      -0.2267
     43  CD2        5.5900   -6.9640   17.0380 C.ar   56  HIS56       0.1154
     44  CE1        5.0710   -4.9210   16.4340 C.ar   56  HIS56       0.1986
     45  NE2        6.0160   -5.8420   16.3690 N.ar   56  HIS56      -0.2212
     46  N         -2.8250   -1.3890   30.0430 N.3   244  HIS244     -0.1241
     47  CA        -3.2310   -0.9350   28.7120 C.3   244  HIS244      0.1621
     48  C         -4.6360   -1.3950   28.3420 C.2   244  HIS244      0.2264
     49  O         -4.9370   -2.5910   28.4110 O.2   244  HIS244     -0.2867
     50  CB        -2.2490   -1.3720   27.6260 C.3   244  HIS244      0.0745
     51  CG        -2.3260   -0.5280   26.3930 C.ar  244  HIS244      0.0817
     52  ND1       -3.3710   -0.6110   25.4970 N.ar  244  HIS244     -0.2268
     53  CD2       -1.5110    0.4500   25.9300 C.ar  244  HIS244      0.1154
     54  CE1       -3.1910    0.2730   24.5300 C.ar  244  HIS244      0.1986
     55  NE2       -2.0660    0.9270   24.7670 N.ar  244  HIS244     -0.2212
     56  N         -6.2640   -1.7060   25.4400 N.3   246  VAL246     -0.1245
     57  CA        -6.4650   -2.6070   24.3120 C.3   246  VAL246      0.1561
     58  C         -6.1790   -4.0460   24.7570 C.2   246  VAL246      0.2260
     59  O         -6.9450   -4.9550   24.4530 O.2   246  VAL246     -0.2867
     60  CB        -5.6410   -2.1840   23.0900 C.3   246  VAL246      0.0252
     61  CG1       -5.7470   -3.2020   21.9840 C.3   246  VAL246      0.0019
     62  CG2       -6.1020   -0.8170   22.5970 C.3   246  VAL246      0.0019
     63  N         -7.9680  -10.8810   16.6250 N.3   325  ARG325     -0.1245
     64  CA        -7.6880   -9.6070   17.3060 C.3   325  ARG325      0.1563
     65  C         -8.7480   -8.5400   17.0330 C.2   325  ARG325      0.2260
     66  O         -8.5370   -7.6210   16.2400 O.2   325  ARG325     -0.2867
     67  CB        -6.2660   -9.0890   17.0010 C.3   325  ARG325      0.0307
     68  CG        -5.8120   -7.9300   17.8990 C.3   325  ARG325      0.0489
     69  CD        -4.5170   -7.2930   17.4160 C.3   325  ARG325      0.2205
     70  NE        -4.0300   -6.2110   18.2830 N.pl3 325  ARG325     -0.0865
     71  CZ        -4.5410   -4.9760   18.3460 C.cat 325  ARG325      0.5346
     72  NH1       -4.0070   -4.0840   19.1660 N.pl3 325  ARG325      0.1354
     73  NH2       -5.5990   -4.6270   17.6200 N.pl3 325  ARG325      0.1354
     74  N        -10.4550   -6.4380   19.6290 N.3   327  PRO327     -0.2116
     75  CA       -10.7300   -6.1710   21.0360 C.3   327  PRO327      0.1372
     76  C        -12.0000   -5.3490   21.1870 C.2   327  PRO327      0.2244
     77  O        -12.4110   -4.6590   20.2440 O.2   327  PRO327     -0.2868
     78  CB        -9.5070   -5.3760   21.5070 C.3   327  PRO327      0.0268
     79  CG        -8.6270   -5.1640   20.2640 C.3   327  PRO327      0.0207
     80  CD        -9.4270   -5.5450   19.0720 C.3   327  PRO327      0.0892
     81  N        -13.7400   -2.1060   22.5800 N.3   329  LYS329     -0.1245
     82  CA       -13.3340   -0.7370   22.8610 C.3   329  LYS329      0.1561
     83  C        -13.7960   -0.3940   24.2790 C.2   329  LYS329      0.2260
     84  O        -14.6230   -1.1080   24.8450 O.2   329  LYS329     -0.2867
     85  CB       -13.9720    0.1900   21.8230 C.3   329  LYS329      0.0271
     86  CG       -13.3540    1.5730   21.6800 C.3   329  LYS329      0.0035
     87  CD       -12.0040    1.5700   20.9410 C.3   329  LYS329      0.0206
     88  CE       -11.3660    2.9700   21.0000 C.3   329  LYS329      0.1093
     89  NZ       -10.0250    3.0880   20.3290 N.3   329  LYS329     -0.1314
     90  N        -16.4360   -2.0660   19.3040 N.3   421  LYS421     -0.1245
     91  CA       -15.9880   -0.9510   18.4780 C.3   421  LYS421      0.1561
     92  C        -17.0710   -0.5010   17.4900 C.2   421  LYS421      0.2260
     93  O        -17.2720    0.7030   17.2880 O.2   421  LYS421     -0.2867
     94  CB       -14.7030   -1.3240   17.7220 C.3   421  LYS421      0.0271
     95  CG       -14.0480   -0.1500   17.0030 C.3   421  LYS421      0.0035
     96  CD       -12.7040   -0.5090   16.3550 C.3   421  LYS421      0.0206
     97  CE       -12.2700    0.5990   15.3930 C.3   421  LYS421      0.1093
     98  NZ       -10.8060    0.6010   15.0890 N.3   421  LYS421     -0.1314
@<TRIPOS>BOND
     1    98    97    1
     2    97    96    1
     3    66    65    2
     4    96    95    1
     5    45    44   ar
     6    45    43   ar
     7    44    42   ar
     8    63    64    1
     9    67    64    1
    10    67    68    1
    11    95    94    1
    12    65    64    1
    13    43    41   ar
    14    42    41   ar
    15    93    92    2
    16    69    68    1
    17    69    70    1
    18    92    91    1
    19    41    40    1
    20    73    71    1
    21    94    91    1
    22    70    71    2
    23    40    37    1
    24    71    72    1
    25    91    90    1
    26    80    74    1
    27    80    79    1
    28    74    75    1
    29    39    38    2
    30    37    38    1
    31    37    36    1
    32    16    14   ar
    33    16    17   ar
    34    10     9    2
    35    14    12   ar
    36    77    76    2
    37    79    78    1
    38    89    88    1
    39    36    27   am
    40     4     3    2
    41    87    88    1
    42    87    86    1
    43    75    76    1
    44    75    78    1
    45    17    15   ar
    46     9     8    1
    47     9    18   am
    48     8    11    1
    49     8     7    1
    50    21    20    2
    51    12    11    1
    52    12    13   ar
    53    86    85    1
    54    27    26    1
    55    27    28    2
    56    85    82    1
    57    20    19    1
    58    20    25   am
    59     3     7   am
    60     3     2    1
    61    61    60    1
    62    19    18    1
    63    19    22    1
    64    15    13   ar
    65    26    25    1
    66    26    29    1
    67     6     5    1
    68    81    82    1
    69    62    60    1
    70     5     2    1
    71    82    83    1
    72     2     1    1
    73    60    57    1
    74    24    22    1
    75    22    23    1
    76    29    30    1
    77    83    84    2
    78    31    30   ar
    79    31    33   ar
    80    57    58    1
    81    57    56    1
    82    59    58    2
    83    30    32   ar
    84    54    55   ar
    85    54    52   ar
    86    55    53   ar
    87    33    35   ar
    88    32    34   ar
    89    52    51   ar
    90    35    34   ar
    91    53    51   ar
    92    51    50    1
    93    50    47    1
    94    48    49    2
    95    48    47    1
    96    47    46    1
