@<TRIPOS>MOLECULE
tmp/4lrlC00.pdb
 93 89 0 0 0
SMALL
GASTEIGER

@<TRIPOS>ATOM
      1  N         26.9050  -24.6830   33.8120 N.3    13  LYS13      -0.1231
      2  CA        26.0510  -24.6640   32.6270 C.3    13  LYS13       0.1693
      3  C         25.4040  -23.2990   32.4310 C.2    13  LYS13       0.2592
      4  O         24.6030  -22.8520   33.2520 O.2    13  LYS13      -0.2718
      5  CB        24.9760  -25.7470   32.7090 C.3    13  LYS13       0.0285
      6  CG        24.3180  -26.0620   31.3780 C.3    13  LYS13       0.0035
      7  CD        23.3160  -27.1710   31.5450 C.3    13  LYS13       0.0206
      8  CE        23.1810  -27.9790   30.2840 C.3    13  LYS13       0.1093
      9  NZ        24.4310  -28.7450   29.9790 N.3    13  LYS13      -0.1314
     10  N         25.7620  -22.6460   31.3330 N.am   14  VAL14      -0.1966
     11  CA        25.2570  -21.3100   31.0400 C.3    14  VAL14       0.1727
     12  C         24.1380  -21.3400   29.9990 C.2    14  VAL14       0.2616
     13  O         24.2160  -22.0510   28.9840 O.2    14  VAL14      -0.2715
     14  CB        26.3830  -20.2990   30.6270 C.3    14  VAL14       0.0290
     15  CG1       27.3500  -20.0560   31.7850 C.3    14  VAL14       0.0023
     16  CG2       27.1340  -20.7590   29.3690 C.3    14  VAL14       0.0023
     17  N         23.1000  -20.5610   30.2800 N.am   15  PHE15      -0.1960
     18  CA        21.9620  -20.4310   29.3960 C.3    15  PHE15       0.1771
     19  C         21.9430  -19.0000   28.8720 C.2    15  PHE15       0.2619
     20  O         21.8900  -18.0440   29.6450 O.2    15  PHE15      -0.2715
     21  CB        20.6580  -20.7090   30.1480 C.3    15  PHE15       0.0574
     22  CG        20.5280  -22.1160   30.6840 C.ar   15  PHE15      -0.0200
     23  CD1       21.4850  -22.6540   31.5450 C.ar   15  PHE15      -0.0042
     24  CD2       19.4170  -22.8870   30.3680 C.ar   15  PHE15      -0.0042
     25  CE1       21.3520  -23.9410   32.0510 C.ar   15  PHE15      -0.0003
     26  CE2       19.2730  -24.1710   30.8780 C.ar   15  PHE15      -0.0003
     27  CZ        20.2420  -24.7010   31.7160 C.ar   15  PHE15      -0.0000
     28  N         21.9820  -18.8510   27.5560 N.am   16  ARG16      -0.1977
     29  CA        21.8840  -17.5290   26.9740 C.3    16  ARG16       0.1597
     30  C         20.5230  -16.9210   27.3170 C.2    16  ARG16       0.2287
     31  O         19.4850  -17.5670   27.1720 O.2    16  ARG16      -0.2864
     32  CB        22.1040  -17.6030   25.4660 C.3    16  ARG16       0.0334
     33  CG        22.7850  -16.3840   24.8880 C.3    16  ARG16       0.0492
     34  CD        24.1730  -16.1700   25.4920 C.3    16  ARG16       0.2205
     35  NE        24.6920  -14.8500   25.1400 N.pl3  16  ARG16      -0.0865
     36  CZ        25.6720  -14.6280   24.2690 C.cat  16  ARG16       0.5346
     37  NH1       26.2930  -15.6360   23.6780 N.pl3  16  ARG16       0.1354
     38  NH2       26.0500  -13.3870   24.0110 N.pl3  16  ARG16       0.1354
     39  N         19.6460  -27.9610   37.8010 N.3    31  LEU31      -0.1245
     40  CA        19.5940  -28.4540   36.4310 C.3    31  LEU31       0.1561
     41  C         18.4340  -29.4320   36.2450 C.2    31  LEU31       0.2260
     42  O         17.6910  -29.3480   35.2580 O.2    31  LEU31      -0.2867
     43  CB        20.9150  -29.1020   36.0160 C.3    31  LEU31       0.0270
     44  CG        20.9400  -29.6270   34.5700 C.3    31  LEU31       0.0019
     45  CD1       20.7600  -28.5000   33.5640 C.3    31  LEU31       0.0001
     46  CD2       22.1970  -30.4070   34.2780 C.3    31  LEU31       0.0001
     47  N         15.0590  -27.5610   36.2800 N.3    34  ILE34      -0.1231
     48  CA        14.8730  -26.9070   34.9850 C.3    34  ILE34       0.1692
     49  C         14.4100  -27.9090   33.9420 C.2    34  ILE34       0.2592
     50  O         13.5160  -27.6300   33.1570 O.2    34  ILE34      -0.2718
     51  CB        16.1810  -26.2110   34.5090 C.3    34  ILE34       0.0266
     52  CG1       16.4830  -25.0060   35.4100 C.3    34  ILE34       0.0019
     53  CG2       16.0900  -25.8170   33.0180 C.3    34  ILE34       0.0020
     54  CD1       17.8430  -24.3830   35.2100 C.3    34  ILE34       0.0001
     55  N         15.0230  -29.0870   33.9670 N.am   35  ASN35      -0.1974
     56  CA        14.7420  -30.1430   33.0130 C.3    35  ASN35       0.1688
     57  C         13.4400  -30.8930   33.2780 C.2    35  ASN35       0.2292
     58  O         12.9800  -31.6460   32.4120 O.2    35  ASN35      -0.2864
     59  CB        15.9190  -31.1240   32.9530 C.3    35  ASN35       0.1181
     60  CG        17.0740  -30.6000   32.1190 C.2    35  ASN35       0.2629
     61  OD1       16.9110  -29.6860   31.3030 O.2    35  ASN35      -0.2716
     62  ND2       18.2510  -31.1890   32.3090 N.am   35  ASN35      -0.0877
     63  N          9.2910  -27.3440   32.3510 N.3    40  GLN40      -0.1245
     64  CA         9.3630  -27.2910   30.8960 C.3    40  GLN40       0.1566
     65  C          8.0910  -26.7620   30.2360 C.2    40  GLN40       0.2260
     66  O          8.1630  -26.1020   29.1950 O.2    40  GLN40      -0.2867
     67  CB         9.7020  -28.6640   30.3110 C.3    40  GLN40       0.0367
     68  CG        11.1480  -29.0770   30.5300 C.3    40  GLN40       0.0905
     69  CD        12.1460  -28.1450   29.8590 C.2    40  GLN40       0.2608
     70  OE1       12.0440  -27.8620   28.6660 O.2    40  GLN40      -0.2717
     71  NE2       13.1300  -27.6870   30.6230 N.am   40  GLN40      -0.0878
     72  N          7.3420  -23.1260   29.1070 N.3    43  ARG43      -0.1245
     73  CA         7.6810  -22.6280   27.7620 C.3    43  ARG43       0.1563
     74  C          6.4410  -22.3630   26.9320 C.2    43  ARG43       0.2260
     75  O          6.4340  -21.4750   26.0820 O.2    43  ARG43      -0.2867
     76  CB         8.5580  -23.6170   26.9990 C.3    43  ARG43       0.0307
     77  CG         9.9700  -23.7440   27.5230 C.3    43  ARG43       0.0489
     78  CD        10.5970  -24.9920   26.9280 C.3    43  ARG43       0.2205
     79  NE        11.9980  -25.1740   27.2890 N.pl3  43  ARG43      -0.0865
     80  CZ        13.0180  -24.5670   26.6930 C.cat  43  ARG43       0.5346
     81  NH1       12.8000  -23.6970   25.7140 N.pl3  43  ARG43       0.1354
     82  NH2       14.2620  -24.8220   27.0910 N.pl3  43  ARG43       0.1354
     83  N          8.6510  -19.5770   31.3640 N.3    63  PHE63      -0.1241
     84  CA         9.8840  -20.3330   31.5520 C.3    63  PHE63       0.1605
     85  C         11.0940  -19.4010   31.6280 C.2    63  PHE63       0.2264
     86  O         11.9050  -19.4980   32.5570 O.2    63  PHE63      -0.2867
     87  CB        10.0540  -21.3560   30.4330 C.3    63  PHE63       0.0534
     88  CG        11.3330  -22.1640   30.5150 C.ar   63  PHE63      -0.0203
     89  CD1       11.3870  -23.3350   31.2710 C.ar   63  PHE63      -0.0042
     90  CD2       12.4680  -21.7780   29.7930 C.ar   63  PHE63      -0.0042
     91  CE1       12.5490  -24.0920   31.3390 C.ar   63  PHE63      -0.0003
     92  CE2       13.6380  -22.5360   29.8550 C.ar   63  PHE63      -0.0003
     93  CZ        13.6750  -23.6950   30.6300 C.ar   63  PHE63      -0.0000
@<TRIPOS>BOND
     1    37    36    1
     2    38    36    1
     3    36    35    2
     4    33    32    1
     5    33    34    1
     6    35    34    1
     7    32    29    1
     8    81    80    1
     9    75    74    2
    10    80    82    1
    11    80    79    2
    12    78    79    1
    13    78    77    1
    14    74    73    1
    15    29    30    1
    16    29    28    1
    17    76    77    1
    18    76    73    1
    19    31    30    2
    20    28    19   am
    21    73    72    1
    22    70    69    2
    23    19    18    1
    24    19    20    2
    25    13    12    2
    26    66    65    2
    27    16    14    1
    28    18    21    1
    29    18    17    1
    30    90    92   ar
    31    90    88   ar
    32    92    93   ar
    33    69    68    1
    34    69    71   am
    35     9     8    1
    36    12    17   am
    37    12    11    1
    38    21    22    1
    39    65    64    1
    40     8     7    1
    41    67    68    1
    42    67    64    1
    43    24    22   ar
    44    24    26   ar
    45    87    88    1
    46    87    84    1
    47    88    89   ar
    48    14    11    1
    49    14    15    1
    50    93    91   ar
    51    22    23   ar
    52    26    27   ar
    53    64    63    1
    54    11    10    1
    55    89    91   ar
    56    61    60    2
    57    10     3   am
    58    83    84    1
    59     6     7    1
    60     6     5    1
    61    23    25   ar
    62    84    85    1
    63    85    86    2
    64    27    25   ar
    65    60    62   am
    66    60    59    1
    67    58    57    2
    68     3     2    1
    69     3     4    2
    70     2     5    1
    71     2     1    1
    72    59    56    1
    73    56    57    1
    74    56    55    1
    75    53    51    1
    76    50    49    2
    77    45    44    1
    78    49    55   am
    79    49    48    1
    80    46    44    1
    81    51    48    1
    82    51    52    1
    83    44    43    1
    84    48    47    1
    85    54    52    1
    86    42    41    2
    87    43    40    1
    88    41    40    1
    89    40    39    1
