@<TRIPOS>MOLECULE
tmp/4lrlB03.pdb
 85 81 0 0 0
SMALL
GASTEIGER

@<TRIPOS>ATOM
      1  N         49.4020   35.1630   46.9010 N.3   313  SER313     -0.1202
      2  CA        49.1200   33.8750   47.4910 C.3   313  SER313      0.2020
      3  C         47.6810   33.4380   47.2410 C.2   313  SER313      0.2618
      4  O         47.4400   32.2690   46.9640 O.2   313  SER313     -0.2717
      5  CB        49.4200   33.8990   48.9880 C.3   313  SER313      0.2103
      6  OG        48.5650   34.8060   49.6410 O.3   313  SER313     -0.2182
      7  N         46.7350   34.3710   47.3320 N.am  314  ILE314     -0.1979
      8  CA        45.3330   34.0390   47.1020 C.3   314  ILE314      0.1595
      9  C         45.0800   33.6350   45.6500 C.2   314  ILE314      0.2287
     10  O         44.5070   32.5710   45.3970 O.2   314  ILE314     -0.2864
     11  CB        44.3730   35.1750   47.5640 C.3   314  ILE314      0.0276
     12  CG1       44.2950   35.2100   49.0960 C.3   314  ILE314      0.0022
     13  CG2       42.9730   34.9920   46.9850 C.3   314  ILE314      0.0022
     14  CD1       43.5450   36.4050   49.6370 C.3   314  ILE314      0.0001
     15  N         46.7400   30.2770   44.8450 N.3   317  ASP317     -0.1239
     16  CA        46.0100   29.1740   45.4470 C.3   317  ASP317      0.1674
     17  C         44.6540   28.9070   44.7710 C.2   317  ASP317      0.2266
     18  O         44.3070   27.7580   44.5480 O.2   317  ASP317     -0.2867
     19  CB        45.8270   29.3710   46.9560 C.3   317  ASP317      0.1410
     20  CG        45.1390   28.1820   47.6090 C.2   317  ASP317      0.3668
     21  OD1       45.7270   27.0800   47.6300 O.co2 317  ASP317     -0.2456
     22  OD2       43.9960   28.3310   48.0760 O.co2 317  ASP317     -0.2456
     23  N         45.2520   27.2170   41.5030 N.3   320  LYS320     -0.1231
     24  CA        45.5920   25.8390   41.8570 C.3   320  LYS320      0.1693
     25  C         44.3310   25.0540   42.2630 C.2   320  LYS320      0.2591
     26  O         44.1590   23.9020   41.8710 O.2   320  LYS320     -0.2718
     27  CB        46.6370   25.8460   42.9740 C.3   320  LYS320      0.0285
     28  CG        47.0390   24.4980   43.5670 C.3   320  LYS320      0.0035
     29  CD        48.0670   24.7060   44.7040 C.3   320  LYS320      0.0206
     30  CE        48.1310   23.4990   45.6660 C.3   320  LYS320      0.1093
     31  NZ        48.9270   23.8030   46.9210 N.3   320  LYS320     -0.1314
     32  N         43.4450   25.6710   43.0380 N.am  321  ARG321     -0.1980
     33  CA        42.2400   24.9640   43.4700 C.3   321  ARG321      0.1597
     34  C         41.3390   24.6230   42.2910 C.2   321  ARG321      0.2287
     35  O         40.7270   23.5750   42.2890 O.2   321  ARG321     -0.2864
     36  CB        41.4770   25.7530   44.5330 C.3   321  ARG321      0.0334
     37  CG        42.0790   25.6210   45.9220 C.3   321  ARG321      0.0492
     38  CD        41.4040   26.5950   46.8820 C.3   321  ARG321      0.2205
     39  NE        41.8760   26.4460   48.2570 N.pl3 321  ARG321     -0.0865
     40  CZ        41.3850   25.5660   49.1220 C.cat 321  ARG321      0.5346
     41  NH1       41.8710   25.5140   50.3510 N.pl3 321  ARG321      0.1354
     42  NH2       40.3980   24.7460   48.7660 N.pl3 321  ARG321      0.1354
     43  N         42.6410   30.7950   61.4510 N.3   353  VAL353     -0.1231
     44  CA        43.6460   29.8340   60.9690 C.3   353  VAL353      0.1692
     45  C         44.2980   30.2340   59.6340 C.2   353  VAL353      0.2593
     46  O         45.0880   29.4640   59.0740 O.2   353  VAL353     -0.2718
     47  CB        43.1160   28.3620   60.9030 C.3   353  VAL353      0.0266
     48  CG1       42.7070   27.8700   62.2770 C.3   353  VAL353      0.0020
     49  CG2       41.9710   28.2230   59.9260 C.3   353  VAL353      0.0020
     50  N         43.9550   31.4220   59.1280 N.am  354  GLY354     -0.1942
     51  CA        44.6450   31.9850   57.9670 C.3   354  GLY354      0.2014
     52  C         43.9810   32.0500   56.5970 C.2   354  GLY354      0.2638
     53  O         44.6230   32.4780   55.6490 O.2   354  GLY354     -0.2714
     54  N         42.7180   31.6390   56.4720 N.am  355  PHE355     -0.1973
     55  CA        41.9660   31.8200   55.2150 C.3   355  PHE355      0.1639
     56  C         41.1370   33.1130   55.2400 C.2   355  PHE355      0.2290
     57  O         40.3720   33.3350   56.1810 O.2   355  PHE355     -0.2864
     58  CB        41.0160   30.6470   54.9540 C.3   355  PHE355      0.0560
     59  CG        41.6840   29.2920   54.9070 C.ar  355  PHE355     -0.0200
     60  CD1       41.7730   28.5020   56.0600 C.ar  355  PHE355     -0.0042
     61  CD2       42.1840   28.7870   53.7030 C.ar  355  PHE355     -0.0042
     62  CE1       42.3690   27.2410   56.0230 C.ar  355  PHE355     -0.0003
     63  CE2       42.7850   27.5310   53.6490 C.ar  355  PHE355     -0.0003
     64  CZ        42.8750   26.7470   54.8130 C.ar  355  PHE355     -0.0000
     65  N         37.4930   32.4750   50.7720 N.3   360  TYR360     -0.1241
     66  CA        37.4910   31.0800   51.1490 C.3   360  TYR360      0.1605
     67  C         36.1820   30.6210   51.7880 C.2   360  TYR360      0.2264
     68  O         36.0560   29.4730   52.2080 O.2   360  TYR360     -0.2867
     69  CB        38.7190   30.7690   52.0120 C.3   360  TYR360      0.0534
     70  CG        39.9840   30.7580   51.1890 C.ar  360  TYR360     -0.0201
     71  CD1       40.8400   31.8520   51.1720 C.ar  360  TYR360     -0.0009
     72  CD2       40.3060   29.6580   50.3950 C.ar  360  TYR360     -0.0009
     73  CE1       41.9940   31.8460   50.3910 C.ar  360  TYR360      0.0417
     74  CE2       41.4520   29.6460   49.6120 C.ar  360  TYR360      0.0417
     75  CZ        42.2910   30.7420   49.6190 C.ar  360  TYR360      0.1957
     76  OH        43.4250   30.7250   48.8440 O.3   360  TYR360     -0.2866
     77  N         40.1550   21.8840   54.4630 N.3   419  GLU419     -0.1245
     78  CA        41.1590   21.9210   55.5230 C.3   419  GLU419      0.1567
     79  C         40.5620   22.1270   56.9240 C.2   419  GLU419      0.2260
     80  O         41.1420   21.6900   57.9110 O.2   419  GLU419     -0.2867
     81  CB        42.2010   23.0100   55.2350 C.3   419  GLU419      0.0388
     82  CG        43.1470   22.7010   54.0860 C.3   419  GLU419      0.1160
     83  CD        42.6380   23.1510   52.7070 C.2   419  GLU419      0.3649
     84  OE1       43.4880   23.4330   51.8430 O.co2 419  GLU419     -0.2457
     85  OE2       41.4130   23.2190   52.4680 O.co2 419  GLU419     -0.2457
@<TRIPOS>BOND
     1    23    24    1
     2    24    25    1
     3    24    27    1
     4    26    25    2
     5    25    32   am
     6    35    34    2
     7    34    33    1
     8    27    28    1
     9    32    33    1
    10    33    36    1
    11    28    29    1
    12    36    37    1
    13    18    17    2
    14    29    30    1
    15    17    16    1
    16    15    16    1
    17    10     9    2
    18    16    19    1
    19     9     8    1
    20    30    31    1
    21    37    38    1
    22    38    39    1
    23     1     2    1
    24    19    20    1
    25     4     3    2
    26    13    11    1
    27     8     7    1
    28     8    11    1
    29     3     7   am
    30     3     2    1
    31     2     5    1
    32    11    12    1
    33    20    21   ar
    34    20    22   ar
    35    39    40    2
    36    42    40    1
    37    76    75    1
    38     5     6    1
    39    12    14    1
    40    40    41    1
    41    74    75   ar
    42    74    72   ar
    43    75    73   ar
    44    73    71   ar
    45    72    70   ar
    46    65    66    1
    47    66    67    1
    48    66    69    1
    49    71    70   ar
    50    70    69    1
    51    67    68    2
    52    84    83   ar
    53    85    83   ar
    54    83    82    1
    55    63    61   ar
    56    63    64   ar
    57    61    59   ar
    58    82    81    1
    59    77    78    1
    60    64    62   ar
    61    59    58    1
    62    59    60   ar
    63    58    55    1
    64    55    56    1
    65    55    54    1
    66    81    78    1
    67    56    57    2
    68    78    79    1
    69    53    52    2
    70    62    60   ar
    71    54    52   am
    72    52    51    1
    73    79    80    2
    74    51    50    1
    75    46    45    2
    76    50    45   am
    77    45    44    1
    78    49    47    1
    79    47    44    1
    80    47    48    1
    81    44    43    1
