@<TRIPOS>MOLECULE
tmp/4lroA01.pdb
 104 100 0 0 0
SMALL
GASTEIGER

@<TRIPOS>ATOM
      1  N        -21.7730  -19.5130  -14.0100 N.3    69  VAL69      -0.1231
      2  CA       -21.3940  -18.1860  -14.5400 C.3    69  VAL69       0.1692
      3  C        -19.9780  -17.7460  -14.1210 C.2    69  VAL69       0.2592
      4  O        -19.6900  -16.5480  -14.0730 O.2    69  VAL69      -0.2718
      5  CB       -22.4290  -17.0660  -14.2130 C.3    69  VAL69       0.0266
      6  CG1      -22.4860  -16.0590  -15.3560 C.3    69  VAL69       0.0020
      7  CG2      -23.8280  -17.6330  -13.9600 C.3    69  VAL69       0.0020
      8  N        -19.1020  -18.7140  -13.8410 N.am   70  TYR70      -0.1962
      9  CA       -17.7110  -18.4280  -13.4930 C.3    70  TYR70       0.1771
     10  C        -16.8600  -18.2670  -14.7470 C.2    70  TYR70       0.2619
     11  O        -16.9470  -19.0710  -15.6650 O.2    70  TYR70      -0.2715
     12  CB       -17.0900  -19.5260  -12.6280 C.3    70  TYR70       0.0574
     13  CG       -17.6890  -19.7220  -11.2520 C.ar   70  TYR70      -0.0198
     14  CD1      -17.3970  -20.8680  -10.5240 C.ar   70  TYR70      -0.0009
     15  CD2      -18.5500  -18.7880  -10.6810 C.ar   70  TYR70      -0.0009
     16  CE1      -17.9360  -21.0780   -9.2670 C.ar   70  TYR70       0.0417
     17  CE2      -19.0940  -18.9870   -9.4240 C.ar   70  TYR70       0.0417
     18  CZ       -18.7830  -20.1350   -8.7230 C.ar   70  TYR70       0.1957
     19  OH       -19.3140  -20.3530   -7.4720 O.3    70  TYR70      -0.2866
     20  N        -16.0230  -17.2370  -14.7750 N.am   71  ILE71      -0.1977
     21  CA       -15.1140  -17.0170  -15.8800 C.3    71  ILE71       0.1596
     22  C        -13.9630  -17.9870  -15.6830 C.2    71  ILE71       0.2287
     23  O        -13.3770  -18.0540  -14.6010 O.2    71  ILE71      -0.2864
     24  CB       -14.6300  -15.5520  -15.9400 C.3    71  ILE71       0.0276
     25  CG1      -15.7920  -14.6690  -16.4220 C.3    71  ILE71       0.0022
     26  CG2      -13.4260  -15.4250  -16.8630 C.3    71  ILE71       0.0022
     27  CD1      -15.5560  -13.1770  -16.3310 C.3    71  ILE71       0.0001
     28  N         -7.3650  -19.2130  -15.3480 N.3    83  PHE83      -0.1241
     29  CA        -7.1190  -19.1450  -13.9190 C.3    83  PHE83       0.1605
     30  C         -6.3850  -20.3880  -13.4560 C.2    83  PHE83       0.2264
     31  O         -6.4840  -21.4500  -14.0730 O.2    83  PHE83      -0.2867
     32  CB        -8.4250  -19.0060  -13.1380 C.3    83  PHE83       0.0534
     33  CG        -9.0240  -17.6310  -13.2050 C.ar   83  PHE83      -0.0203
     34  CD1       -8.3150  -16.5330  -12.7340 C.ar   83  PHE83      -0.0042
     35  CD2      -10.2950  -17.4320  -13.7300 C.ar   83  PHE83      -0.0042
     36  CE1       -8.8580  -15.2640  -12.7930 C.ar   83  PHE83      -0.0003
     37  CE2      -10.8470  -16.1620  -13.7860 C.ar   83  PHE83      -0.0003
     38  CZ       -10.1260  -15.0760  -13.3150 C.ar   83  PHE83      -0.0000
     39  N         -6.7360  -22.9050  -11.4040 N.3    85  GLU85      -0.1245
     40  CA        -7.7180  -23.6790  -10.6370 C.3    85  GLU85       0.1567
     41  C         -8.1650  -24.8770  -11.4970 C.2    85  GLU85       0.2260
     42  O         -8.1220  -24.8000  -12.7280 O.2    85  GLU85      -0.2867
     43  CB        -8.9010  -22.7890  -10.2150 C.3    85  GLU85       0.0388
     44  CG        -9.8040  -22.3660  -11.3690 C.3    85  GLU85       0.1160
     45  CD       -10.7360  -21.2010  -11.0570 C.2    85  GLU85       0.3649
     46  OE1      -10.5120  -20.4620  -10.0770 O.co2  85  GLU85      -0.2457
     47  OE2      -11.7080  -21.0140  -11.8230 O.co2  85  GLU85      -0.2457
     48  N         -9.6630  -17.7850   -9.6330 N.3   109  GLY109     -0.1210
     49  CA       -10.6420  -16.7750  -10.0160 C.3   109  GLY109      0.1956
     50  C        -11.4980  -16.2180   -8.9000 C.2   109  GLY109      0.2612
     51  O        -12.3830  -15.4040   -9.1510 O.2   109  GLY109     -0.2717
     52  N        -11.2620  -16.6250   -7.6630 N.am  110  ASN110     -0.1960
     53  CA       -12.1240  -16.1250   -6.6080 C.3   110  ASN110      0.1819
     54  C        -11.7200  -14.7280   -6.1610 C.2   110  ASN110      0.2621
     55  O        -10.5650  -14.2980   -6.3180 O.2   110  ASN110     -0.2715
     56  CB       -12.2050  -17.0780   -5.4300 C.3   110  ASN110      0.1195
     57  CG       -10.9160  -17.1700   -4.6780 C.2   110  ASN110      0.2630
     58  OD1      -10.7030  -16.4640   -3.6900 O.2   110  ASN110     -0.2716
     59  ND2      -10.0380  -18.0400   -5.1410 N.am  110  ASN110     -0.0877
     60  N        -12.6970  -14.0260   -5.6050 N.am  111  TYR111     -0.1974
     61  CA       -12.5530  -12.6190   -5.3000 C.3   111  TYR111      0.1639
     62  C        -11.3950  -12.3950   -4.3370 C.2   111  TYR111      0.2290
     63  O        -10.6130  -11.4700   -4.5290 O.2   111  TYR111     -0.2864
     64  CB       -13.8520  -12.0500   -4.7150 C.3   111  TYR111      0.0560
     65  CG       -14.9240  -11.6730   -5.7350 C.ar  111  TYR111     -0.0198
     66  CD1      -14.6020  -11.0080   -6.9150 C.ar  111  TYR111     -0.0009
     67  CD2      -16.2750  -11.9340   -5.4830 C.ar  111  TYR111     -0.0009
     68  CE1      -15.5840  -10.6470   -7.8270 C.ar  111  TYR111      0.0417
     69  CE2      -17.2610  -11.5800   -6.3930 C.ar  111  TYR111      0.0417
     70  CZ       -16.9120  -10.9350   -7.5600 C.ar  111  TYR111      0.1957
     71  OH       -17.8860  -10.5730   -8.4570 O.3   111  TYR111     -0.2866
     72  N        -15.6390   -9.4530  -14.2360 N.3   155  ILE155     -0.1245
     73  CA       -16.5420  -10.3900  -13.5670 C.3   155  ILE155      0.1561
     74  C        -17.8050   -9.6880  -13.0810 C.2   155  ILE155      0.2260
     75  O        -18.9200  -10.2110  -13.2280 O.2   155  ILE155     -0.2867
     76  CB       -15.8340  -11.0630  -12.3800 C.3   155  ILE155      0.0252
     77  CG1      -14.7880  -12.0490  -12.9110 C.3   155  ILE155      0.0019
     78  CG2      -16.8390  -11.7550  -11.4610 C.3   155  ILE155      0.0019
     79  CD1      -13.7780  -12.5020  -11.8790 C.3   155  ILE155      0.0001
     80  N        -20.7700  -11.3390  -15.4010 N.3   159  ALA159     -0.1231
     81  CA       -21.4120  -12.3760  -14.5760 C.3   159  ALA159      0.1694
     82  C        -22.3290  -11.8500  -13.4700 C.2   159  ALA159      0.2591
     83  O        -23.4710  -12.3040  -13.3460 O.2   159  ALA159     -0.2718
     84  CB       -20.3650  -13.2930  -13.9690 C.3   159  ALA159      0.0304
     85  N        -21.8400  -10.9120  -12.6620 N.am  160  GLU160     -0.1979
     86  CA       -22.6220  -10.4240  -11.5270 C.3   160  GLU160      0.1602
     87  C        -23.8620   -9.6580  -12.0040 C.2   160  GLU160      0.2287
     88  O        -24.9290   -9.7760  -11.3990 O.2   160  GLU160     -0.2864
     89  CB       -21.7720   -9.5770  -10.5590 C.3   160  GLU160      0.0415
     90  CG       -20.5580  -10.2930   -9.9640 C.3   160  GLU160      0.1163
     91  CD       -20.8950  -11.4210   -8.9940 C.2   160  GLU160      0.3649
     92  OE1      -22.0660  -11.8650   -8.9300 O.co2 160  GLU160     -0.2457
     93  OE2      -19.9730  -11.8670   -8.2760 O.co2 160  GLU160     -0.2457
     94  N        -26.4560  -12.1120  -13.0170 N.3   163  ARG163     -0.1245
     95  CA       -27.0780  -12.7540  -11.8560 C.3   163  ARG163      0.1563
     96  C        -28.0930  -11.8860  -11.1270 C.2   163  ARG163      0.2260
     97  O        -29.0480  -12.4120  -10.5470 O.2   163  ARG163     -0.2867
     98  CB       -26.0120  -13.1900  -10.8530 C.3   163  ARG163      0.0307
     99  CG       -25.1450  -14.3390  -11.3320 C.3   163  ARG163      0.0489
    100  CD       -23.9210  -14.4460  -10.4480 C.3   163  ARG163      0.2205
    101  NE       -23.0080  -15.5310  -10.8070 N.pl3 163  ARG163     -0.0865
    102  CZ       -21.7240  -15.5590  -10.4530 C.cat 163  ARG163      0.5346
    103  NH1      -21.2080  -14.5570   -9.7460 N.pl3 163  ARG163      0.1354
    104  NH2      -20.9460  -16.5750  -10.8020 N.pl3 163  ARG163      0.1354
@<TRIPOS>BOND
     1    26    24    1
     2    25    27    1
     3    25    24    1
     4    24    21    1
     5    21    22    1
     6    21    20    1
     7    22    23    2
     8    11    10    2
     9    80    81    1
    10     6     5    1
    11    28    29    1
    12    20    10   am
    13    10     9    1
    14    81    84    1
    15    81    82    1
    16     2     5    1
    17     2     3    1
    18     2     1    1
    19    72    73    1
    20     5     7    1
    21     3     4    2
    22     3     8   am
    23    31    30    2
    24    29    30    1
    25    29    32    1
    26     8     9    1
    27    37    35   ar
    28    37    38   ar
    29    35    33   ar
    30    73    74    1
    31    73    76    1
    32     9    12    1
    33    82    83    2
    34    82    85   am
    35    38    36   ar
    36    75    74    2
    37    33    32    1
    38    33    34   ar
    39    94    95    1
    40    77    76    1
    41    77    79    1
    42    36    34   ar
    43    42    41    2
    44    85    86    1
    45    12    13    1
    46    76    78    1
    47    87    86    1
    48    87    88    2
    49    95    96    1
    50    95    98    1
    51    47    45   ar
    52    86    89    1
    53    41    40    1
    54    39    40    1
    55    44    45    1
    56    44    43    1
    57    99    98    1
    58    99   100    1
    59    13    15   ar
    60    13    14   ar
    61    96    97    2
    62    45    46   ar
    63   101   102    2
    64   101   100    1
    65   104   102    1
    66    15    17   ar
    67    40    43    1
    68    89    90    1
    69    14    16   ar
    70   102   103    1
    71    49    48    1
    72    49    50    1
    73    90    91    1
    74    17    18   ar
    75    16    18   ar
    76    51    50    2
    77    91    92   ar
    78    91    93   ar
    79    50    52   am
    80    18    19    1
    81    71    70    1
    82    68    70   ar
    83    68    66   ar
    84    52    53    1
    85    70    69   ar
    86    66    65   ar
    87    53    54    1
    88    53    56    1
    89    69    67   ar
    90    55    54    2
    91    54    60   am
    92    65    67   ar
    93    65    64    1
    94    60    61    1
    95    56    57    1
    96    61    64    1
    97    61    62    1
    98    59    57   am
    99    57    58    2
   100    63    62    2
