@<TRIPOS>MOLECULE
tmp/4lrqB00.pdb
 113 112 0 0 0
SMALL
GASTEIGER

@<TRIPOS>ATOM
      1  N        -28.0470    1.4250   -4.1260 N.3     8  CYS8       -0.1221
      2  CA       -27.0700    1.7670   -3.0940 C.3     8  CYS8        0.1808
      3  C        -26.8660    0.5320   -2.2220 C.2     8  CYS8        0.2601
      4  O        -27.1790   -0.5780   -2.6550 O.2     8  CYS8       -0.2717
      5  CB       -27.4900    3.0110   -2.2990 C.3     8  CYS8        0.0970
      6  SG       -28.9820    2.8520   -1.3020 S.3     8  CYS8       -0.0800
      7  N        -26.3260    0.6910   -1.0190 N.am    9  MET9       -0.1965
      8  CA       -26.0340   -0.4820   -0.2060 C.3     9  MET9        0.1736
      9  C        -27.2930   -1.0600    0.4340 C.2     9  MET9        0.2617
     10  O        -27.6350   -2.2230    0.2060 O.2     9  MET9       -0.2715
     11  CB       -25.0000   -0.1720    0.8680 C.3     9  MET9        0.0427
     12  CG       -24.4040   -1.4350    1.4490 C.3     9  MET9        0.0599
     13  SD       -23.6130   -1.2030    3.0410 S.3     9  MET9       -0.1393
     14  CE       -22.4540   -2.5620    2.9450 C.3     9  MET9        0.0692
     15  N        -27.9780   -0.2410    1.2260 N.am   10  GLY10      -0.1940
     16  CA       -29.1180   -0.6950    2.0160 C.3    10  GLY10       0.2014
     17  C        -30.4850   -0.3510    1.4520 C.2    10  GLY10       0.2639
     18  O        -31.4970   -0.8400    1.9540 O.2    10  GLY10      -0.2714
     19  N        -30.5220    0.4870    0.4170 N.am   11  ASN11      -0.1958
     20  CA       -31.7820    0.9120   -0.2050 C.3    11  ASN11       0.1819
     21  C        -32.7460    1.5660    0.7900 C.2    11  ASN11       0.2621
     22  O        -33.9590    1.3640    0.7180 O.2    11  ASN11      -0.2715
     23  CB       -32.4490   -0.2830   -0.9110 C.3    11  ASN11       0.1195
     24  CG       -33.6110    0.1130   -1.8220 C.2    11  ASN11       0.2630
     25  OD1      -34.5820   -0.6350   -1.9400 O.2    11  ASN11      -0.2716
     26  ND2      -33.5180    1.2690   -2.4780 N.am   11  ASN11      -0.0877
     27  N        -32.2000    2.3460    1.7210 N.am   12  ILE12      -0.1963
     28  CA       -33.0290    3.1050    2.6630 C.3    12  ILE12       0.1727
     29  C        -32.7170    4.6020    2.6860 C.2    12  ILE12       0.2616
     30  O        -33.5770    5.3960    3.0640 O.2    12  ILE12      -0.2715
     31  CB       -32.9620    2.5410    4.1030 C.3    12  ILE12       0.0290
     32  CG1      -31.5190    2.4880    4.6170 C.3    12  ILE12       0.0022
     33  CG2      -33.6120    1.1640    4.1580 C.3    12  ILE12       0.0023
     34  CD1      -31.4210    2.5900    6.1240 C.3    12  ILE12       0.0001
     35  N        -31.5090    4.9930    2.2840 N.am   13  CYS13      -0.1954
     36  CA       -31.1490    6.4110    2.2610 C.3    13  CYS13       0.1843
     37  C        -30.9050    6.9490    0.8570 C.2    13  CYS13       0.2625
     38  O        -31.6100    7.8520    0.3990 O.2    13  CYS13      -0.2714
     39  CB       -29.9140    6.6730    3.1230 C.3    13  CYS13       0.0997
     40  SG       -30.1390    6.3310    4.8790 S.3    13  CYS13      -0.0797
     41  N        -29.9070    6.4050    0.1730 N.am   14  ARG14      -0.1977
     42  CA       -29.4520    7.0150   -1.0760 C.3    14  ARG14       0.1597
     43  C        -30.3330    6.6880   -2.2800 C.2    14  ARG14       0.2287
     44  O        -30.9120    7.5940   -2.8800 O.2    14  ARG14      -0.2864
     45  CB       -27.9850    6.6830   -1.3470 C.3    14  ARG14       0.0334
     46  CG       -27.0330    7.4580   -0.4480 C.3    14  ARG14       0.0492
     47  CD       -25.6220    6.9170   -0.5450 C.3    14  ARG14       0.2205
     48  NE       -25.5480    5.5540   -0.0280 N.pl3  14  ARG14      -0.0865
     49  CZ       -24.4780    4.7690   -0.1120 C.cat  14  ARG14       0.5346
     50  NH1      -23.3660    5.2020   -0.6990 N.pl3  14  ARG14       0.1354
     51  NH2      -24.5220    3.5390    0.3890 N.pl3  14  ARG14       0.1354
     52  N        -27.3860   -5.3260   -0.3110 N.3    41  ILE41      -0.1245
     53  CA       -27.6910   -6.2180    0.8100 C.3    41  ILE41       0.1561
     54  C        -29.1800   -6.1500    1.1410 C.2    41  ILE41       0.2260
     55  O        -29.8840   -5.2410    0.6990 O.2    41  ILE41      -0.2867
     56  CB       -26.8500   -5.8930    2.0700 C.3    41  ILE41       0.0252
     57  CG1      -27.2790   -4.5600    2.6990 C.3    41  ILE41       0.0019
     58  CG2      -25.3650   -5.8930    1.7280 C.3    41  ILE41       0.0019
     59  CD1      -26.5920   -4.2360    4.0090 C.3    41  ILE41       0.0001
     60  N        -30.3710   -6.3370    4.4540 N.3    43  TYR43      -0.1227
     61  CA       -30.4910   -6.0850    5.8920 C.3    43  TYR43       0.1736
     62  C        -31.7430   -5.2790    6.2520 C.2    43  TYR43       0.2595
     63  O        -32.3680   -5.5290    7.2850 O.2    43  TYR43      -0.2718
     64  CB       -29.2410   -5.3680    6.4110 C.3    43  TYR43       0.0548
     65  CG       -29.3290   -4.9660    7.8660 C.ar   43  TYR43      -0.0200
     66  CD1      -29.1700   -5.9060    8.8810 C.ar   43  TYR43      -0.0009
     67  CD2      -29.5780   -3.6480    8.2290 C.ar   43  TYR43      -0.0009
     68  CE1      -29.2540   -5.5420   10.2140 C.ar   43  TYR43       0.0417
     69  CE2      -29.6630   -3.2730    9.5600 C.ar   43  TYR43       0.0417
     70  CZ       -29.5000   -4.2240   10.5490 C.ar   43  TYR43       0.1957
     71  OH       -29.5830   -3.8580   11.8720 O.3    43  TYR43      -0.2866
     72  N        -32.1000   -4.3170    5.4010 N.am   44  HIS44      -0.1975
     73  CA       -33.2730   -3.4670    5.6280 C.3    44  HIS44       0.1656
     74  C        -34.5070   -3.9450    4.8580 C.2    44  HIS44       0.2291
     75  O        -35.5020   -3.2250    4.7820 O.2    44  HIS44      -0.2864
     76  CB       -32.9830   -2.0250    5.2050 C.3    44  HIS44       0.0771
     77  CG       -31.7710   -1.4250    5.8460 C.ar   44  HIS44       0.0820
     78  ND1      -31.7730   -0.9330    7.1340 N.ar   44  HIS44      -0.2267
     79  CD2      -30.5260   -1.2070    5.3620 C.ar   44  HIS44       0.1154
     80  CE1      -30.5770   -0.4510    7.4200 C.ar   44  HIS44       0.1986
     81  NE2      -29.8010   -0.6060    6.3610 N.ar   44  HIS44      -0.2212
     82  N        -22.7250    8.0250    1.9520 N.3   122  ASP122     -0.1239
     83  CA       -23.7320    7.4020    2.8010 C.3   122  ASP122      0.1674
     84  C        -24.0180    8.3130    4.0010 C.2   122  ASP122      0.2266
     85  O        -23.1240    8.5700    4.8060 O.2   122  ASP122     -0.2867
     86  CB       -23.2040    6.0440    3.2740 C.3   122  ASP122      0.1410
     87  CG       -24.2470    5.2140    3.9920 C.2   122  ASP122      0.3668
     88  OD1      -25.2300    5.7810    4.5080 O.co2 122  ASP122     -0.2456
     89  OD2      -24.0710    3.9790    4.0490 O.co2 122  ASP122     -0.2456
     90  N        -26.0920    7.7420    6.5040 N.3   124  TYR124     -0.1227
     91  CA       -26.7940    7.0380    7.5740 C.3   124  TYR124      0.1736
     92  C        -26.2680    7.3050    8.9880 C.2   124  TYR124      0.2595
     93  O        -27.0640    7.5030    9.9070 O.2   124  TYR124     -0.2718
     94  CB       -26.8270    5.5290    7.3120 C.3   124  TYR124      0.0548
     95  CG       -27.6170    4.7890    8.3620 C.ar  124  TYR124     -0.0200
     96  CD1      -28.9910    4.6300    8.2390 C.ar  124  TYR124     -0.0009
     97  CD2      -26.9950    4.2800    9.4970 C.ar  124  TYR124     -0.0009
     98  CE1      -29.7240    3.9690    9.2050 C.ar  124  TYR124      0.0417
     99  CE2      -27.7190    3.6170   10.4720 C.ar  124  TYR124      0.0417
    100  CZ       -29.0840    3.4640   10.3200 C.ar  124  TYR124      0.1957
    101  OH       -29.8170    2.8050   11.2790 O.3   124  TYR124     -0.2866
    102  N        -24.9490    7.3070    9.1630 N.am  125  TYR125     -0.1976
    103  CA       -24.3490    7.4840   10.4950 C.3   125  TYR125      0.1639
    104  C        -23.9500    8.9270   10.7940 C.2   125  TYR125      0.2290
    105  O        -23.2270    9.1860   11.7590 O.2   125  TYR125     -0.2864
    106  CB       -23.1300    6.5700   10.6630 C.3   125  TYR125      0.0560
    107  CG       -23.4800    5.1040   10.7200 C.ar  125  TYR125     -0.0198
    108  CD1      -24.0770    4.5540   11.8540 C.ar  125  TYR125     -0.0009
    109  CD2      -23.2190    4.2660    9.6430 C.ar  125  TYR125     -0.0009
    110  CE1      -24.4020    3.2090   11.9090 C.ar  125  TYR125      0.0417
    111  CE2      -23.5390    2.9210    9.6890 C.ar  125  TYR125      0.0417
    112  CZ       -24.1300    2.3980   10.8200 C.ar  125  TYR125      0.1957
    113  OH       -24.4420    1.0620   10.8460 O.3   125  TYR125     -0.2866
@<TRIPOS>BOND
     1     1     2    1
     2     2     5    1
     3     2     3    1
     4    44    43    2
     5     4     3    2
     6    26    24   am
     7     5     6    1
     8    43    42    1
     9     3     7   am
    10    25    24    2
    11    24    23    1
    12    45    42    1
    13    45    46    1
    14    42    41    1
    15     7     8    1
    16    23    20    1
    17    50    49    1
    18    47    46    1
    19    47    48    1
    20    52    53    1
    21     8     9    1
    22     8    11    1
    23    20    19    1
    24    20    21    1
    25    49    48    2
    26    49    51    1
    27    41    37   am
    28    10     9    2
    29    38    37    2
    30    19    17   am
    31     9    15   am
    32    55    54    2
    33    22    21    2
    34    21    27   am
    35    53    54    1
    36    53    56    1
    37    37    36    1
    38    11    12    1
    39    15    16    1
    40    12    13    1
    41    17    18    2
    42    17    16    1
    43    27    28    1
    44    58    56    1
    45    82    83    1
    46    56    57    1
    47    36    35    1
    48    36    39    1
    49    35    29   am
    50    28    29    1
    51    28    31    1
    52    29    30    2
    53    57    59    1
    54    83    86    1
    55    83    84    1
    56    14    13    1
    57    39    40    1
    58    86    87    1
    59    87    89   ar
    60    87    88   ar
    61    84    85    2
    62    31    33    1
    63    31    32    1
    64    60    61    1
    65    32    34    1
    66    75    74    2
    67    74    73    1
    68    76    73    1
    69    76    77    1
    70    79    77   ar
    71    79    81   ar
    72    72    73    1
    73    72    62   am
    74    77    78   ar
    75    61    62    1
    76    61    64    1
    77    62    63    2
    78    81    80   ar
    79    64    65    1
    80    90    91    1
    81    78    80   ar
    82    94    91    1
    83    94    95    1
    84    91    92    1
    85    65    67   ar
    86    65    66   ar
    87    67    69   ar
    88    96    95   ar
    89    96    98   ar
    90    95    97   ar
    91    66    68   ar
    92    92   102   am
    93    92    93    2
    94   102   103    1
    95    98   100   ar
    96    97    99   ar
    97    69    70   ar
    98   109   111   ar
    99   109   107   ar
   100   111   112   ar
   101    68    70   ar
   102   100    99   ar
   103   100   101    1
   104   103   106    1
   105   103   104    1
   106    70    71    1
   107   106   107    1
   108   107   108   ar
   109   104   105    2
   110   112   113    1
   111   112   110   ar
   112   108   110   ar
