@<TRIPOS>MOLECULE
tmp/4lrrA00.pdb
 182 179 0 0 0
SMALL
GASTEIGER

@<TRIPOS>ATOM
      1  N         -0.4550   22.3800  -30.9690 N.3    57  GLU57      -0.1245
      2  CA        -0.9810   21.1270  -31.4960 C.3    57  GLU57       0.1567
      3  C         -1.1690   20.0300  -30.4160 C.2    57  GLU57       0.2260
      4  O         -2.1920   19.3390  -30.4220 O.2    57  GLU57      -0.2867
      5  CB        -0.1290   20.6200  -32.6490 C.3    57  GLU57       0.0388
      6  CG        -0.6720   19.3350  -33.2100 C.3    57  GLU57       0.1160
      7  CD         0.3250   18.6240  -34.0750 C.2    57  GLU57       0.3649
      8  OE1       -0.0170   18.3530  -35.2450 O.co2  57  GLU57      -0.2457
      9  OE2        1.4420   18.3470  -33.5840 O.co2  57  GLU57      -0.2457
     10  N         -4.4930   18.2490  -29.3160 N.3    61  PHE61      -0.1241
     11  CA        -4.6340   16.7730  -29.2390 C.3    61  PHE61       0.1605
     12  C         -5.2870   16.3870  -27.8960 C.2    61  PHE61       0.2264
     13  O         -6.2400   15.6260  -27.8580 O.2    61  PHE61      -0.2867
     14  CB        -3.2790   16.0470  -29.3210 C.3    61  PHE61       0.0534
     15  CG        -2.6530   16.0050  -30.7010 C.ar   61  PHE61      -0.0203
     16  CD1       -3.4300   16.0350  -31.8540 C.ar   61  PHE61      -0.0042
     17  CD2       -1.2700   15.8760  -30.8380 C.ar   61  PHE61      -0.0042
     18  CE1       -2.8420   15.9610  -33.1270 C.ar   61  PHE61      -0.0003
     19  CE2       -0.6800   15.8090  -32.1070 C.ar   61  PHE61      -0.0003
     20  CZ        -1.4670   15.8390  -33.2490 C.ar   61  PHE61      -0.0000
     21  N         -0.7770   24.4090  -39.5140 N.3    78  ILE78      -0.1231
     22  CA        -0.1370   23.1610  -39.9830 C.3    78  ILE78       0.1692
     23  C         -1.1340   22.0820  -40.3910 C.2    78  ILE78       0.2592
     24  O         -0.7790   21.1550  -41.1040 O.2    78  ILE78      -0.2718
     25  CB         0.8530   22.5980  -38.9380 C.3    78  ILE78       0.0266
     26  CG1        0.1240   22.2700  -37.6300 C.3    78  ILE78       0.0019
     27  CG2        1.9850   23.6000  -38.6970 C.3    78  ILE78       0.0020
     28  CD1        1.0290   21.6180  -36.5990 C.3    78  ILE78       0.0001
     29  N         -2.3760   22.1950  -39.9500 N.am   79  TRP79      -0.1976
     30  CA        -3.3950   21.2100  -40.3390 C.3    79  TRP79       0.1640
     31  C         -4.3450   21.6700  -41.4550 C.2    79  TRP79       0.2290
     32  O         -5.1940   20.8960  -41.9250 O.2    79  TRP79      -0.2864
     33  CB        -4.1950   20.8030  -39.1050 C.3    79  TRP79       0.0576
     34  CG        -3.5150   19.7360  -38.3180 C.ar   79  TRP79       0.0006
     35  CD1       -2.7210   19.9030  -37.2250 C.ar   79  TRP79       0.0946
     36  CD2       -3.5520   18.3380  -38.5870 C.ar   79  TRP79       0.0152
     37  NE1       -2.2780   18.6880  -36.7800 N.ar   79  TRP79      -0.2442
     38  CE2       -2.7760   17.7060  -37.5970 C.ar   79  TRP79       0.0810
     39  CE3       -4.1880   17.5530  -39.5590 C.ar   79  TRP79       0.0012
     40  CZ2       -2.6120   16.3010  -37.5400 C.ar   79  TRP79       0.0191
     41  CZ3       -4.0320   16.1640  -39.5100 C.ar   79  TRP79       0.0001
     42  CH2       -3.2440   15.5520  -38.5000 C.ar   79  TRP79       0.0015
     43  N         -3.9730   22.2360  -44.6520 N.3    81  GLU81      -0.1231
     44  CA        -4.0010   21.4820  -45.9130 C.3    81  GLU81       0.1699
     45  C         -4.9120   20.2590  -45.8600 C.2    81  GLU81       0.2592
     46  O         -5.3890   19.8290  -46.9000 O.2    81  GLU81      -0.2718
     47  CB        -2.6060   21.1240  -46.4550 C.3    81  GLU81       0.0402
     48  CG        -1.7110   20.3960  -45.4780 C.3    81  GLU81       0.1161
     49  CD        -0.4250   19.8820  -46.1160 C.2    81  GLU81       0.3649
     50  OE1       -0.5130   19.1580  -47.1330 O.co2  81  GLU81      -0.2457
     51  OE2        0.6730   20.1900  -45.5880 O.co2  81  GLU81      -0.2457
     52  N         -5.1870   19.7250  -44.6620 N.am   82  TRP82      -0.1976
     53  CA        -6.0600   18.5240  -44.5760 C.3    82  TRP82       0.1640
     54  C         -7.5040   18.7640  -44.2510 C.2    82  TRP82       0.2290
     55  O         -8.3230   17.9110  -44.5030 O.2    82  TRP82      -0.2864
     56  CB        -5.4810   17.4440  -43.6670 C.3    82  TRP82       0.0576
     57  CG        -4.2810   16.8640  -44.3050 C.ar   82  TRP82       0.0006
     58  CD1       -4.2330   15.9930  -45.3810 C.ar   82  TRP82       0.0946
     59  CD2       -2.9440   17.1560  -43.9610 C.ar   82  TRP82       0.0152
     60  NE1       -2.9270   15.7240  -45.7000 N.ar   82  TRP82      -0.2442
     61  CE2       -2.1150   16.4250  -44.8440 C.ar   82  TRP82       0.0810
     62  CE3       -2.3600   17.9640  -42.9850 C.ar   82  TRP82       0.0012
     63  CZ2       -0.7300   16.4840  -44.7800 C.ar   82  TRP82       0.0191
     64  CZ3       -0.9780   18.0280  -42.9150 C.ar   82  TRP82       0.0001
     65  CH2       -0.1760   17.2980  -43.8190 C.ar   82  TRP82       0.0015
     66  N         -6.0860   12.0840  -34.5280 N.3    93  TYR93      -0.1241
     67  CA        -5.4640   11.9650  -33.2010 C.3    93  TYR93       0.1605
     68  C         -6.3040   12.2570  -31.9540 C.2    93  TYR93       0.2264
     69  O         -6.4890   11.3730  -31.1150 O.2    93  TYR93      -0.2867
     70  CB        -4.2170   12.8490  -33.1560 C.3    93  TYR93       0.0534
     71  CG        -3.1620   12.4240  -34.1490 C.ar   93  TYR93      -0.0201
     72  CD1       -2.4150   11.2380  -33.9560 C.ar   93  TYR93      -0.0009
     73  CD2       -2.9170   13.2040  -35.2800 C.ar   93  TYR93      -0.0009
     74  CE1       -1.4510   10.8590  -34.8670 C.ar   93  TYR93       0.0417
     75  CE2       -1.9570   12.8540  -36.2010 C.ar   93  TYR93       0.0417
     76  CZ        -1.2210   11.6850  -35.9930 C.ar   93  TYR93       0.1957
     77  OH        -0.2820   11.3550  -36.9170 O.3    93  TYR93      -0.2866
     78  N         -6.3690   11.9780  -42.7600 N.3   142  LEU142     -0.1245
     79  CA        -5.0320   11.4340  -42.8520 C.3   142  LEU142      0.1561
     80  C         -4.9380   10.2150  -41.9720 C.2   142  LEU142      0.2260
     81  O         -5.4530   10.2390  -40.8750 O.2   142  LEU142     -0.2867
     82  CB        -4.0660   12.4800  -42.2690 C.3   142  LEU142      0.0270
     83  CG        -2.6130   12.3310  -42.6400 C.3   142  LEU142      0.0019
     84  CD1       -2.4920   11.9310  -44.1080 C.3   142  LEU142      0.0001
     85  CD2       -1.9600   13.6760  -42.3750 C.3   142  LEU142      0.0001
     86  N         -3.0260    8.2310  -39.2390 N.3   144  PRO144     -0.2102
     87  CA        -2.0700    8.6190  -38.1970 C.3   144  PRO144      0.1504
     88  C         -0.6460    8.2280  -38.5670 C.2   144  PRO144      0.2576
     89  O         -0.4230    7.0890  -39.0100 O.2   144  PRO144     -0.2718
     90  CB        -2.5300    7.8220  -36.9730 C.3   144  PRO144      0.0282
     91  CG        -3.9520    7.4290  -37.2330 C.3   144  PRO144      0.0208
     92  CD        -4.0830    7.3260  -38.7310 C.3   144  PRO144      0.0893
     93  N          0.2890    9.1780  -38.4600 N.am  145  CYS145     -0.1957
     94  CA         1.6980    8.9210  -38.7280 C.3   145  CYS145      0.1843
     95  C          2.3500    8.3980  -37.4270 C.2   145  CYS145      0.2625
     96  O          3.0060    7.3500  -37.4260 O.2   145  CYS145     -0.2714
     97  CB         2.4340   10.1660  -39.2770 C.3   145  CYS145      0.0997
     98  SG         1.9230   10.7460  -40.9460 S.3   145  CYS145     -0.0797
     99  N          2.1860    9.1400  -36.3310 N.am  146  HIS146     -0.1973
    100  CA         2.5250    8.5940  -35.0370 C.3   146  HIS146      0.1656
    101  C          1.3390    7.7450  -34.5190 C.2   146  HIS146      0.2291
    102  O          0.3820    8.2380  -33.9590 O.2   146  HIS146     -0.2864
    103  CB         3.0260    9.6810  -34.0830 C.3   146  HIS146      0.0771
    104  CG         2.3030   10.9880  -34.1630 C.ar  146  HIS146      0.0820
    105  ND1        1.5450   11.4820  -33.1120 N.ar  146  HIS146     -0.2267
    106  CD2        2.2660   11.9360  -35.1300 C.ar  146  HIS146      0.1154
    107  CE1        1.0470   12.6610  -33.4450 C.ar  146  HIS146      0.1986
    108  NE2        1.4560   12.9540  -34.6690 N.ar  146  HIS146     -0.2212
    109  N          6.1870    5.2030  -35.2640 N.3   164  GLN164     -0.1245
    110  CA         5.8500    6.1310  -36.3300 C.3   164  GLN164      0.1566
    111  C          5.9540    5.3940  -37.6440 C.2   164  GLN164      0.2260
    112  O          7.0460    5.0540  -38.0810 O.2   164  GLN164     -0.2867
    113  CB         6.8160    7.3110  -36.3170 C.3   164  GLN164      0.0367
    114  CG         6.5540    8.3800  -37.3640 C.3   164  GLN164      0.0905
    115  CD         7.1700    9.7360  -36.9980 C.2   164  GLN164      0.2608
    116  OE1        7.4180   10.0370  -35.8180 O.2   164  GLN164     -0.2717
    117  NE2        7.4480   10.5580  -38.0160 N.am  164  GLN164     -0.0878
    118  N          5.4760    6.2790  -40.6820 N.3   166  SER166     -0.1202
    119  CA         6.0100    6.9660  -41.8220 C.3   166  SER166      0.2020
    120  C          6.6600    8.2330  -41.3420 C.2   166  SER166      0.2619
    121  O          6.0680    8.9700  -40.5560 O.2   166  SER166     -0.2717
    122  CB         4.8970    7.2900  -42.8140 C.3   166  SER166      0.2103
    123  OG         5.4730    7.8670  -43.9590 O.3   166  SER166     -0.2182
    124  N          7.8980    8.4660  -41.7870 N.am  167  CYS167     -0.1955
    125  CA         8.6380    9.6260  -41.2980 C.3   167  CYS167      0.1843
    126  C          9.4090   10.3790  -42.3800 C.2   167  CYS167      0.2625
    127  O         10.3430    9.8500  -43.0040 O.2   167  CYS167     -0.2714
    128  CB         9.5910    9.2100  -40.1790 C.3   167  CYS167      0.0997
    129  SG        10.6040   10.5740  -39.5550 S.3   167  CYS167     -0.0797
    130  N          9.0190   11.6240  -42.5840 N.am  168  ASP168     -0.1971
    131  CA         9.8120   12.5370  -43.3660 C.3   168  ASP168      0.1709
    132  C         10.8500   13.0040  -42.3700 C.2   168  ASP168      0.2293
    133  O         10.5350   13.7670  -41.4600 O.2   168  ASP168     -0.2864
    134  CB         8.9200   13.7000  -43.8080 C.3   168  ASP168      0.1436
    135  CG         9.6600   14.7770  -44.5950 C.2   168  ASP168      0.3671
    136  OD1       10.8910   14.9390  -44.4790 O.co2 168  ASP168     -0.2456
    137  OD2        8.9680   15.5010  -45.3350 O.co2 168  ASP168     -0.2456
    138  N         11.5860   17.3480  -42.6770 N.3   171  LEU171     -0.1231
    139  CA        10.4830   18.2290  -42.1980 C.3   171  LEU171      0.1693
    140  C          9.7360   17.7600  -40.9430 C.2   171  LEU171      0.2593
    141  O          9.4320   18.5560  -40.0860 O.2   171  LEU171     -0.2718
    142  CB         9.4470   18.4520  -43.3170 C.3   171  LEU171      0.0284
    143  CG         9.2340   19.8010  -44.0240 C.3   171  LEU171      0.0019
    144  CD1       10.4940   20.6630  -44.1360 C.3   171  LEU171      0.0001
    145  CD2        8.6250   19.5720  -45.4080 C.3   171  LEU171      0.0001
    146  N          9.3930   16.4770  -40.8450 N.am  172  GLY172     -0.1942
    147  CA         8.5000   16.0260  -39.7790 C.3   172  GLY172      0.2014
    148  C          9.1810   15.6020  -38.4950 C.2   172  GLY172      0.2638
    149  O          8.7250   15.9640  -37.3850 O.2   172  GLY172     -0.2714
    150  N         10.2890   14.8660  -38.6230 N.am  173  LEU173     -0.1977
    151  CA        10.9020   14.2110  -37.4590 C.3   173  LEU173      0.1596
    152  C         11.2680   15.1290  -36.2640 C.2   173  LEU173      0.2287
    153  O         10.9180   14.8120  -35.1230 O.2   173  LEU173     -0.2864
    154  CB        12.0920   13.3210  -37.8780 C.3   173  LEU173      0.0297
    155  CG        12.6560   12.3960  -36.7890 C.3   173  LEU173      0.0022
    156  CD1       11.5550   11.7110  -35.9850 C.3   173  LEU173      0.0001
    157  CD2       13.5740   11.3580  -37.4230 C.3   173  LEU173      0.0001
    158  N          9.9400   17.9030  -35.3790 N.3   175  PHE175     -0.1227
    159  CA         8.6690   18.2740  -34.8280 C.3   175  PHE175      0.1736
    160  C          8.1270   17.1460  -33.9410 C.2   175  PHE175      0.2595
    161  O          7.8050   17.3960  -32.7800 O.2   175  PHE175     -0.2718
    162  CB         7.7110   18.5220  -35.9800 C.3   175  PHE175      0.0547
    163  CG         6.4700   19.2360  -35.5910 C.ar  175  PHE175     -0.0202
    164  CD1        5.3940   18.5470  -35.0210 C.ar  175  PHE175     -0.0042
    165  CD2        6.3410   20.6160  -35.8380 C.ar  175  PHE175     -0.0042
    166  CE1        4.2270   19.2190  -34.6880 C.ar  175  PHE175     -0.0003
    167  CE2        5.1770   21.2850  -35.5060 C.ar  175  PHE175     -0.0003
    168  CZ         4.1290   20.5880  -34.9150 C.ar  175  PHE175     -0.0000
    169  N          8.0400   15.9280  -34.4900 N.am  176  ASN176     -0.1974
    170  CA         7.4700   14.7950  -33.7820 C.3   176  ASN176      0.1688
    171  C          8.2400   14.4810  -32.5080 C.2   176  ASN176      0.2292
    172  O          7.6210   14.1870  -31.4980 O.2   176  ASN176     -0.2864
    173  CB         7.4060   13.5210  -34.6460 C.3   176  ASN176      0.1181
    174  CG         6.5800   13.6970  -35.9260 C.2   176  ASN176      0.2629
    175  OD1        5.3620   13.9670  -35.8950 O.2   176  ASN176     -0.2716
    176  ND2        7.2410   13.5100  -37.0720 N.am  176  ASN176     -0.0877
    177  N          7.5410   17.0380  -29.8600 N.3   179  SER179     -0.1217
    178  CA         6.1470   16.8630  -29.4390 C.3   179  SER179      0.1889
    179  C          5.9610   15.7780  -28.3550 C.2   179  SER179      0.2288
    180  O          5.3560   16.0200  -27.3050 O.2   179  SER179     -0.2866
    181  CB         5.3030   16.5120  -30.6750 C.3   179  SER179      0.2089
    182  OG         3.9350   16.5450  -30.3410 O.3   179  SER179     -0.2183
@<TRIPOS>BOND
     1    50    49   ar
     2    46    45    2
     3    47    44    1
     4    47    48    1
     5    49    51   ar
     6    49    48    1
     7    44    45    1
     8    44    43    1
     9    45    52   am
    10    60    58   ar
    11    60    61   ar
    12   145   143    1
    13    58    57   ar
    14   137   135   ar
    15    61    63   ar
    16    61    59   ar
    17    63    65   ar
    18    52    53    1
    19   135   136   ar
    20   135   134    1
    21    53    54    1
    22    53    56    1
    23    55    54    2
    24    57    59   ar
    25    57    56    1
    26   144   143    1
    27    84    83    1
    28   143   142    1
    29    59    62   ar
    30   123   122    1
    31    65    64   ar
    32   134   131    1
    33   131   130    1
    34   131   132    1
    35   142   139    1
    36   127   126    2
    37    62    64   ar
    38    79    78    1
    39    79    82    1
    40    79    80    1
    41   122   119    1
    42   138   139    1
    43    83    85    1
    44    83    82    1
    45   130   126   am
    46   126   125    1
    47   132   133    2
    48   139   140    1
    49    80    81    2
    50    32    31    2
    51   119   120    1
    52   119   118    1
    53   124   120   am
    54   124   125    1
    55    31    30    1
    56   120   121    2
    57   125   128    1
    58    24    23    2
    59    98    97    1
    60   140   146   am
    61   140   141    2
    62   146   147    1
    63    23    22    1
    64    23    29   am
    65    30    29    1
    66    30    33    1
    67   128   129    1
    68    22    21    1
    69    22    25    1
    70   147   148    1
    71    39    41   ar
    72    39    36   ar
    73    41    42   ar
    74    97    94    1
    75    86    92    1
    76    86    87    1
    77    33    34    1
    78    89    88    2
    79    25    27    1
    80    25    26    1
    81    92    91    1
    82    94    93    1
    83    94    95    1
    84   150   148   am
    85   150   151    1
    86    36    34   ar
    87    36    38   ar
    88    88    93   am
    89    88    87    1
    90    42    40   ar
    91   148   149    2
    92    34    35   ar
    93    87    90    1
    94   112   111    2
    95   117   115   am
    96   154   151    1
    97   154   155    1
    98   111   110    1
    99    26    28    1
   100    38    40   ar
   101    38    37   ar
   102   151   152    1
   103    95    96    2
   104    95    99   am
   105   157   155    1
   106   114   115    1
   107   114   113    1
   108    91    90    1
   109    35    37   ar
   110   176   174   am
   111   115   116    2
   112    77    76    1
   113   155   156    1
   114    99   100    1
   115   110   113    1
   116   110   109    1
   117   152   153    2
   118    75    76   ar
   119    75    73   ar
   120    76    74   ar
   121   162   163    1
   122   162   159    1
   123   174   175    2
   124   174   173    1
   125   165   163   ar
   126   165   167   ar
   127   163   164   ar
   128   167   168   ar
   129   158   159    1
   130    73    71   ar
   131     8     7   ar
   132   106   108   ar
   133   106   104   ar
   134   100   101    1
   135   100   103    1
   136   164   166   ar
   137   168   166   ar
   138    74    72   ar
   139   159   160    1
   140   108   107   ar
   141   173   170    1
   142    66    67    1
   143   101   102    2
   144   169   160   am
   145   169   170    1
   146   104   103    1
   147   104   105   ar
   148    71    72   ar
   149    71    70    1
   150     7     9   ar
   151     7     6    1
   152   160   161    2
   153   170   171    1
   154   107   105   ar
   155    20    18   ar
   156    20    19   ar
   157     6     5    1
   158    67    70    1
   159    67    68    1
   160    18    16   ar
   161     5     2    1
   162   171   172    2
   163    19    17   ar
   164    68    69    2
   165    16    15   ar
   166     2     1    1
   167     2     3    1
   168    17    15   ar
   169    15    14    1
   170   181   182    1
   171   181   178    1
   172     4     3    2
   173   177   178    1
   174   178   179    1
   175    14    11    1
   176    10    11    1
   177    11    12    1
   178   179   180    2
   179    12    13    2
