@<TRIPOS>MOLECULE
tmp/4ls1A02.pdb
 203 195 0 0 0
SMALL
GASTEIGER

@<TRIPOS>ATOM
      1  N         17.8920  -16.8460   27.8840 N.3     7  TYR7       -0.1241
      2  CA        19.1530  -17.4070   27.4240 C.3     7  TYR7        0.1605
      3  C         20.3270  -16.6160   27.9920 C.2     7  TYR7        0.2264
      4  O         21.2830  -17.1920   28.5150 O.2     7  TYR7       -0.2867
      5  CB        19.2040  -17.4250   25.8910 C.3     7  TYR7        0.0534
      6  CG        18.5880  -18.6690   25.2740 C.ar    7  TYR7       -0.0201
      7  CD1       17.2040  -18.8600   25.2710 C.ar    7  TYR7       -0.0009
      8  CD2       19.3910  -19.6530   24.6930 C.ar    7  TYR7       -0.0009
      9  CE1       16.6380  -19.9930   24.7070 C.ar    7  TYR7        0.0417
     10  CE2       18.8320  -20.7910   24.1250 C.ar    7  TYR7        0.0417
     11  CZ        17.4560  -20.9550   24.1370 C.ar    7  TYR7        0.1957
     12  OH        16.8960  -22.0820   23.5800 O.3     7  TYR7       -0.2866
     13  N         20.1030  -19.4360   31.0090 N.3    11  LEU11      -0.1231
     14  CA        20.5100  -20.6490   30.3020 C.3    11  LEU11       0.1693
     15  C         22.0150  -20.6930   30.0250 C.2    11  LEU11       0.2591
     16  O         22.7070  -21.6040   30.4930 O.2    11  LEU11      -0.2718
     17  CB        19.7000  -20.8190   29.0130 C.3    11  LEU11       0.0284
     18  CG        19.9260  -22.0630   28.1510 C.3    11  LEU11       0.0019
     19  CD1       20.1580  -23.2960   29.0030 C.3    11  LEU11       0.0001
     20  CD2       18.7270  -22.2810   27.2480 C.3    11  LEU11       0.0001
     21  N         22.5150  -19.7160   29.2690 N.am   12  MET12      -0.1979
     22  CA        23.9480  -19.6490   28.9590 C.3    12  MET12       0.1605
     23  C         24.8740  -19.6390   30.1900 C.2    12  MET12       0.2287
     24  O         25.8410  -20.4060   30.2200 O.2    12  MET12      -0.2864
     25  CB        24.2730  -18.4880   28.0060 C.3    12  MET12       0.0413
     26  CG        23.5130  -18.5420   26.6860 C.3    12  MET12       0.0598
     27  SD        23.5760  -20.1710   25.8870 S.3    12  MET12      -0.1393
     28  CE        25.3120  -20.2720   25.4210 C.3    12  MET12       0.0692
     29  N         24.9210  -23.2970   31.5430 N.3    15  LEU15      -0.1231
     30  CA        25.7050  -24.2210   30.7240 C.3    15  LEU15       0.1693
     31  C         27.1960  -23.9340   30.8620 C.2    15  LEU15       0.2591
     32  O         28.0090  -24.8590   30.9080 O.2    15  LEU15      -0.2718
     33  CB        25.2840  -24.1480   29.2570 C.3    15  LEU15       0.0284
     34  CG        23.8410  -24.5800   28.9730 C.3    15  LEU15       0.0019
     35  CD1       23.5040  -24.4690   27.4880 C.3    15  LEU15       0.0001
     36  CD2       23.5780  -25.9950   29.4870 C.3    15  LEU15       0.0001
     37  N         27.5480  -22.6510   30.9470 N.am   16  GLN16      -0.1979
     38  CA        28.9400  -22.2480   31.1340 C.3    16  GLN16       0.1601
     39  C         29.4860  -22.6960   32.4890 C.2    16  GLN16       0.2287
     40  O         30.6550  -23.0570   32.5990 O.2    16  GLN16      -0.2864
     41  CB        29.1050  -20.7390   30.9680 C.3    16  GLN16       0.0394
     42  CG        29.0190  -20.2700   29.5130 C.3    16  GLN16       0.0908
     43  CD        29.5340  -18.8510   29.3260 C.2    16  GLN16       0.2608
     44  OE1       29.5370  -18.0470   30.2630 O.2    16  GLN16      -0.2717
     45  NE2       29.9820  -18.5410   28.1120 N.am   16  GLN16      -0.0878
     46  N         34.7260  -24.6950   27.8880 N.3    21  PRO21      -0.2116
     47  CA        34.3360  -24.1260   26.5880 C.3    21  PRO21       0.1372
     48  C         34.3560  -25.1340   25.4280 C.2    21  PRO21       0.2244
     49  O         33.4070  -25.1320   24.6540 O.2    21  PRO21      -0.2868
     50  CB        35.3720  -23.0150   26.3540 C.3    21  PRO21       0.0268
     51  CG        35.8700  -22.6540   27.7080 C.3    21  PRO21       0.0207
     52  CD        35.8340  -23.9400   28.5100 C.3    21  PRO21       0.0892
     53  N         31.3370  -27.3990   25.7590 N.3    24  ALA24      -0.1231
     54  CA        30.1350  -26.6400   25.4690 C.3    24  ALA24       0.1694
     55  C         29.9960  -26.4450   23.9520 C.2    24  ALA24       0.2592
     56  O         28.8940  -26.5460   23.4040 O.2    24  ALA24      -0.2718
     57  CB        30.1620  -25.2940   26.2050 C.3    24  ALA24       0.0304
     58  N         31.1140  -26.1750   23.2800 N.am   25  HIS25      -0.1976
     59  CA        31.1230  -25.9930   21.8230 C.3    25  HIS25       0.1656
     60  C         30.6870  -27.2610   21.0740 C.2    25  HIS25       0.2291
     61  O         29.8530  -27.2020   20.1540 O.2    25  HIS25      -0.2864
     62  CB        32.5290  -25.6000   21.3490 C.3    25  HIS25       0.0771
     63  CG        32.6330  -25.3910   19.8670 C.ar   25  HIS25       0.0820
     64  ND1       33.8410  -25.3740   19.2010 N.ar   25  HIS25      -0.2267
     65  CD2       31.6840  -25.1670   18.9260 C.ar   25  HIS25       0.1154
     66  CE1       33.6290  -25.1670   17.9110 C.ar   25  HIS25       0.1986
     67  NE2       32.3270  -25.0430   17.7180 N.ar   25  HIS25      -0.2212
     68  N         27.0210  -27.7630   21.6210 N.3    28  ALA28      -0.1245
     69  CA        26.2960  -26.7890   20.8080 C.3    28  ALA28       0.1562
     70  C         26.2540  -27.2030   19.3370 C.2    28  ALA28       0.2260
     71  O         25.2170  -27.0650   18.6670 O.2    28  ALA28      -0.2867
     72  CB        26.9250  -25.4100   20.9460 C.3    28  ALA28       0.0290
     73  N         23.7150  -30.0960   19.1560 N.3    31  PHE31      -0.1227
     74  CA        22.3400  -29.6200   19.2580 C.3    31  PHE31       0.1736
     75  C         21.8930  -28.9140   17.9870 C.2    31  PHE31       0.2596
     76  O         20.7530  -29.0670   17.5460 O.2    31  PHE31      -0.2718
     77  CB        22.1790  -28.6740   20.4510 C.3    31  PHE31       0.0547
     78  CG        21.6590  -29.3480   21.6870 C.ar   31  PHE31      -0.0202
     79  CD1       22.4300  -30.2870   22.3580 C.ar   31  PHE31      -0.0042
     80  CD2       20.3940  -29.0480   22.1740 C.ar   31  PHE31      -0.0042
     81  CE1       21.9490  -30.9150   23.4980 C.ar   31  PHE31      -0.0003
     82  CE2       19.9040  -29.6710   23.3090 C.ar   31  PHE31      -0.0003
     83  CZ        20.6860  -30.6050   23.9740 C.ar   31  PHE31      -0.0000
     84  N         22.7980  -28.1330   17.4080 N.am   32  THR32      -0.1953
     85  CA        22.4610  -27.3360   16.2490 C.3    32  THR32       0.1897
     86  C         22.1950  -28.2640   15.0720 C.2    32  THR32       0.2313
     87  O         21.2240  -28.0860   14.3480 O.2    32  THR32      -0.2863
     88  CB        23.5810  -26.3340   15.9150 C.3    32  THR32       0.1794
     89  OG1       23.7850  -25.4560   17.0330 O.3    32  THR32      -0.2208
     90  CG2       23.2250  -25.5080   14.6870 C.3    32  THR32       0.0378
     91  N         17.7130  -28.8390   17.4460 N.3    36  LEU36      -0.1231
     92  CA        17.2420  -28.5400   18.7960 C.3    36  LEU36       0.1693
     93  C         17.5450  -27.0850   19.1430 C.2    36  LEU36       0.2592
     94  O         18.4940  -26.7830   19.8760 O.2    36  LEU36      -0.2718
     95  CB        17.8960  -29.4880   19.8020 C.3    36  LEU36       0.0284
     96  CG        17.8160  -30.9670   19.4030 C.3    36  LEU36       0.0019
     97  CD1       18.4590  -31.8510   20.4570 C.3    36  LEU36       0.0001
     98  CD2       16.3730  -31.3780   19.1620 C.3    36  LEU36       0.0001
     99  N         16.7310  -26.1860   18.6030 N.am   37  LEU37      -0.1966
    100  CA        16.9860  -24.7560   18.6950 C.3    37  LEU37       0.1713
    101  C         15.6780  -24.0430   18.9830 C.2    37  LEU37       0.2458
    102  O         14.6140  -24.5070   18.5630 O.2    37  LEU37      -0.2730
    103  CB        17.5310  -24.2350   17.3640 C.3    37  LEU37       0.0310
    104  CG        18.7560  -24.9130   16.7620 C.3    37  LEU37       0.0022
    105  CD1       18.8620  -24.6300   15.2760 C.3    37  LEU37       0.0001
    106  CD2       19.9620  -24.3940   17.4800 C.3    37  LEU37       0.0001
    107  N         15.7500  -22.8960   19.6800 N.am   38  PRO38      -0.2727
    108  CA        14.5400  -22.1160   19.9470 C.3    38  PRO38       0.1402
    109  C         13.9200  -21.5630   18.6690 C.2    38  PRO38       0.2269
    110  O         14.4680  -21.7360   17.5740 O.2    38  PRO38      -0.2865
    111  CB        15.0530  -20.9650   20.8200 C.3    38  PRO38       0.0296
    112  CG        16.5030  -20.8460   20.4840 C.3    38  PRO38       0.0237
    113  CD        16.9510  -22.2600   20.2510 C.3    38  PRO38       0.0939
    114  N         33.0300  -22.1280   14.1640 N.3    67  PHE67      -0.1241
    115  CA        31.9820  -22.7440   14.9620 C.3    67  PHE67       0.1605
    116  C         31.6390  -24.1220   14.4040 C.2    67  PHE67       0.2264
    117  O         31.6550  -25.1240   15.1300 O.2    67  PHE67      -0.2867
    118  CB        30.7300  -21.8710   15.0060 C.3    67  PHE67       0.0534
    119  CG        29.6040  -22.5020   15.7620 C.ar   67  PHE67      -0.0203
    120  CD1       29.6380  -22.5620   17.1520 C.ar   67  PHE67      -0.0042
    121  CD2       28.5340  -23.0800   15.0900 C.ar   67  PHE67      -0.0042
    122  CE1       28.6130  -23.1640   17.8640 C.ar   67  PHE67      -0.0003
    123  CE2       27.4960  -23.6890   15.7980 C.ar   67  PHE67      -0.0003
    124  CZ        27.5400  -23.7250   17.1880 C.ar   67  PHE67      -0.0000
    125  N         18.7720  -21.1210   12.6540 N.3    80  MET80      -0.1245
    126  CA        19.0490  -20.1630   13.7180 C.3    80  MET80       0.1570
    127  C         18.8240  -18.7210   13.2440 C.2    80  MET80       0.2261
    128  O         18.7160  -17.8060   14.0630 O.2    80  MET80      -0.2867
    129  CB        20.4920  -20.3500   14.2030 C.3    80  MET80       0.0387
    130  CG        20.6860  -20.1960   15.6860 C.3    80  MET80       0.0595
    131  SD        22.3990  -20.5040   16.1580 S.3    80  MET80      -0.1393
    132  CE        22.4350  -22.2840   16.2080 C.3    80  MET80       0.0692
    133  N         40.8490  -23.6400   24.5600 N.3   103  VAL103     -0.1245
    134  CA        39.8240  -22.6040   24.4170 C.3   103  VAL103      0.1561
    135  C         39.5270  -22.0610   25.8110 C.2   103  VAL103      0.2260
    136  O         39.3860  -22.8340   26.7570 O.2   103  VAL103     -0.2867
    137  CB        38.5000  -23.1710   23.8550 C.3   103  VAL103      0.0252
    138  CG1       37.5990  -22.0360   23.4230 C.3   103  VAL103      0.0019
    139  CG2       38.7540  -24.0930   22.6830 C.3   103  VAL103      0.0019
    140  N         37.4590  -18.9580   28.2930 N.3   105  ARG105     -0.1245
    141  CA        36.4770  -17.8830   28.4290 C.3   105  ARG105      0.1563
    142  C         37.0320  -16.7470   29.2530 C.2   105  ARG105      0.2260
    143  O         37.7480  -16.9760   30.2410 O.2   105  ARG105     -0.2867
    144  CB        35.2340  -18.3670   29.1540 C.3   105  ARG105      0.0307
    145  CG        34.3790  -19.2890   28.3840 C.3   105  ARG105      0.0489
    146  CD        33.1990  -19.6770   29.2400 C.3   105  ARG105      0.2205
    147  NE        32.4590  -20.7700   28.6410 N.pl3 105  ARG105     -0.0865
    148  CZ        32.2930  -21.9580   29.2100 C.cat 105  ARG105      0.5346
    149  NH1       32.8090  -22.2040   30.4060 N.pl3 105  ARG105      0.1354
    150  NH2       31.5960  -22.8980   28.5860 N.pl3 105  ARG105      0.1354
    151  N         36.7790  -14.4470   24.2250 N.3   112  VAL112     -0.1245
    152  CA        37.2670  -15.8220   24.2410 C.3   112  VAL112      0.1561
    153  C         38.7030  -15.7990   23.7340 C.2   112  VAL112      0.2260
    154  O         39.0550  -14.9440   22.9140 O.2   112  VAL112     -0.2867
    155  CB        36.3650  -16.7540   23.3700 C.3   112  VAL112      0.0252
    156  CG1       37.0550  -18.0960   23.0550 C.3   112  VAL112      0.0019
    157  CG2       35.0060  -16.9940   24.0560 C.3   112  VAL112      0.0019
    158  N         42.9260  -23.5610   18.9730 N.3   116  TYR116     -0.1241
    159  CA        42.5740  -24.8750   18.4340 C.3   116  TYR116      0.1605
    160  C         43.6750  -25.4390   17.5440 C.2   116  TYR116      0.2264
    161  O         44.0080  -26.6200   17.6340 O.2   116  TYR116     -0.2867
    162  CB        41.2690  -24.8160   17.6430 C.3   116  TYR116      0.0534
    163  CG        40.0380  -25.1660   18.4480 C.ar  116  TYR116     -0.0201
    164  CD1       39.8610  -26.4470   18.9740 C.ar  116  TYR116     -0.0009
    165  CD2       39.0370  -24.2270   18.6600 C.ar  116  TYR116     -0.0009
    166  CE1       38.7070  -26.7750   19.7110 C.ar  116  TYR116      0.0417
    167  CE2       37.8930  -24.5430   19.3730 C.ar  116  TYR116      0.0417
    168  CZ        37.7380  -25.8140   19.9000 C.ar  116  TYR116      0.1957
    169  OH        36.6030  -26.1140   20.6130 O.3   116  TYR116     -0.2866
    170  N         30.5670  -14.7570   16.0910 N.3   325  TYR325     -0.1241
    171  CA        30.7770  -16.0850   16.6450 C.3   325  TYR325      0.1605
    172  C         30.7300  -15.9390   18.1660 C.2   325  TYR325      0.2264
    173  O         29.8250  -16.4680   18.8240 O.2   325  TYR325     -0.2867
    174  CB        32.1090  -16.6640   16.1260 C.3   325  TYR325      0.0534
    175  CG        32.5110  -18.0470   16.6240 C.ar  325  TYR325     -0.0201
    176  CD1       31.8100  -18.6990   17.6410 C.ar  325  TYR325     -0.0009
    177  CD2       33.6010  -18.7040   16.0640 C.ar  325  TYR325     -0.0009
    178  CE1       32.2010  -19.9440   18.0950 C.ar  325  TYR325      0.0417
    179  CE2       33.9950  -19.9560   16.5060 C.ar  325  TYR325      0.0417
    180  CZ        33.2860  -20.5660   17.5200 C.ar  325  TYR325      0.1957
    181  OH        33.6640  -21.8010   17.9650 O.3   325  TYR325     -0.2866
    182  N         27.6300  -15.5030   20.3060 N.3   328  LEU328     -0.1231
    183  CA        26.7370  -16.6570   20.3940 C.3   328  LEU328      0.1693
    184  C         27.0530  -17.4930   21.6290 C.2   328  LEU328      0.2592
    185  O         26.1670  -18.0940   22.2280 O.2   328  LEU328     -0.2718
    186  CB        26.8640  -17.5080   19.1250 C.3   328  LEU328      0.0284
    187  CG        25.8700  -18.6190   18.8140 C.3   328  LEU328      0.0019
    188  CD1       24.4820  -18.0370   18.5780 C.3   328  LEU328      0.0001
    189  CD2       26.3510  -19.4080   17.5900 C.3   328  LEU328      0.0001
    190  N         28.3170  -17.5080   22.0300 N.am  329  THR329     -0.1953
    191  CA        28.7210  -18.3020   23.1810 C.3   329  THR329      0.1897
    192  C         28.2800  -17.6920   24.5170 C.2   329  THR329      0.2313
    193  O         28.1500  -18.3980   25.5180 O.2   329  THR329     -0.2863
    194  CB        30.2370  -18.5320   23.1810 C.3   329  THR329      0.1794
    195  OG1       30.9000  -17.3330   23.5920 O.3   329  THR329     -0.2208
    196  CG2       30.7090  -18.9270   21.7760 C.3   329  THR329      0.0378
    197  N         21.6920  -18.6350   20.8100 N.3   333  PRO333     -0.2116
    198  CA        20.9520  -18.3970   19.5610 C.3   333  PRO333      0.1372
    199  C         20.0600  -17.1330   19.5000 C.2   333  PRO333      0.2244
    200  O         19.9810  -16.5450   18.4220 O.2   333  PRO333     -0.2868
    201  CB        20.1100  -19.6730   19.4130 C.3   333  PRO333      0.0268
    202  CG        20.9430  -20.7320   20.0850 C.3   333  PRO333      0.0207
    203  CD        21.5810  -20.0350   21.2630 C.3   333  PRO333      0.0892
@<TRIPOS>BOND
     1   125   126    1
     2   127   126    1
     3   127   128    2
     4   126   129    1
     5   114   115    1
     6   129   130    1
     7    87    86    2
     8   116   115    1
     9   116   117    2
    10    90    88    1
    11   115   118    1
    12   118   119    1
    13    86    85    1
    14   121   119   ar
    15   121   123   ar
    16   105   104    1
    17   130   131    1
    18   119   120   ar
    19   123   124   ar
    20    88    85    1
    21    88    89    1
    22   177   179   ar
    23   177   175   ar
    24   170   171    1
    25   174   175    1
    26   174   171    1
    27   131   132    1
    28    85    84    1
    29   179   180   ar
    30   175   176   ar
    31   171   172    1
    32   104   103    1
    33   104   106    1
    34   120   122   ar
    35   124   122   ar
    36   103   100    1
    37    84    75   am
    38    91    92    1
    39   180   181    1
    40   180   178   ar
    41   160   161    2
    42   160   159    1
    43    76    75    2
    44   110   109    2
    45   189   187    1
    46   176   178   ar
    47   162   159    1
    48   162   163    1
    49    67    66   ar
    50    67    65   ar
    51    66    64   ar
    52    75    74    1
    53   172   173    2
    54   200   199    2
    55   159   158    1
    56   163   165   ar
    57   163   164   ar
    58   102   101    2
    59   188   187    1
    60    99   100    1
    61    99    93   am
    62   165   167   ar
    63    71    70    2
    64   109   108    1
    65   100   101    1
    66    92    93    1
    67    92    95    1
    68   187   186    1
    69    65    63   ar
    70   164   166   ar
    71   101   107   am
    72   186   183    1
    73    93    94    2
    74    73    74    1
    75    98    96    1
    76    64    63   ar
    77    74    77    1
    78    70    69    1
    79   167   168   ar
    80    96    95    1
    81    96    97    1
    82   201   198    1
    83   201   202    1
    84   199   198    1
    85   198   197    1
    86   107   108    1
    87   107   113    1
    88   166   168   ar
    89    63    62    1
    90   168   169    1
    91   108   111    1
    92   202   203    1
    93    61    60    2
    94   113   112    1
    95   182   183    1
    96   183   184    1
    97    77    78    1
    98   112   111    1
    99    69    72    1
   100    69    68    1
   101   197   203    1
   102    60    59    1
   103    62    59    1
   104   184   190   am
   105   184   185    2
   106    78    80   ar
   107    78    79   ar
   108   196   194    1
   109    59    58    1
   110   190   191    1
   111    80    82   ar
   112    79    81   ar
   113   139   137    1
   114   154   153    2
   115   156   155    1
   116   191   194    1
   117   191   192    1
   118   194   195    1
   119    58    55   am
   120    82    83   ar
   121   155   157    1
   122   155   152    1
   123    56    55    2
   124   138   137    1
   125    81    83   ar
   126    12    11    1
   127   153   152    1
   128   137   134    1
   129    55    54    1
   130    10    11   ar
   131    10     8   ar
   132    11     9   ar
   133   151   152    1
   134   134   133    1
   135   134   135    1
   136   192   193    2
   137    49    48    2
   138     8     6   ar
   139     9     7   ar
   140     7     6   ar
   141     6     5    1
   142    28    27    1
   143    48    47    1
   144    54    53    1
   145    54    57    1
   146   135   136    2
   147    27    26    1
   148     5     2    1
   149    50    47    1
   150    50    51    1
   151    47    46    1
   152    26    25    1
   153    20    18    1
   154     2     1    1
   155     2     3    1
   156    35    34    1
   157    51    52    1
   158    46    52    1
   159     3     4    2
   160    25    22    1
   161    45    43   am
   162    18    19    1
   163    18    17    1
   164   140   141    1
   165   145   144    1
   166   145   146    1
   167   141   144    1
   168   141   142    1
   169   150   148    1
   170   147   148    2
   171   147   146    1
   172    22    21    1
   173    22    23    1
   174    34    33    1
   175    34    36    1
   176    17    14    1
   177   148   149    1
   178   142   143    2
   179    33    30    1
   180    21    15   am
   181    43    42    1
   182    43    44    2
   183    42    41    1
   184    15    14    1
   185    15    16    2
   186    23    24    2
   187    14    13    1
   188    30    31    1
   189    30    29    1
   190    31    32    2
   191    31    37   am
   192    37    38    1
   193    41    38    1
   194    38    39    1
   195    39    40    2
