@<TRIPOS>MOLECULE
tmp/4ls2A02.pdb
 207 199 0 0 0
SMALL
GASTEIGER

@<TRIPOS>ATOM
      1  N         17.5920  -16.8600   27.6380 N.3     6  TYR6       -0.1241
      2  CA        18.8430  -17.4480   27.1810 C.3     6  TYR6        0.1605
      3  C         20.0450  -16.7040   27.7430 C.2     6  TYR6        0.2264
      4  O         20.9930  -17.3160   28.2420 O.2     6  TYR6       -0.2867
      5  CB        18.8960  -17.4660   25.6520 C.3     6  TYR6        0.0534
      6  CG        18.2470  -18.6890   25.0480 C.ar    6  TYR6       -0.0201
      7  CD1       16.8620  -18.8160   24.9980 C.ar    6  TYR6       -0.0009
      8  CD2       19.0210  -19.7210   24.5280 C.ar    6  TYR6       -0.0009
      9  CE1       16.2660  -19.9350   24.4440 C.ar    6  TYR6        0.0417
     10  CE2       18.4340  -20.8430   23.9740 C.ar    6  TYR6        0.0417
     11  CZ        17.0590  -20.9440   23.9350 C.ar    6  TYR6        0.1957
     12  OH        16.4830  -22.0620   23.3840 O.3     6  TYR6       -0.2866
     13  N         19.7540  -19.5150   30.8560 N.3    10  LEU10      -0.1231
     14  CA        20.1090  -20.7780   30.2040 C.3    10  LEU10       0.1693
     15  C         21.5970  -20.8810   29.8730 C.2    10  LEU10       0.2591
     16  O         22.2850  -21.7930   30.3500 O.2    10  LEU10      -0.2718
     17  CB        19.2530  -21.0020   28.9550 C.3    10  LEU10       0.0284
     18  CG        19.4610  -22.3060   28.1830 C.3    10  LEU10       0.0019
     19  CD1       19.5210  -23.4970   29.1230 C.3    10  LEU10       0.0001
     20  CD2       18.3430  -22.4900   27.1740 C.3    10  LEU10       0.0001
     21  N         22.0880  -19.9510   29.0560 N.am   11  MET11      -0.1979
     22  CA        23.5080  -19.9250   28.6970 C.3    11  MET11       0.1605
     23  C         24.4800  -19.8800   29.8950 C.2    11  MET11       0.2287
     24  O         25.4570  -20.6390   29.9130 O.2    11  MET11      -0.2864
     25  CB        23.8090  -18.8010   27.6950 C.3    11  MET11       0.0413
     26  CG        23.0450  -18.9300   26.3810 C.3    11  MET11       0.0598
     27  SD        23.2290  -20.5480   25.5770 S.3    11  MET11      -0.1393
     28  CE        24.9920  -20.5540   25.2110 C.3    11  MET11       0.0692
     29  N         24.5510  -23.3820   31.6200 N.3    14  LEU14      -0.1231
     30  CA        25.2400  -24.3550   30.7750 C.3    14  LEU14       0.1693
     31  C         26.7500  -24.1340   30.7830 C.2    14  LEU14       0.2591
     32  O         27.5220  -25.0910   30.7800 O.2    14  LEU14      -0.2718
     33  CB        24.7040  -24.2960   29.3460 C.3    14  LEU14       0.0284
     34  CG        23.3100  -24.8920   29.1420 C.3    14  LEU14       0.0019
     35  CD1       22.8090  -24.6610   27.7200 C.3    14  LEU14       0.0001
     36  CD2       23.3330  -26.3790   29.4710 C.3    14  LEU14       0.0001
     37  N         27.1620  -22.8680   30.7930 N.am   15  GLN15      -0.1979
     38  CA        28.5740  -22.5180   30.8910 C.3    15  GLN15       0.1601
     39  C         29.1220  -22.8990   32.2590 C.2    15  GLN15       0.2287
     40  O         30.3100  -23.1830   32.4050 O.2    15  GLN15      -0.2864
     41  CB        28.7880  -21.0200   30.6490 C.3    15  GLN15       0.0394
     42  CG        28.5050  -20.5770   29.2200 C.3    15  GLN15       0.0908
     43  CD        29.1990  -19.2750   28.8680 C.2    15  GLN15       0.2608
     44  OE1       29.8340  -19.1590   27.8150 O.2    15  GLN15      -0.2717
     45  NE2       29.0880  -18.2870   29.7520 N.am   15  GLN15      -0.0878
     46  N         34.5290  -24.6900   27.8460 N.3    20  PRO20      -0.2116
     47  CA        34.1360  -24.0970   26.5580 C.3    20  PRO20       0.1372
     48  C         34.1500  -25.0890   25.3890 C.2    20  PRO20       0.2244
     49  O         33.1960  -25.0930   24.6110 O.2    20  PRO20      -0.2868
     50  CB        35.1730  -22.9900   26.3430 C.3    20  PRO20       0.0268
     51  CG        35.6670  -22.6520   27.7110 C.3    20  PRO20       0.0207
     52  CD        35.6500  -23.9580   28.4680 C.3    20  PRO20       0.0892
     53  N         31.1690  -27.3670   25.6550 N.3    23  ALA23      -0.1231
     54  CA        29.9950  -26.5640   25.3440 C.3    23  ALA23       0.1694
     55  C         29.8710  -26.3500   23.8280 C.2    23  ALA23       0.2592
     56  O         28.7750  -26.4260   23.2640 O.2    23  ALA23      -0.2718
     57  CB        30.0490  -25.2340   26.0910 C.3    23  ALA23       0.0304
     58  N         30.9960  -26.0830   23.1720 N.am   24  HIS24      -0.1976
     59  CA        31.0180  -25.9070   21.7150 C.3    24  HIS24       0.1656
     60  C         30.5340  -27.1760   20.9970 C.2    24  HIS24       0.2291
     61  O         29.6900  -27.1170   20.0860 O.2    24  HIS24      -0.2864
     62  CB        32.4410  -25.5600   21.2570 C.3    24  HIS24       0.0771
     63  CG        32.5770  -25.3190   19.7790 C.ar   24  HIS24       0.0820
     64  ND1       33.7950  -25.1760   19.1650 N.ar   24  HIS24      -0.2267
     65  CD2       31.6350  -25.1740   18.8120 C.ar   24  HIS24       0.1154
     66  CE1       33.6080  -24.9690   17.8650 C.ar   24  HIS24       0.1986
     67  NE2       32.3130  -24.9640   17.6310 N.ar   24  HIS24      -0.2212
     68  N         26.8220  -27.6420   21.5420 N.3    27  ALA27      -0.1245
     69  CA        26.1310  -26.6470   20.7200 C.3    27  ALA27       0.1562
     70  C         26.0520  -27.0770   19.2550 C.2    27  ALA27       0.2260
     71  O         25.0220  -26.8960   18.5970 O.2    27  ALA27      -0.2867
     72  CB        26.8260  -25.2920   20.8260 C.3    27  ALA27       0.0290
     73  N         23.4190  -29.9080   19.1440 N.3    30  PHE30      -0.1227
     74  CA        22.0650  -29.3540   19.2470 C.3    30  PHE30       0.1736
     75  C         21.6550  -28.6920   17.9470 C.2    30  PHE30       0.2596
     76  O         20.5140  -28.8360   17.4910 O.2    30  PHE30      -0.2718
     77  CB        21.9750  -28.2880   20.3410 C.3    30  PHE30       0.0547
     78  CG        21.9750  -28.8300   21.7420 C.ar   30  PHE30      -0.0202
     79  CD1       21.6760  -30.1610   21.9980 C.ar   30  PHE30      -0.0042
     80  CD2       22.2670  -27.9890   22.8140 C.ar   30  PHE30      -0.0042
     81  CE1       21.6720  -30.6480   23.2990 C.ar   30  PHE30      -0.0003
     82  CE2       22.2670  -28.4690   24.1180 C.ar   30  PHE30      -0.0003
     83  CZ        21.9710  -29.8030   24.3600 C.ar   30  PHE30      -0.0000
     84  N         22.5880  -27.9410   17.3680 N.am   31  THR31      -0.1953
     85  CA        22.2830  -27.1670   16.1830 C.3    31  THR31       0.1897
     86  C         22.0140  -28.1120   15.0210 C.2    31  THR31       0.2313
     87  O         21.0330  -27.9450   14.3150 O.2    31  THR31      -0.2863
     88  CB        23.4010  -26.1720   15.8440 C.3    31  THR31       0.1794
     89  OG1       23.6000  -25.2920   16.9550 O.3    31  THR31      -0.2208
     90  CG2       23.0310  -25.3430   14.6240 C.3    31  THR31       0.0378
     91  N         17.6060  -28.5950   17.4260 N.3    35  LEU35      -0.1231
     92  CA        17.0910  -28.3470   18.7680 C.3    35  LEU35       0.1693
     93  C         17.2890  -26.8870   19.1470 C.2    35  LEU35       0.2591
     94  O         18.1790  -26.5440   19.9280 O.2    35  LEU35      -0.2718
     95  CB        17.7660  -29.2630   19.7870 C.3    35  LEU35       0.0284
     96  CG        17.6670  -30.7500   19.4450 C.3    35  LEU35       0.0019
     97  CD1       18.2550  -31.5920   20.5660 C.3    35  LEU35       0.0001
     98  CD2       16.2190  -31.1410   19.1610 C.3    35  LEU35       0.0001
     99  N         16.4700  -26.0260   18.5540 N.am   36  LEU36      -0.1980
    100  CA        16.4850  -24.6030   18.8490 C.3    36  LEU36       0.1596
    101  C         15.1610  -24.0210   18.4110 C.2    36  LEU36       0.2287
    102  O         14.4660  -24.6230   17.5870 O.2    36  LEU36      -0.2864
    103  CB        17.6220  -23.8840   18.1180 C.3    36  LEU36       0.0297
    104  CG        18.5360  -24.6010   17.1250 C.3    36  LEU36       0.0022
    105  CD1       17.9550  -24.7190   15.7310 C.3    36  LEU36       0.0001
    106  CD2       19.7950  -23.8220   17.0840 C.3    36  LEU36       0.0001
    107  N         32.8030  -22.0290   14.1440 N.3    66  PHE66      -0.1241
    108  CA        31.7590  -22.6670   14.9220 C.3    66  PHE66       0.1605
    109  C         31.4560  -24.0410   14.3400 C.2    66  PHE66       0.2264
    110  O         31.5140  -25.0630   15.0410 O.2    66  PHE66      -0.2867
    111  CB        30.4820  -21.8290   14.9650 C.3    66  PHE66       0.0534
    112  CG        29.3570  -22.5140   15.6810 C.ar   66  PHE66      -0.0203
    113  CD1       29.3750  -22.6340   17.0650 C.ar   66  PHE66      -0.0042
    114  CD2       28.3030  -23.0760   14.9730 C.ar   66  PHE66      -0.0042
    115  CE1       28.3490  -23.2810   17.7350 C.ar   66  PHE66      -0.0003
    116  CE2       27.2680  -23.7280   15.6320 C.ar   66  PHE66      -0.0003
    117  CZ        27.2900  -23.8260   17.0170 C.ar   66  PHE66      -0.0000
    118  N         18.5430  -21.1010   12.5750 N.3    79  MET79      -0.1245
    119  CA        18.8280  -20.1590   13.6530 C.3    79  MET79       0.1570
    120  C         18.6530  -18.7110   13.1710 C.2    79  MET79       0.2261
    121  O         18.5700  -17.7850   13.9780 O.2    79  MET79      -0.2867
    122  CB        20.2480  -20.3960   14.1780 C.3    79  MET79       0.0387
    123  CG        20.4650  -19.9990   15.6110 C.3    79  MET79       0.0595
    124  SD        22.1650  -20.2870   16.1370 S.3    79  MET79      -0.1393
    125  CE        22.3630  -22.0370   15.9900 C.3    79  MET79       0.0692
    126  N         40.5970  -23.6180   24.5250 N.3   102  VAL102     -0.1245
    127  CA        39.5530  -22.6060   24.3830 C.3   102  VAL102      0.1561
    128  C         39.2530  -22.0750   25.7740 C.2   102  VAL102      0.2260
    129  O         39.1230  -22.8530   26.7140 O.2   102  VAL102     -0.2867
    130  CB        38.2380  -23.1910   23.8210 C.3   102  VAL102      0.0252
    131  CG1       37.3380  -22.0680   23.3540 C.3   102  VAL102      0.0019
    132  CG2       38.5040  -24.1380   22.6750 C.3   102  VAL102      0.0019
    133  N         37.1820  -18.9510   28.2650 N.3   104  ARG104     -0.1245
    134  CA        36.1930  -17.8880   28.3840 C.3   104  ARG104      0.1563
    135  C         36.7330  -16.7510   29.2210 C.2   104  ARG104      0.2260
    136  O         37.4270  -16.9770   30.2150 O.2   104  ARG104     -0.2867
    137  CB        34.9390  -18.3780   29.0830 C.3   104  ARG104      0.0307
    138  CG        34.1480  -19.3670   28.3400 C.3   104  ARG104      0.0489
    139  CD        32.9440  -19.7130   29.1590 C.3   104  ARG104      0.2205
    140  NE        32.1800  -20.7690   28.5330 N.pl3 104  ARG104     -0.0865
    141  CZ        32.0100  -21.9710   29.0630 C.cat 104  ARG104      0.5346
    142  NH1       32.5440  -22.2560   30.2430 N.pl3 104  ARG104      0.1354
    143  NH2       31.2920  -22.8770   28.4160 N.pl3 104  ARG104      0.1354
    144  N         36.5100  -14.4060   24.1500 N.3   111  VAL111     -0.1245
    145  CA        36.9910  -15.7780   24.1610 C.3   111  VAL111      0.1561
    146  C         38.4250  -15.7510   23.6490 C.2   111  VAL111      0.2260
    147  O         38.7860  -14.8890   22.8380 O.2   111  VAL111     -0.2867
    148  CB        36.0770  -16.7260   23.3080 C.3   111  VAL111      0.0252
    149  CG1       36.7550  -18.0700   23.0080 C.3   111  VAL111      0.0019
    150  CG2       34.7240  -16.9590   23.9970 C.3   111  VAL111      0.0019
    151  N         42.7680  -23.4810   18.9060 N.3   115  TYR115     -0.1241
    152  CA        42.4050  -24.7910   18.3770 C.3   115  TYR115      0.1605
    153  C         43.4960  -25.3760   17.4910 C.2   115  TYR115      0.2264
    154  O         43.8280  -26.5540   17.6040 O.2   115  TYR115     -0.2867
    155  CB        41.1020  -24.7180   17.5970 C.3   115  TYR115      0.0534
    156  CG        39.8610  -25.0740   18.3830 C.ar  115  TYR115     -0.0201
    157  CD1       39.6750  -26.3530   18.9050 C.ar  115  TYR115     -0.0009
    158  CD2       38.8470  -24.1480   18.5570 C.ar  115  TYR115     -0.0009
    159  CE1       38.5040  -26.6830   19.6130 C.ar  115  TYR115      0.0417
    160  CE2       37.6890  -24.4620   19.2490 C.ar  115  TYR115      0.0417
    161  CZ        37.5220  -25.7280   19.7670 C.ar  115  TYR115      0.1957
    162  OH        36.3650  -26.0190   20.4540 O.3   115  TYR115     -0.2866
    163  N         30.3020  -14.7240   16.0270 N.3   324  TYR324     -0.1241
    164  CA        30.4990  -16.0400   16.5890 C.3   324  TYR324      0.1605
    165  C         30.4560  -15.9060   18.1190 C.2   324  TYR324      0.2264
    166  O         29.5570  -16.4460   18.7700 O.2   324  TYR324     -0.2867
    167  CB        31.8210  -16.6190   16.0580 C.3   324  TYR324      0.0534
    168  CG        32.2240  -17.9930   16.5500 C.ar  324  TYR324     -0.0201
    169  CD1       31.5040  -18.6610   17.5350 C.ar  324  TYR324     -0.0009
    170  CD2       33.3440  -18.6250   16.0180 C.ar  324  TYR324     -0.0009
    171  CE1       31.8990  -19.9150   17.9890 C.ar  324  TYR324      0.0417
    172  CE2       33.7470  -19.8860   16.4620 C.ar  324  TYR324      0.0417
    173  CZ        33.0180  -20.5140   17.4490 C.ar  324  TYR324      0.1957
    174  OH        33.3920  -21.7510   17.8930 O.3   324  TYR324     -0.2866
    175  N         27.3550  -15.4350   20.2610 N.3   327  LEU327     -0.1231
    176  CA        26.4630  -16.5820   20.3120 C.3   327  LEU327      0.1693
    177  C         26.7980  -17.4350   21.5300 C.2   327  LEU327      0.2593
    178  O         25.9210  -18.0070   22.1640 O.2   327  LEU327     -0.2718
    179  CB        26.6130  -17.3910   19.0240 C.3   327  LEU327      0.0284
    180  CG        25.6770  -18.5380   18.6880 C.3   327  LEU327      0.0019
    181  CD1       24.2870  -18.0080   18.3720 C.3   327  LEU327      0.0001
    182  CD2       26.2460  -19.3160   17.5090 C.3   327  LEU327      0.0001
    183  N         28.0710  -17.4820   21.8890 N.am  328  THR328     -0.1939
    184  CA        28.4830  -18.3230   23.0030 C.3   328  THR328      0.2028
    185  C         28.0430  -17.7560   24.3530 C.2   328  THR328      0.2642
    186  O         27.9730  -18.4870   25.3410 O.2   328  THR328     -0.2714
    187  CB        29.9970  -18.5550   22.9880 C.3   328  THR328      0.1808
    188  OG1       30.6600  -17.3690   23.4240 O.3   328  THR328     -0.2208
    189  CG2       30.4560  -18.8970   21.5730 C.3   328  THR328      0.0379
    190  N         27.7440  -16.4590   24.3970 N.am  329  PHE329     -0.1973
    191  CA        27.2550  -15.8280   25.6280 C.3   329  PHE329      0.1639
    192  C         25.7330  -15.6810   25.6580 C.2   329  PHE329      0.2290
    193  O         25.1030  -15.9320   26.6840 O.2   329  PHE329     -0.2864
    194  CB        27.9030  -14.4500   25.8330 C.3   329  PHE329      0.0560
    195  CG        29.3670  -14.5200   26.1790 C.ar  329  PHE329     -0.0200
    196  CD1       29.7800  -14.9900   27.4230 C.ar  329  PHE329     -0.0042
    197  CD2       30.3310  -14.1320   25.2600 C.ar  329  PHE329     -0.0042
    198  CE1       31.1400  -15.0690   27.7410 C.ar  329  PHE329     -0.0003
    199  CE2       31.6830  -14.2120   25.5660 C.ar  329  PHE329     -0.0003
    200  CZ        32.0910  -14.6830   26.8060 C.ar  329  PHE329     -0.0000
    201  N         21.4020  -18.6080   20.7320 N.3   332  PRO332     -0.2116
    202  CA        20.6630  -18.3890   19.4830 C.3   332  PRO332      0.1372
    203  C         19.8030  -17.1100   19.3910 C.2   332  PRO332      0.2244
    204  O         19.7330  -16.5510   18.2970 O.2   332  PRO332     -0.2868
    205  CB        19.7840  -19.6420   19.3830 C.3   332  PRO332      0.0268
    206  CG        20.5950  -20.7080   20.0620 C.3   332  PRO332      0.0207
    207  CD        21.2840  -20.0010   21.2070 C.3   332  PRO332      0.0892
@<TRIPOS>BOND
     1   118   119    1
     2   120   119    1
     3   120   121    2
     4   119   122    1
     5   107   108    1
     6   122   123    1
     7    87    86    2
     8   109   108    1
     9   109   110    2
    10    90    88    1
    11   108   111    1
    12   111   112    1
    13   114   116   ar
    14   114   112   ar
    15    86    85    1
    16   123   124    1
    17   116   117   ar
    18   112   113   ar
    19   105   104    1
    20    88    85    1
    21    88    89    1
    22   125   124    1
    23   170   172   ar
    24   170   168   ar
    25   163   164    1
    26   167   168    1
    27   167   164    1
    28    85    84    1
    29   172   173   ar
    30   168   169   ar
    31   164   165    1
    32   117   115   ar
    33   113   115   ar
    34   106   104    1
    35   104   103    1
    36    84    75   am
    37    91    92    1
    38   173   174    1
    39   173   171   ar
    40   153   154    2
    41   153   152    1
    42    76    75    2
    43   182   180    1
    44   169   171   ar
    45   102   101    2
    46   155   152    1
    47   155   156    1
    48    67    66   ar
    49    67    65   ar
    50    66    64   ar
    51    75    74    1
    52   103   100    1
    53   165   166    2
    54   204   203    2
    55   181   180    1
    56   152   151    1
    57   156   158   ar
    58   156   157   ar
    59   101   100    1
    60    99   100    1
    61    99    93   am
    62   158   160   ar
    63    71    70    2
    64   180   179    1
    65    92    93    1
    66    92    95    1
    67    65    63   ar
    68   157   159   ar
    69   179   176    1
    70    73    74    1
    71    93    94    2
    72    98    96    1
    73    64    63   ar
    74    74    77    1
    75   160   161   ar
    76    70    69    1
    77   205   202    1
    78   205   206    1
    79   203   202    1
    80    96    95    1
    81    96    97    1
    82   202   201    1
    83   159   161   ar
    84   161   162    1
    85    63    62    1
    86   206   207    1
    87    61    60    2
    88   175   176    1
    89   176   177    1
    90    77    78    1
    91    69    72    1
    92    69    68    1
    93   201   207    1
    94    60    59    1
    95    62    59    1
    96   177   183   am
    97   177   178    2
    98   189   187    1
    99    59    58    1
   100    78    79   ar
   101    78    80   ar
   102   183   184    1
   103    79    81   ar
   104   132   130    1
   105    80    82   ar
   106   147   146    2
   107   187   184    1
   108   187   188    1
   109   184   185    1
   110   149   148    1
   111    58    55   am
   112    56    55    2
   113    81    83   ar
   114   148   150    1
   115   148   145    1
   116   131   130    1
   117    12    11    1
   118   146   145    1
   119   130   127    1
   120    55    54    1
   121    11    10   ar
   122    11     9   ar
   123    10     8   ar
   124    82    83   ar
   125   144   145    1
   126   185   190   am
   127   185   186    2
   128   127   126    1
   129   127   128    1
   130   190   191    1
   131     9     7   ar
   132     8     6   ar
   133    49    48    2
   134     7     6   ar
   135     6     5    1
   136    28    27    1
   137   197   199   ar
   138   197   195   ar
   139    54    53    1
   140    54    57    1
   141    48    47    1
   142   199   200   ar
   143    27    26    1
   144   191   192    1
   145   191   194    1
   146     5     2    1
   147   192   193    2
   148   128   129    2
   149   194   195    1
   150   195   196   ar
   151    50    47    1
   152    50    51    1
   153    26    25    1
   154    47    46    1
   155   200   198   ar
   156    20    18    1
   157     2     1    1
   158     2     3    1
   159   196   198   ar
   160    25    22    1
   161    51    52    1
   162    35    34    1
   163     3     4    2
   164    44    43    2
   165    46    52    1
   166    18    17    1
   167    18    19    1
   168   133   134    1
   169   138   137    1
   170   138   139    1
   171   134   137    1
   172   134   135    1
   173   143   141    1
   174   140   141    2
   175   140   139    1
   176    22    21    1
   177    22    23    1
   178    43    42    1
   179    43    45   am
   180    17    14    1
   181    21    15   am
   182   141   142    1
   183    34    33    1
   184    34    36    1
   185    42    41    1
   186   135   136    2
   187    33    30    1
   188    15    14    1
   189    15    16    2
   190    23    24    2
   191    14    13    1
   192    41    38    1
   193    30    31    1
   194    30    29    1
   195    32    31    2
   196    31    37   am
   197    37    38    1
   198    38    39    1
   199    39    40    2
