@<TRIPOS>MOLECULE
tmp/4ls3B00.pdb
 121 119 0 0 0
SMALL
GASTEIGER

@<TRIPOS>ATOM
      1  N         52.3340    5.5520   27.8440 N.3    25  GLY25      -0.1210
      2  CA        53.0640    6.5960   28.5490 C.3    25  GLY25       0.1956
      3  C         53.6220    7.7300   27.7090 C.2    25  GLY25       0.2612
      4  O         53.8830    8.8000   28.2460 O.2    25  GLY25      -0.2717
      5  N         53.8000    7.5290   26.4050 N.am   26  SER26      -0.1952
      6  CA        54.3370    8.6050   25.5730 C.3    26  SER26       0.1924
      7  C         54.1290    8.3090   24.0950 C.2    26  SER26       0.2314
      8  O         53.5680    7.2710   23.7380 O.2    26  SER26      -0.2863
      9  CB        55.8350    8.8190   25.8670 C.3    26  SER26       0.2116
     10  OG        56.3020   10.0410   25.2940 O.3    26  SER26      -0.2180
     11  N         45.4890    9.3700   28.5320 N.3    46  TYR46      -0.1241
     12  CA        45.7360   10.8080   28.3830 C.3    46  TYR46       0.1605
     13  C         45.6730   11.2340   26.9180 C.2    46  TYR46       0.2264
     14  O         45.3700   12.3970   26.6190 O.2    46  TYR46      -0.2867
     15  CB        47.0890   11.2280   29.0020 C.3    46  TYR46       0.0534
     16  CG        48.2790   10.9380   28.1140 C.ar   46  TYR46      -0.0201
     17  CD1       48.6950   11.8640   27.1530 C.ar   46  TYR46      -0.0009
     18  CD2       48.9830    9.7440   28.2240 C.ar   46  TYR46      -0.0009
     19  CE1       49.7670   11.6020   26.3300 C.ar   46  TYR46       0.0417
     20  CE2       50.0730    9.4740   27.3970 C.ar   46  TYR46       0.0417
     21  CZ        50.4510   10.4110   26.4510 C.ar   46  TYR46       0.1957
     22  OH        51.5210   10.1680   25.6160 O.3    46  TYR46      -0.2866
     23  N         47.8540    5.6410   32.3350 N.3    68  SER68      -0.1217
     24  CA        48.8170    6.7130   32.0660 C.3    68  SER68       0.1889
     25  C         49.8040    6.8770   33.2310 C.2    68  SER68       0.2288
     26  O         50.5830    7.8340   33.2660 O.2    68  SER68      -0.2866
     27  CB        48.0950    8.0340   31.7590 C.3    68  SER68       0.2089
     28  OG        47.1960    7.9040   30.6580 O.3    68  SER68      -0.2183
     29  N         53.1130    5.8890   35.1380 N.3    70  HIS70      -0.1241
     30  CA        54.4300    5.3470   34.7650 C.3    70  HIS70       0.1621
     31  C         55.0580    4.4870   35.8470 C.2    70  HIS70       0.2264
     32  O         56.0190    3.7540   35.5880 O.2    70  HIS70      -0.2867
     33  CB        55.4520    6.4510   34.4860 C.3    70  HIS70       0.0745
     34  CG        55.0220    7.4710   33.4770 C.ar   70  HIS70       0.0817
     35  ND1       54.6330    7.1440   32.1930 N.ar   70  HIS70      -0.2268
     36  CD2       54.9930    8.8210   33.5450 C.ar   70  HIS70       0.1154
     37  CE1       54.3630    8.2500   31.5240 C.ar   70  HIS70       0.1986
     38  NE2       54.5640    9.2830   32.3250 N.ar   70  HIS70      -0.2212
     39  N         57.0890    4.5460   27.6740 N.3    90  PHE90      -0.1241
     40  CA        57.9240    5.4950   28.4000 C.3    90  PHE90       0.1605
     41  C         58.4340    4.7920   29.6480 C.2    90  PHE90       0.2264
     42  O         57.6490    4.2140   30.4050 O.2    90  PHE90      -0.2867
     43  CB        57.1270    6.7310   28.8190 C.3    90  PHE90       0.0534
     44  CG        57.9550    7.7570   29.5540 C.ar   90  PHE90      -0.0203
     45  CD1       58.7490    8.6560   28.8550 C.ar   90  PHE90      -0.0042
     46  CD2       57.9670    7.7910   30.9410 C.ar   90  PHE90      -0.0042
     47  CE1       59.5280    9.5850   29.5280 C.ar   90  PHE90      -0.0003
     48  CE2       58.7470    8.7210   31.6260 C.ar   90  PHE90      -0.0003
     49  CZ        59.5240    9.6150   30.9200 C.ar   90  PHE90      -0.0000
     50  N         62.7170    9.7160   26.6930 N.3   112  GLU112     -0.1245
     51  CA        63.1820   10.8870   25.9670 C.3   112  GLU112      0.1567
     52  C         63.4240   12.0890   26.8950 C.2   112  GLU112      0.2260
     53  O         62.5540   12.4650   27.6840 O.2   112  GLU112     -0.2867
     54  CB        62.1660   11.2360   24.8680 C.3   112  GLU112      0.0388
     55  CG        60.7630   11.6360   25.3660 C.3   112  GLU112      0.1160
     56  CD        59.8170   10.4710   25.6890 C.2   112  GLU112      0.3649
     57  OE1       60.2350    9.2830   25.7610 O.co2 112  GLU112     -0.2457
     58  OE2       58.6110   10.7590   25.8660 O.co2 112  GLU112     -0.2457
     59  N         60.8540   15.1570   37.3510 N.3   197  ARG197     -0.1245
     60  CA        60.0130   16.1340   38.0260 C.3   197  ARG197      0.1563
     61  C         59.9670   15.7910   39.5020 C.2   197  ARG197      0.2260
     62  O         59.8960   14.6120   39.8790 O.2   197  ARG197     -0.2867
     63  CB        58.6030   16.0900   37.4560 C.3   197  ARG197      0.0307
     64  CG        58.5290   16.3370   35.9570 C.3   197  ARG197      0.0489
     65  CD        57.1550   15.9740   35.4610 C.3   197  ARG197      0.2205
     66  NE        57.0540   16.0880   34.0120 N.pl3 197  ARG197     -0.0865
     67  CZ        56.0330   15.6010   33.3180 C.cat 197  ARG197      0.5346
     68  NH1       55.0610   14.9600   33.9510 N.pl3 197  ARG197      0.1354
     69  NH2       55.9910   15.7570   32.0030 N.pl3 197  ARG197      0.1354
     70  N         51.9370   22.3530   33.0950 N.3   216  TRP216     -0.1227
     71  CA        51.8180   21.1110   32.3190 C.3   216  TRP216      0.1737
     72  C         50.4090   20.9010   31.7930 C.2   216  TRP216      0.2595
     73  O         49.4550   21.0830   32.5270 O.2   216  TRP216     -0.2718
     74  CB        52.1760   19.9640   33.2490 C.3   216  TRP216      0.0564
     75  CG        52.2000   18.5790   32.6770 C.ar  216  TRP216      0.0003
     76  CD1       52.6900   18.1740   31.4610 C.ar  216  TRP216      0.0946
     77  CD2       51.7930   17.3950   33.3630 C.ar  216  TRP216      0.0152
     78  NE1       52.5730   16.8030   31.3490 N.ar  216  TRP216     -0.2442
     79  CE2       52.0380   16.3070   32.5100 C.ar  216  TRP216      0.0810
     80  CE3       51.2400   17.1550   34.6240 C.ar  216  TRP216      0.0012
     81  CZ2       51.7350   14.9930   32.8770 C.ar  216  TRP216      0.0191
     82  CZ3       50.9450   15.8560   34.9890 C.ar  216  TRP216      0.0001
     83  CH2       51.1940   14.7900   34.1210 C.ar  216  TRP216      0.0015
     84  N         50.2600   20.5350   30.5190 N.am  217  TRP217     -0.1962
     85  CA        48.9140   20.4720   29.9270 C.3   217  TRP217      0.1771
     86  C         47.9920   19.4430   30.5830 C.2   217  TRP217      0.2619
     87  O         46.7680   19.5640   30.5000 O.2   217  TRP217     -0.2715
     88  CB        48.9740   20.2470   28.4140 C.3   217  TRP217      0.0590
     89  CG        49.3340   18.8600   27.9470 C.ar  217  TRP217      0.0006
     90  CD1       50.5690   18.2670   27.9620 C.ar  217  TRP217      0.0946
     91  CD2       48.4450   17.9170   27.3340 C.ar  217  TRP217      0.0152
     92  NE1       50.4900   16.9940   27.4150 N.ar  217  TRP217     -0.2442
     93  CE2       49.2000   16.7670   27.0130 C.ar  217  TRP217      0.0810
     94  CE3       47.0790   17.9380   27.0180 C.ar  217  TRP217      0.0012
     95  CZ2       48.6340   15.6480   26.3980 C.ar  217  TRP217      0.0191
     96  CZ3       46.5180   16.8240   26.4110 C.ar  217  TRP217      0.0001
     97  CH2       47.2950   15.6980   26.0980 C.ar  217  TRP217      0.0015
     98  N         48.5770   18.4380   31.2270 N.am  218  ILE218     -0.1977
     99  CA        47.8120   17.3720   31.8700 C.3   218  ILE218      0.1596
    100  C         47.4790   17.7200   33.3400 C.2   218  ILE218      0.2287
    101  O         46.6610   17.0530   33.9720 O.2   218  ILE218     -0.2864
    102  CB        48.5420   16.0040   31.7190 C.3   218  ILE218      0.0276
    103  CG1       48.6660   15.6580   30.2310 C.3   218  ILE218      0.0022
    104  CG2       47.8020   14.8710   32.4310 C.3   218  ILE218      0.0022
    105  CD1       49.6980   14.6120   29.9140 C.3   218  ILE218      0.0001
    106  N         51.2110   16.5870   23.3060 N.3   250  ASP250     -0.1225
    107  CA        52.0380   15.5920   23.9710 C.3   250  ASP250      0.1805
    108  C         53.5130   16.0000   23.8280 C.2   250  ASP250      0.2597
    109  O         53.9810   16.2900   22.7200 O.2   250  ASP250     -0.2718
    110  CB        51.7820   14.2230   23.3250 C.3   250  ASP250      0.1424
    111  CG        52.1930   13.0560   24.2060 C.2   250  ASP250      0.3668
    112  OD1       52.4720   13.2450   25.4020 O.co2 250  ASP250     -0.2456
    113  OD2       52.2080   11.9150   23.6940 O.co2 250  ASP250     -0.2456
    114  N         54.2380   16.0440   24.9410 N.am  251  ILE251     -0.1980
    115  CA        55.6240   16.5150   24.9010 C.3   251  ILE251      0.1595
    116  C         56.5520   15.5650   24.1370 C.2   251  ILE251      0.2287
    117  O         57.3810   16.0070   23.3340 O.2   251  ILE251     -0.2864
    118  CB        56.1720   16.8520   26.3080 C.3   251  ILE251      0.0276
    119  CG1       56.2420   15.6150   27.2140 C.3   251  ILE251      0.0022
    120  CG2       55.3190   17.9500   26.9550 C.3   251  ILE251      0.0022
    121  CD1       56.8950   15.9140   28.5720 C.3   251  ILE251      0.0001
@<TRIPOS>BOND
     1   109   108    2
     2   106   107    1
     3   110   107    1
     4   110   111    1
     5   117   116    2
     6   113   111   ar
     7     8     7    2
     8   108   107    1
     9   108   114   am
    10     7     6    1
    11   116   115    1
    12   111   112   ar
    13    54    55    1
    14    54    51    1
    15   115   114    1
    16   115   118    1
    17    10     9    1
    18    55    56    1
    19     6     9    1
    20     6     5    1
    21    22    21    1
    22    56    57   ar
    23    56    58   ar
    24    51    50    1
    25    51    52    1
    26    97    95   ar
    27    97    96   ar
    28   118   120    1
    29   118   119    1
    30    19    21   ar
    31    19    17   ar
    32    95    93   ar
    33     5     3   am
    34    96    94   ar
    35    21    20   ar
    36    14    13    2
    37    52    53    2
    38    13    12    1
    39    93    91   ar
    40    93    92   ar
    41    94    91   ar
    42    17    16   ar
    43   119   121    1
    44    91    89   ar
    45    20    18   ar
    46    92    90   ar
    47    39    40    1
    48     3     4    2
    49     3     2    1
    50     1     2    1
    51    89    90   ar
    52    89    88    1
    53    16    18   ar
    54    16    15    1
    55    12    11    1
    56    12    15    1
    57    40    43    1
    58    40    41    1
    59    88    85    1
    60    43    44    1
    61    45    47   ar
    62    45    44   ar
    63    47    49   ar
    64    44    46   ar
    65    41    42    2
    66   105   103    1
    67    85    84    1
    68    85    86    1
    69   103   102    1
    70    87    86    2
    71    84    72   am
    72    86    98   am
    73    28    27    1
    74    49    48   ar
    75    46    48   ar
    76    98    99    1
    77    78    76   ar
    78    78    79   ar
    79    76    75   ar
    80    37    35   ar
    81    37    38   ar
    82   102    99    1
    83   102   104    1
    84    27    24    1
    85    72    71    1
    86    72    73    2
    87    99   100    1
    88    69    67    1
    89    24    23    1
    90    24    25    1
    91    35    34   ar
    92    71    70    1
    93    71    74    1
    94    38    36   ar
    95    79    81   ar
    96    79    77   ar
    97    75    74    1
    98    75    77   ar
    99    81    83   ar
   100    25    26    2
   101    67    68    1
   102    67    66    2
   103   100   101    2
   104    77    80   ar
   105    34    36   ar
   106    34    33    1
   107    66    65    1
   108    83    82   ar
   109    33    30    1
   110    80    82   ar
   111    30    29    1
   112    30    31    1
   113    65    64    1
   114    32    31    2
   115    64    63    1
   116    59    60    1
   117    63    60    1
   118    60    61    1
   119    61    62    2
