@<TRIPOS>MOLECULE
tmp/4ls3B01.pdb
 146 143 0 0 0
SMALL
GASTEIGER

@<TRIPOS>ATOM
      1  N         53.1130    5.8890   35.1380 N.3    70  HIS70      -0.1241
      2  CA        54.4300    5.3470   34.7650 C.3    70  HIS70       0.1621
      3  C         55.0580    4.4870   35.8470 C.2    70  HIS70       0.2264
      4  O         56.0190    3.7540   35.5880 O.2    70  HIS70      -0.2867
      5  CB        55.4520    6.4510   34.4860 C.3    70  HIS70       0.0745
      6  CG        55.0220    7.4710   33.4770 C.ar   70  HIS70       0.0817
      7  ND1       54.6330    7.1440   32.1930 N.ar   70  HIS70      -0.2268
      8  CD2       54.9930    8.8210   33.5450 C.ar   70  HIS70       0.1154
      9  CE1       54.3630    8.2500   31.5240 C.ar   70  HIS70       0.1986
     10  NE2       54.5640    9.2830   32.3250 N.ar   70  HIS70      -0.2212
     11  N         57.0890    4.5460   27.6740 N.3    90  PHE90      -0.1227
     12  CA        57.9240    5.4950   28.4000 C.3    90  PHE90       0.1736
     13  C         58.4340    4.7920   29.6480 C.2    90  PHE90       0.2595
     14  O         57.6490    4.2140   30.4050 O.2    90  PHE90      -0.2718
     15  CB        57.1270    6.7310   28.8190 C.3    90  PHE90       0.0547
     16  CG        57.9550    7.7570   29.5540 C.ar   90  PHE90      -0.0202
     17  CD1       58.7490    8.6560   28.8550 C.ar   90  PHE90      -0.0042
     18  CD2       57.9670    7.7910   30.9410 C.ar   90  PHE90      -0.0042
     19  CE1       59.5280    9.5850   29.5280 C.ar   90  PHE90      -0.0003
     20  CE2       58.7470    8.7210   31.6260 C.ar   90  PHE90      -0.0003
     21  CZ        59.5240    9.6150   30.9200 C.ar   90  PHE90      -0.0000
     22  N         59.7430    4.8410   29.8590 N.am   91  VAL91      -0.1966
     23  CA        60.3440    4.2030   31.0220 C.3    91  VAL91       0.1727
     24  C         60.4300    5.1610   32.2170 C.2    91  VAL91       0.2616
     25  O         61.3780    5.9440   32.3490 O.2    91  VAL91      -0.2715
     26  CB        61.7330    3.6210   30.6970 C.3    91  VAL91       0.0290
     27  CG1       62.2830    2.8800   31.9060 C.3    91  VAL91       0.0023
     28  CG2       61.6580    2.6850   29.5140 C.3    91  VAL91       0.0023
     29  N         59.4070    5.1150   33.0650 N.am   92  GLY92      -0.1955
     30  CA        59.4290    5.8060   34.3380 C.3    92  GLY92       0.1869
     31  C         59.7920    4.8540   35.4660 C.2    92  GLY92       0.2309
     32  O         60.1280    5.2940   36.5710 O.2    92  GLY92      -0.2863
     33  N         63.0470    6.8000   27.1450 N.3   111  GLN111     -0.1231
     34  CA        62.9110    7.8170   28.1820 C.3   111  GLN111      0.1698
     35  C         63.4790    9.1060   27.5990 C.2   111  GLN111      0.2592
     36  O         64.6010    9.5130   27.9150 O.2   111  GLN111     -0.2718
     37  CB        63.6490    7.4070   29.4580 C.3   111  GLN111      0.0381
     38  CG        63.2840    8.2560   30.6660 C.3   111  GLN111      0.0905
     39  CD        64.2690    8.1060   31.8010 C.2   111  GLN111      0.2608
     40  OE1       65.2030    8.9000   31.9320 O.2   111  GLN111     -0.2717
     41  NE2       64.0640    7.0970   32.6370 N.am  111  GLN111     -0.0878
     42  N         62.7170    9.7160   26.6930 N.am  112  GLU112     -0.1966
     43  CA        63.1820   10.8870   25.9670 C.3   112  GLU112      0.1733
     44  C         63.4240   12.0890   26.8950 C.2   112  GLU112      0.2616
     45  O         62.5540   12.4650   27.6840 O.2   112  GLU112     -0.2715
     46  CB        62.1660   11.2360   24.8680 C.3   112  GLU112      0.0429
     47  CG        60.7630   11.6360   25.3660 C.3   112  GLU112      0.1163
     48  CD        59.8170   10.4710   25.6890 C.2   112  GLU112      0.3649
     49  OE1       60.2350    9.2830   25.7610 O.co2 112  GLU112     -0.2457
     50  OE2       58.6110   10.7590   25.8660 O.co2 112  GLU112     -0.2457
     51  N         64.6060   12.6990   26.7930 N.am  113  LYS113     -0.1977
     52  CA        64.9770   13.7800   27.7100 C.3   113  LYS113      0.1596
     53  C         65.1350   15.1310   27.0150 C.2   113  LYS113      0.2287
     54  O         65.1480   16.1780   27.6650 O.2   113  LYS113     -0.2864
     55  CB        66.2890   13.4160   28.4060 C.3   113  LYS113      0.0298
     56  CG        66.1640   12.1960   29.2890 C.3   113  LYS113      0.0038
     57  CD        67.4930   11.8060   29.9070 C.3   113  LYS113      0.0206
     58  CE        68.4930   11.3750   28.8510 C.3   113  LYS113      0.1093
     59  NZ        67.9480   10.3190   27.9380 N.3   113  LYS113     -0.1314
     60  N         55.3750   20.9940   42.3830 N.3   168  LYS168     -0.1245
     61  CA        56.1290   19.9790   41.6470 C.3   168  LYS168      0.1561
     62  C         56.6400   20.5990   40.3520 C.2   168  LYS168      0.2260
     63  O         55.8670   21.1280   39.5650 O.2   168  LYS168     -0.2867
     64  CB        55.2860   18.7260   41.3650 C.3   168  LYS168      0.0271
     65  CG        56.1020   17.5890   40.7390 C.3   168  LYS168      0.0035
     66  CD        55.3340   16.2750   40.6550 C.3   168  LYS168      0.0206
     67  CE        56.2540   15.1870   40.1130 C.3   168  LYS168      0.1093
     68  NZ        55.5590   13.8970   39.8320 N.3   168  LYS168     -0.1314
     69  N         67.3610   16.1090   33.1470 N.3   173  GLN173     -0.1231
     70  CA        66.8880   14.8380   32.5880 C.3   173  GLN173      0.1698
     71  C         65.3690   14.8010   32.5540 C.2   173  GLN173      0.2592
     72  O         64.7410   13.8190   32.9730 O.2   173  GLN173     -0.2718
     73  CB        67.3830   13.6440   33.4170 C.3   173  GLN173      0.0381
     74  CG        68.8890   13.5820   33.6740 C.3   173  GLN173      0.0905
     75  CD        69.6740   13.1430   32.4490 C.2   173  GLN173      0.2608
     76  OE1       70.1130   11.9950   32.3560 O.2   173  GLN173     -0.2717
     77  NE2       69.8760   14.0620   31.5150 N.am  173  GLN173     -0.0878
     78  N         64.7810   15.8940   32.1050 N.am  174  ALA174     -0.1966
     79  CA        63.3350   15.9910   31.9740 C.3   174  ALA174      0.1728
     80  C         63.0650   16.6560   30.6440 C.2   174  ALA174      0.2616
     81  O         63.5780   17.7390   30.3720 O.2   174  ALA174     -0.2715
     82  CB        62.7420   16.8080   33.1110 C.3   174  ALA174      0.0334
     83  N         62.2810   16.0050   29.7930 N.am  175  LEU175     -0.1963
     84  CA        61.9720   16.5950   28.5050 C.3   175  LEU175      0.1728
     85  C         61.3040   17.9630   28.6730 C.2   175  LEU175      0.2616
     86  O         61.5180   18.8500   27.8460 O.2   175  LEU175     -0.2715
     87  CB        61.1050   15.6510   27.6670 C.3   175  LEU175      0.0311
     88  CG        60.5690   16.2110   26.3460 C.3   175  LEU175      0.0022
     89  CD1       61.7040   16.6330   25.4260 C.3   175  LEU175      0.0001
     90  CD2       59.7090   15.1670   25.6760 C.3   175  LEU175      0.0001
     91  N         60.5180   18.1480   29.7400 N.am  176  ASP176     -0.1971
     92  CA        59.8660   19.4510   29.9630 C.3   176  ASP176      0.1709
     93  C         60.9160   20.5510   30.0500 C.2   176  ASP176      0.2293
     94  O         60.7320   21.6680   29.5490 O.2   176  ASP176     -0.2864
     95  CB        59.0730   19.4820   31.2730 C.3   176  ASP176      0.1436
     96  CG        58.2020   18.2700   31.4440 C.2   176  ASP176      0.3671
     97  OD1       57.0980   18.2460   30.8700 O.co2 176  ASP176     -0.2456
     98  OD2       58.6210   17.3570   32.1810 O.co2 176  ASP176     -0.2456
     99  N         66.6150   15.0040   38.7370 N.3   195  PHE195     -0.1227
    100  CA        66.1110   14.1040   37.7030 C.3   195  PHE195      0.1736
    101  C         64.6100   14.2360   37.5660 C.2   195  PHE195      0.2596
    102  O         63.8880   14.2210   38.5680 O.2   195  PHE195     -0.2718
    103  CB        66.4450   12.6470   38.0370 C.3   195  PHE195      0.0547
    104  CG        65.8920   11.6670   37.0440 C.ar  195  PHE195     -0.0202
    105  CD1       66.5940   11.3750   35.8860 C.ar  195  PHE195     -0.0042
    106  CD2       64.6590   11.0540   37.2580 C.ar  195  PHE195     -0.0042
    107  CE1       66.0880   10.4830   34.9500 C.ar  195  PHE195     -0.0003
    108  CE2       64.1440   10.1640   36.3240 C.ar  195  PHE195     -0.0003
    109  CZ        64.8650    9.8770   35.1700 C.ar  195  PHE195     -0.0000
    110  N         64.1430   14.3480   36.3260 N.am  196  GLY196     -0.1942
    111  CA        62.7170   14.3480   36.0480 C.3   196  GLY196      0.2014
    112  C         61.9630   15.4950   36.6940 C.2   196  GLY196      0.2638
    113  O         62.3760   16.6570   36.6040 O.2   196  GLY196     -0.2714
    114  N         60.8540   15.1570   37.3510 N.am  197  ARG197     -0.1977
    115  CA        60.0130   16.1340   38.0260 C.3   197  ARG197      0.1597
    116  C         59.9670   15.7910   39.5020 C.2   197  ARG197      0.2287
    117  O         59.8960   14.6120   39.8790 O.2   197  ARG197     -0.2864
    118  CB        58.6030   16.0900   37.4560 C.3   197  ARG197      0.0334
    119  CG        58.5290   16.3370   35.9570 C.3   197  ARG197      0.0492
    120  CD        57.1550   15.9740   35.4610 C.3   197  ARG197      0.2205
    121  NE        57.0540   16.0880   34.0120 N.pl3 197  ARG197     -0.0865
    122  CZ        56.0330   15.6010   33.3180 C.cat 197  ARG197      0.5346
    123  NH1       55.0610   14.9600   33.9510 N.pl3 197  ARG197      0.1354
    124  NH2       55.9910   15.7570   32.0030 N.pl3 197  ARG197      0.1354
    125  N         51.9370   22.3530   33.0950 N.3   216  TRP216     -0.1241
    126  CA        51.8180   21.1110   32.3190 C.3   216  TRP216      0.1605
    127  C         50.4090   20.9010   31.7930 C.2   216  TRP216      0.2264
    128  O         49.4550   21.0830   32.5270 O.2   216  TRP216     -0.2867
    129  CB        52.1760   19.9640   33.2490 C.3   216  TRP216      0.0550
    130  CG        52.2000   18.5790   32.6770 C.ar  216  TRP216      0.0003
    131  CD1       52.6900   18.1740   31.4610 C.ar  216  TRP216      0.0946
    132  CD2       51.7930   17.3950   33.3630 C.ar  216  TRP216      0.0152
    133  NE1       52.5730   16.8030   31.3490 N.ar  216  TRP216     -0.2442
    134  CE2       52.0380   16.3070   32.5100 C.ar  216  TRP216      0.0810
    135  CE3       51.2400   17.1550   34.6240 C.ar  216  TRP216      0.0012
    136  CZ2       51.7350   14.9930   32.8770 C.ar  216  TRP216      0.0191
    137  CZ3       50.9450   15.8560   34.9890 C.ar  216  TRP216      0.0001
    138  CH2       51.1940   14.7900   34.1210 C.ar  216  TRP216      0.0015
    139  N         54.2380   16.0440   24.9410 N.3   251  ILE251     -0.1245
    140  CA        55.6240   16.5150   24.9010 C.3   251  ILE251      0.1561
    141  C         56.5520   15.5650   24.1370 C.2   251  ILE251      0.2260
    142  O         57.3810   16.0070   23.3340 O.2   251  ILE251     -0.2867
    143  CB        56.1720   16.8520   26.3080 C.3   251  ILE251      0.0252
    144  CG1       56.2420   15.6150   27.2140 C.3   251  ILE251      0.0019
    145  CG2       55.3190   17.9500   26.9550 C.3   251  ILE251      0.0019
    146  CD1       56.8950   15.9140   28.5720 C.3   251  ILE251      0.0001
@<TRIPOS>BOND
     1   142   141    2
     2   141   140    1
     3    46    47    1
     4    46    43    1
     5   140   139    1
     6   140   143    1
     7    47    48    1
     8    89    88    1
     9    90    88    1
    10    48    49   ar
    11    48    50   ar
    12    43    42    1
    13    43    44    1
    14   143   145    1
    15   143   144    1
    16    88    87    1
    17    42    35   am
    18    51    44   am
    19    51    52    1
    20    44    45    2
    21    53    54    2
    22    53    52    1
    23    33    34    1
    24   144   146    1
    25    35    36    2
    26    35    34    1
    27    87    84    1
    28    11    12    1
    29    52    55    1
    30    86    85    2
    31    59    58    1
    32    34    37    1
    33    12    15    1
    34    12    13    1
    35    55    56    1
    36    84    85    1
    37    84    83    1
    38    85    91   am
    39    15    16    1
    40    58    57    1
    41    17    19   ar
    42    17    16   ar
    43    56    57    1
    44    37    38    1
    45    28    26    1
    46    19    21   ar
    47    94    93    2
    48    16    18   ar
    49    13    22   am
    50    13    14    2
    51    91    92    1
    52    83    80   am
    53    22    23    1
    54    92    93    1
    55    92    95    1
    56    81    80    2
    57    80    79    1
    58    38    39    1
    59    26    23    1
    60    26    27    1
    61    97    96   ar
    62    21    20   ar
    63    18    20   ar
    64    23    24    1
    65    95    96    1
    66   133   131   ar
    67   133   134   ar
    68    96    98   ar
    69   131   130   ar
    70    77    75   am
    71     9     7   ar
    72     9    10   ar
    73   127   126    1
    74   127   128    2
    75    39    40    2
    76    39    41   am
    77    79    78    1
    78    79    82    1
    79   124   122    1
    80    78    71   am
    81     7     6   ar
    82    24    25    2
    83    24    29   am
    84   126   125    1
    85   126   129    1
    86    10     8   ar
    87    76    75    2
    88    75    74    1
    89   134   136   ar
    90   134   132   ar
    91    71    70    1
    92    71    72    2
    93    70    69    1
    94    70    73    1
    95   130   129    1
    96   130   132   ar
    97   136   138   ar
    98    29    30    1
    99   122   123    1
   100   122   121    2
   101   132   135   ar
   102    73    74    1
   103     6     8   ar
   104     6     5    1
   105   121   120    1
   106   138   137   ar
   107    30    31    1
   108     5     2    1
   109   135   137   ar
   110     2     1    1
   111     2     3    1
   112   107   109   ar
   113   107   105   ar
   114   109   108   ar
   115   120   119    1
   116    31    32    2
   117     4     3    2
   118   105   104   ar
   119   119   118    1
   120   111   110    1
   121   111   112    1
   122   108   106   ar
   123   110   101   am
   124   113   112    2
   125   112   114   am
   126   104   106   ar
   127   104   103    1
   128   114   115    1
   129   118   115    1
   130   101   100    1
   131   101   102    2
   132   100   103    1
   133   100    99    1
   134   115   116    1
   135   116   117    2
   136    63    62    2
   137    68    67    1
   138    67    66    1
   139    62    61    1
   140    66    65    1
   141    65    64    1
   142    64    61    1
   143    61    60    1
