@<TRIPOS>MOLECULE
tmp/4ls7B00.pdb
 157 148 0 0 0
SMALL
GASTEIGER

@<TRIPOS>ATOM
      1  N         -7.1060  -33.9010   17.3500 N.3   110  GLY110     -0.1210
      2  CA        -6.7890  -33.9840   18.7670 C.3   110  GLY110      0.1956
      3  C         -5.4990  -33.2820   19.1620 C.2   110  GLY110      0.2611
      4  O         -5.4060  -32.7250   20.2620 O.2   110  GLY110     -0.2717
      5  N         -4.5040  -33.3070   18.2700 N.am  111  ILE111     -0.1979
      6  CA        -3.2120  -32.7000   18.5990 C.3   111  ILE111      0.1595
      7  C         -2.6070  -31.8640   17.4630 C.2   111  ILE111      0.2287
      8  O         -1.6690  -31.1080   17.6770 O.2   111  ILE111     -0.2864
      9  CB        -2.1850  -33.7530   19.0890 C.3   111  ILE111      0.0276
     10  CG1       -1.0200  -33.0860   19.8460 C.3   111  ILE111      0.0022
     11  CG2       -1.6960  -34.6300   17.9260 C.3   111  ILE111      0.0022
     12  CD1       -1.4420  -32.0820   20.9140 C.3   111  ILE111      0.0001
     13  N          1.8740  -32.4670   15.4520 N.3   114  LEU114     -0.1245
     14  CA         2.8450  -32.8670   16.4560 C.3   114  LEU114      0.1561
     15  C          4.1940  -33.2520   15.8380 C.2   114  LEU114      0.2260
     16  O          5.2460  -32.9330   16.4040 O.2   114  LEU114     -0.2867
     17  CB         2.2830  -34.0080   17.3090 C.3   114  LEU114      0.0270
     18  CG         3.1910  -34.5260   18.4270 C.3   114  LEU114      0.0019
     19  CD1        3.5670  -33.3980   19.3980 C.3   114  LEU114      0.0001
     20  CD2        2.5050  -35.6650   19.1560 C.3   114  LEU114      0.0001
     21  N         -9.9480  -34.2250   22.3490 N.3   165  ALA165     -0.1231
     22  CA        -9.2830  -35.5180   22.5340 C.3   165  ALA165      0.1694
     23  C         -9.9050  -36.5720   21.6300 C.2   165  ALA165      0.2592
     24  O        -10.0930  -36.3420   20.4340 O.2   165  ALA165     -0.2718
     25  CB        -9.3150  -35.9550   24.0090 C.3   165  ALA165      0.0304
     26  N        -10.2350  -37.7290   22.1870 N.am  166  CYS166     -0.1970
     27  CA       -10.7910  -38.7740   21.3340 C.3   166  CYS166      0.1712
     28  C        -12.2740  -38.5700   20.9770 C.2   166  CYS166      0.2296
     29  O        -12.8420  -39.3380   20.1940 O.2   166  CYS166     -0.2864
     30  CB       -10.4960  -40.1520   21.9190 C.3   166  CYS166      0.0983
     31  SG        -8.7120  -40.5170   21.8930 S.3   166  CYS166     -0.0798
     32  N         -6.1820  -36.8280   12.0820 N.3   194  GLU194     -0.1245
     33  CA        -5.1050  -37.0530   13.0480 C.3   194  GLU194      0.1567
     34  C         -3.9160  -37.7340   12.3930 C.2   194  GLU194      0.2260
     35  O         -4.0810  -38.6730   11.6190 O.2   194  GLU194     -0.2867
     36  CB        -5.5880  -37.9300   14.2070 C.3   194  GLU194      0.0388
     37  CG        -4.7780  -37.7380   15.4940 C.3   194  GLU194      0.1160
     38  CD        -5.2080  -36.4970   16.2450 C.2   194  GLU194      0.3649
     39  OE1       -4.4970  -35.4740   16.1640 O.co2 194  GLU194     -0.2457
     40  OE2       -6.2640  -36.5430   16.9160 O.co2 194  GLU194     -0.2457
     41  N         -1.0460  -39.0500   14.4650 N.3   196  PRO196     -0.2116
     42  CA        -0.4530  -39.1450   15.7970 C.3   196  PRO196      0.1372
     43  C          0.6550  -40.1810   15.8710 C.2   196  PRO196      0.2244
     44  O          1.1320  -40.4690   16.9530 O.2   196  PRO196     -0.2868
     45  CB        -1.6340  -39.6070   16.6390 C.3   196  PRO196      0.0268
     46  CG        -2.3240  -40.5730   15.7050 C.3   196  PRO196      0.0207
     47  CD        -2.1790  -39.9820   14.3120 C.3   196  PRO196      0.0892
     48  N          6.8430  -38.7340   20.1860 N.3   200  MET200     -0.1230
     49  CA         6.2920  -38.3050   21.4750 C.3   200  MET200      0.1702
     50  C          4.9180  -38.8990   21.7440 C.2   200  MET200      0.2593
     51  O          4.5760  -39.1890   22.8910 O.2   200  MET200     -0.2718
     52  CB         6.2270  -36.7740   21.5890 C.3   200  MET200      0.0401
     53  CG         7.5560  -36.1030   21.8670 C.3   200  MET200      0.0596
     54  SD         8.3640  -36.7270   23.3560 S.3   200  MET200     -0.1393
     55  CE         7.2510  -36.1800   24.6480 C.3   200  MET200      0.0692
     56  N          4.1280  -39.0840   20.6930 N.am  201  SER201     -0.1952
     57  CA         2.8180  -39.6930   20.8500 C.3   201  SER201      0.1924
     58  C          2.9800  -41.1360   21.3270 C.2   201  SER201      0.2314
     59  O          2.3340  -41.5570   22.2960 O.2   201  SER201     -0.2863
     60  CB         2.0370  -39.6380   19.5460 C.3   201  SER201      0.2116
     61  OG         0.8030  -40.3290   19.6740 O.3   201  SER201     -0.2180
     62  N          4.3150  -41.0010   24.8880 N.3   204  GLY204     -0.1210
     63  CA         3.3080  -40.5220   25.8250 C.3   204  GLY204      0.1956
     64  C          2.2450  -41.5600   26.1260 C.2   204  GLY204      0.2611
     65  O          1.8790  -41.7590   27.2830 O.2   204  GLY204     -0.2717
     66  N          1.7470  -42.2220   25.0850 N.am  205  PHE205     -0.1976
     67  CA         0.7100  -43.2300   25.2700 C.3   205  PHE205      0.1639
     68  C          1.2450  -44.5720   25.7760 C.2   205  PHE205      0.2290
     69  O          0.4640  -45.4020   26.2350 O.2   205  PHE205     -0.2864
     70  CB        -0.1080  -43.4060   23.9820 C.3   205  PHE205      0.0560
     71  CG        -1.0770  -42.2800   23.7200 C.ar  205  PHE205     -0.0200
     72  CD1       -2.1690  -42.0860   24.5490 C.ar  205  PHE205     -0.0042
     73  CD2       -0.9150  -41.4270   22.6410 C.ar  205  PHE205     -0.0042
     74  CE1       -3.0730  -41.0510   24.3100 C.ar  205  PHE205     -0.0003
     75  CE2       -1.8240  -40.3980   22.4040 C.ar  205  PHE205     -0.0003
     76  CZ        -2.8970  -40.2140   23.2420 C.ar  205  PHE205     -0.0000
     77  N         -1.7390  -46.5620   27.9920 N.3   210  ALA210     -0.1245
     78  CA        -2.9690  -46.6060   27.2040 C.3   210  ALA210      0.1562
     79  C         -2.8640  -47.5970   26.0480 C.2   210  ALA210      0.2260
     80  O         -3.8520  -48.2400   25.6890 O.2   210  ALA210     -0.2867
     81  CB        -3.3200  -45.2260   26.6900 C.3   210  ALA210      0.0290
     82  N         -5.4260  -49.7640   23.5880 N.3   231  PHE231     -0.1241
     83  CA        -5.7840  -49.4860   22.2130 C.3   231  PHE231      0.1605
     84  C         -4.5920  -49.5810   21.2700 C.2   231  PHE231      0.2264
     85  O         -3.4400  -49.5720   21.7070 O.2   231  PHE231     -0.2867
     86  CB        -6.5580  -48.1490   22.0740 C.3   231  PHE231      0.0534
     87  CG        -5.7240  -46.8880   22.2480 C.ar  231  PHE231     -0.0203
     88  CD1       -4.9750  -46.3720   21.2010 C.ar  231  PHE231     -0.0042
     89  CD2       -5.7750  -46.1560   23.4290 C.ar  231  PHE231     -0.0042
     90  CE1       -4.2450  -45.1940   21.3510 C.ar  231  PHE231     -0.0003
     91  CE2       -5.0440  -44.9770   23.5680 C.ar  231  PHE231     -0.0003
     92  CZ        -4.2840  -44.5050   22.5270 C.ar  231  PHE231     -0.0000
     93  N         -8.0290  -38.4470   33.0470 N.3   272  THR272     -0.1218
     94  CA        -7.8410  -39.5170   32.0590 C.3   272  THR272      0.1862
     95  C         -8.7720  -40.7120   32.2960 C.2   272  THR272      0.2287
     96  O         -9.1520  -41.4080   31.3510 O.2   272  THR272     -0.2866
     97  CB        -6.3860  -40.0340   32.0470 C.3   272  THR272      0.1770
     98  OG1       -6.0040  -40.4170   33.3730 O.3   272  THR272     -0.2211
     99  CG2       -5.4310  -38.9630   31.5560 C.3   272  THR272      0.0375
    100  N        -17.5690  -46.6510   20.9310 N.3   305  HIS305     -0.1241
    101  CA       -16.2540  -46.0570   20.9940 C.3   305  HIS305      0.1621
    102  C        -15.2670  -47.2280   20.9920 C.2   305  HIS305      0.2264
    103  O        -14.3110  -47.2330   20.2140 O.2   305  HIS305     -0.2867
    104  CB       -16.1030  -45.1800   22.2300 C.3   305  HIS305      0.0745
    105  CG       -14.8350  -44.3940   22.2560 C.ar  305  HIS305      0.0817
    106  ND1      -14.3970  -43.6570   21.1790 N.ar  305  HIS305     -0.2268
    107  CD2      -13.9130  -44.2240   23.2330 C.ar  305  HIS305      0.1154
    108  CE1      -13.2560  -43.0680   21.4880 C.ar  305  HIS305      0.1986
    109  NE2      -12.9370  -43.4020   22.7250 N.ar  305  HIS305     -0.2212
    110  N        -12.6000  -48.9560   22.3760 N.3   307  THR307     -0.1218
    111  CA       -11.1800  -48.7610   22.1240 C.3   307  THR307      0.1862
    112  C        -10.2960  -49.9800   22.4080 C.2   307  THR307      0.2287
    113  O         -9.1220  -49.9620   22.0560 O.2   307  THR307     -0.2866
    114  CB       -10.6390  -47.6240   22.9910 C.3   307  THR307      0.1770
    115  OG1      -10.8970  -47.9260   24.3670 O.3   307  THR307     -0.2211
    116  CG2      -11.3070  -46.3070   22.6130 C.3   307  THR307      0.0375
    117  N         -7.3770  -47.1170   16.6430 N.3   342  HIS342     -0.1241
    118  CA        -7.9420  -45.9280   17.2490 C.3   342  HIS342      0.1621
    119  C         -7.3560  -44.6740   16.6060 C.2   342  HIS342      0.2264
    120  O         -6.1990  -44.3370   16.8380 O.2   342  HIS342     -0.2867
    121  CB        -7.6440  -45.9430   18.7530 C.3   342  HIS342      0.0745
    122  CG        -8.3940  -44.9090   19.5250 C.ar  342  HIS342      0.0817
    123  ND1       -9.0750  -43.8800   18.9170 N.ar  342  HIS342     -0.2268
    124  CD2       -8.5770  -44.7480   20.8550 C.ar  342  HIS342      0.1154
    125  CE1       -9.6410  -43.1210   19.8380 C.ar  342  HIS342      0.1986
    126  NE2       -9.3570  -43.6290   21.0240 N.ar  342  HIS342     -0.2212
    127  N         -7.9460  -41.6650   17.1710 N.3   344  LEU344     -0.1245
    128  CA        -7.9300  -40.5310   18.0980 C.3   344  LEU344      0.1561
    129  C         -8.9190  -39.4350   17.6640 C.2   344  LEU344      0.2260
    130  O        -10.1170  -39.6880   17.5890 O.2   344  LEU344     -0.2867
    131  CB        -6.5050  -39.9930   18.2870 C.3   344  LEU344      0.0270
    132  CG        -5.4880  -41.0730   18.6990 C.3   344  LEU344      0.0019
    133  CD1       -4.1390  -40.4630   19.0430 C.3   344  LEU344      0.0001
    134  CD2       -5.9800  -41.9340   19.8600 C.3   344  LEU344      0.0001
    135  N        -15.5470  -40.9310   23.4130 N.3   399  LEU399     -0.1231
    136  CA       -15.2360  -40.4290   24.7570 C.3   399  LEU399      0.1693
    137  C        -13.7820  -40.0020   24.7140 C.2   399  LEU399      0.2593
    138  O        -13.0260  -40.5740   23.9490 O.2   399  LEU399     -0.2718
    139  CB       -15.4040  -41.5350   25.7910 C.3   399  LEU399      0.0284
    140  CG       -16.5760  -42.4990   25.5650 C.3   399  LEU399      0.0019
    141  CD1      -16.4510  -43.7180   26.4540 C.3   399  LEU399      0.0001
    142  CD2      -17.9230  -41.8140   25.7740 C.3   399  LEU399      0.0001
    143  N        -13.3790  -39.0160   25.5100 N.am  400  GLY400     -0.1942
    144  CA       -11.9850  -38.5910   25.5080 C.3   400  GLY400      0.2014
    145  C        -11.4510  -38.2460   26.8940 C.2   400  GLY400      0.2638
    146  O        -12.2310  -38.1030   27.8420 O.2   400  GLY400     -0.2714
    147  N        -10.1240  -38.1290   27.0040 N.am  401  PHE401     -0.1973
    148  CA        -9.4780  -37.5470   28.1860 C.3   401  PHE401      0.1639
    149  C        -10.1530  -36.2190   28.4780 C.2   401  PHE401      0.2290
    150  O        -10.7220  -35.6090   27.5870 O.2   401  PHE401     -0.2864
    151  CB        -7.9940  -37.2540   27.9090 C.3   401  PHE401      0.0560
    152  CG        -7.0940  -38.4680   27.9540 C.ar  401  PHE401     -0.0200
    153  CD1       -7.5900  -39.7170   28.2930 C.ar  401  PHE401     -0.0042
    154  CD2       -5.7370  -38.3460   27.6740 C.ar  401  PHE401     -0.0042
    155  CE1       -6.7540  -40.8220   28.3370 C.ar  401  PHE401     -0.0003
    156  CE2       -4.8980  -39.4470   27.7240 C.ar  401  PHE401     -0.0003
    157  CZ        -5.4060  -40.6820   28.0570 C.ar  401  PHE401     -0.0000
@<TRIPOS>BOND
     1    35    34    2
     2    32    33    1
     3    34    33    1
     4    33    36    1
     5    36    37    1
     6    47    41    1
     7    47    46    1
     8    41    42    1
     9    13    14    1
    10    37    38    1
    11    46    45    1
    12    42    43    1
    13    42    45    1
    14    15    16    2
    15    15    14    1
    16    43    44    2
    17    39    38   ar
    18    38    40   ar
    19    14    17    1
    20   119   120    2
    21   119   118    1
    22   117   118    1
    23   127   128    1
    24   118   121    1
    25    17    18    1
    26     1     2    1
    27     7     8    2
    28     7     6    1
    29   130   129    2
    30   129   128    1
    31    11     9    1
    32   128   131    1
    33     5     6    1
    34     5     3   am
    35   131   132    1
    36    18    20    1
    37    18    19    1
    38     6     9    1
    39   132   133    1
    40   132   134    1
    41   121   122    1
    42     2     3    1
    43   123   122   ar
    44   123   125   ar
    45     9    10    1
    46     3     4    2
    47   122   124   ar
    48    60    61    1
    49    60    57    1
    50   125   126   ar
    51    10    12    1
    52    48    49    1
    53    29    28    2
    54   103   102    2
    55    24    23    2
    56    56    57    1
    57    56    50   am
    58    57    58    1
    59   124   126   ar
    60   100   101    1
    61    28    27    1
    62   102   101    1
    63   101   104    1
    64   106   108   ar
    65   106   105   ar
    66    88    90   ar
    67    88    87   ar
    68    84    85    2
    69    84    83    1
    70    58    59    2
    71    27    30    1
    72    27    26    1
    73    90    92   ar
    74    49    52    1
    75    49    50    1
    76   108   109   ar
    77    52    53    1
    78    23    26   am
    79    23    22    1
    80    50    51    2
    81    53    54    1
    82    31    30    1
    83   113   112    2
    84    86    83    1
    85    86    87    1
    86   111   110    1
    87   111   112    1
    88   111   114    1
    89    83    82    1
    90   104   105    1
    91    87    89   ar
    92   105   107   ar
    93    21    22    1
    94    75    73   ar
    95    75    76   ar
    96    92    91   ar
    97    22    25    1
    98   116   114    1
    99    73    71   ar
   100   109   107   ar
   101   114   115    1
   102    76    74   ar
   103    54    55    1
   104   135   136    1
   105    89    91   ar
   106    71    70    1
   107    71    72   ar
   108   138   137    2
   109    70    67    1
   110    74    72   ar
   111   137   136    1
   112   137   143   am
   113   136   139    1
   114    62    63    1
   115    66    67    1
   116    66    64   am
   117    67    68    1
   118   144   143    1
   119   144   145    1
   120   140   142    1
   121   140   139    1
   122   140   141    1
   123    80    79    2
   124    68    69    2
   125    63    64    1
   126    79    78    1
   127    64    65    2
   128    81    78    1
   129   145   147   am
   130   145   146    2
   131   147   148    1
   132    78    77    1
   133   150   149    2
   134   154   156   ar
   135   154   152   ar
   136   156   157   ar
   137   151   152    1
   138   151   148    1
   139   152   153   ar
   140   157   155   ar
   141   148   149    1
   142   153   155   ar
   143    96    95    2
   144    99    97    1
   145    97    94    1
   146    97    98    1
   147    94    95    1
   148    94    93    1
