@<TRIPOS>MOLECULE
tmp/4ls8A00.pdb
 160 151 0 0 0
SMALL
GASTEIGER

@<TRIPOS>ATOM
      1  N          5.6020   15.0360   54.2180 N.3   111  GLY111     -0.1210
      2  CA         6.9740   14.7890   54.6520 C.3   111  GLY111      0.1956
      3  C          7.1190   14.7210   56.1650 C.2   111  GLY111      0.2611
      4  O          7.8880   13.9010   56.6770 O.2   111  GLY111     -0.2717
      5  N          6.3710   15.5730   56.9000 N.am  112  ILE112     -0.1979
      6  CA         6.4590   15.6040   58.3620 C.3   112  ILE112      0.1595
      7  C          5.1110   15.6620   59.1060 C.2   112  ILE112      0.2287
      8  O          5.0830   15.5020   60.3160 O.2   112  ILE112     -0.2864
      9  CB         7.4630   16.6910   58.8450 C.3   112  ILE112      0.0276
     10  CG1        8.0590   16.3870   60.2590 C.3   112  ILE112      0.0022
     11  CG2        6.8850   18.1160   58.7460 C.3   112  ILE112      0.0022
     12  CD1        8.6180   14.8930   60.4480 C.3   112  ILE112      0.0001
     13  N          3.8080   19.0980   62.4270 N.3   115  LEU115     -0.1245
     14  CA         4.9560   19.5870   63.1990 C.3   115  LEU115      0.1561
     15  C          4.6030   20.7720   64.1010 C.2   115  LEU115      0.2260
     16  O          5.0020   20.7860   65.2640 O.2   115  LEU115     -0.2867
     17  CB         6.1660   19.8790   62.2850 C.3   115  LEU115      0.0270
     18  CG         7.4950   20.2380   62.9660 C.3   115  LEU115      0.0019
     19  CD1        7.9120   19.1640   63.9920 C.3   115  LEU115      0.0001
     20  CD2        8.5900   20.4540   61.9200 C.3   115  LEU115      0.0001
     21  N         10.2460   12.0080   52.4010 N.3   166  ALA166     -0.1231
     22  CA        10.9210   13.3010   52.4070 C.3   166  ALA166      0.1694
     23  C         10.4500   14.1460   51.2000 C.2   166  ALA166      0.2592
     24  O          9.2430   14.2130   50.9700 O.2   166  ALA166     -0.2718
     25  CB        12.4490   13.1020   52.4430 C.3   166  ALA166      0.0304
     26  N         11.3650   14.7230   50.4090 N.am  167  CYS167     -0.1970
     27  CA        10.9870   15.5340   49.2510 C.3   167  CYS167      0.1712
     28  C         10.4610   14.7670   48.0270 C.2   167  CYS167      0.2296
     29  O          9.9160   15.3760   47.1060 O.2   167  CYS167     -0.2864
     30  CB        12.0850   16.5300   48.9030 C.3   167  CYS167      0.0983
     31  SG        12.5180   17.6210   50.2840 S.3   167  CYS167     -0.0798
     32  N          2.0980   19.8790   52.7320 N.3   195  GLU195     -0.1245
     33  CA         3.1250   20.2360   53.7110 C.3   195  GLU195      0.1567
     34  C          2.8810   21.6090   54.3220 C.2   195  GLU195      0.2260
     35  O          2.5470   22.5500   53.6080 O.2   195  GLU195     -0.2867
     36  CB         4.5460   20.1630   53.1020 C.3   195  GLU195      0.0388
     37  CG         5.6450   19.9330   54.1370 C.3   195  GLU195      0.1160
     38  CD         5.8370   18.4810   54.5200 C.2   195  GLU195      0.3649
     39  OE1        6.4100   17.7400   53.6940 O.co2 195  GLU195     -0.2457
     40  OE2        5.4050   18.0720   55.6230 O.co2 195  GLU195     -0.2457
     41  N          5.5010   23.2330   56.5230 N.3   197  PRO197     -0.2116
     42  CA         6.7800   23.1210   57.2430 C.3   197  PRO197      0.1372
     43  C          7.3590   24.4280   57.7660 C.2   197  PRO197      0.2244
     44  O          8.5030   24.4420   58.2230 O.2   197  PRO197     -0.2868
     45  CB         7.6960   22.5240   56.1720 C.3   197  PRO197      0.0268
     46  CG         7.2350   23.2070   54.9160 C.3   197  PRO197      0.0207
     47  CD         5.7370   23.4970   55.0880 C.3   197  PRO197      0.0892
     48  N         10.9160   24.4730   64.5930 N.3   201  MET201     -0.1230
     49  CA        11.8440   23.3460   64.4780 C.3   201  MET201      0.1702
     50  C         12.3070   23.0810   63.0640 C.2   201  MET201      0.2593
     51  O         13.4160   22.5830   62.8700 O.2   201  MET201     -0.2718
     52  CB        11.3040   22.0590   65.1270 C.3   201  MET201      0.0401
     53  CG        11.5270   22.0040   66.6020 C.3   201  MET201      0.0596
     54  SD        13.1910   22.5450   67.1640 S.3   201  MET201     -0.1393
     55  CE        14.1660   21.0970   66.7920 C.3   201  MET201      0.0692
     56  N         11.4540   23.3830   62.0840 N.am  202  SER202     -0.1952
     57  CA        11.7900   23.1680   60.6850 C.3   202  SER202      0.1924
     58  C         12.8340   24.1780   60.2220 C.2   202  SER202      0.2314
     59  O         13.8140   23.7780   59.6000 O.2   202  SER202     -0.2863
     60  CB        10.5440   23.1790   59.8160 C.3   202  SER202      0.2116
     61  OG        10.9270   23.1240   58.4500 O.3   202  SER202     -0.2180
     62  N         16.0230   23.2320   62.2360 N.3   205  GLY205     -0.1210
     63  CA        16.5420   21.9600   61.7510 C.3   205  GLY205      0.1956
     64  C         17.2330   22.0740   60.4090 C.2   205  GLY205      0.2611
     65  O         18.3370   21.5510   60.2290 O.2   205  GLY205     -0.2717
     66  N         16.5740   22.7390   59.4470 N.am  206  PHE206     -0.1976
     67  CA        17.1630   22.9160   58.1220 C.3   206  PHE206      0.1639
     68  C         18.3320   23.9040   58.1030 C.2   206  PHE206      0.2290
     69  O         19.2360   23.7410   57.2800 O.2   206  PHE206     -0.2864
     70  CB        16.1040   23.2100   57.0520 C.3   206  PHE206      0.0560
     71  CG        15.2920   22.0070   56.6090 C.ar  206  PHE206     -0.0200
     72  CD1       15.8970   20.9440   55.9350 C.ar  206  PHE206     -0.0042
     73  CD2       13.9200   21.9520   56.8360 C.ar  206  PHE206     -0.0042
     74  CE1       15.1410   19.8390   55.5140 C.ar  206  PHE206     -0.0003
     75  CE2       13.1620   20.8560   56.4020 C.ar  206  PHE206     -0.0003
     76  CZ        13.7720   19.8140   55.7280 C.ar  206  PHE206     -0.0000
     77  N         17.9840   25.7650   49.5630 N.3   232  PHE232     -0.1241
     78  CA        16.6110   26.0060   49.1610 C.3   232  PHE232      0.1605
     79  C         15.8820   27.0450   50.0100 C.2   232  PHE232      0.2264
     80  O         16.3030   27.3690   51.1240 O.2   232  PHE232     -0.2867
     81  CB        15.8110   24.6890   49.0520 C.3   232  PHE232      0.0534
     82  CG        15.4820   23.9670   50.3430 C.ar  232  PHE232     -0.0203
     83  CD1       14.3770   24.3400   51.1120 C.ar  232  PHE232     -0.0042
     84  CD2       16.2340   22.8650   50.7570 C.ar  232  PHE232     -0.0042
     85  CE1       14.0520   23.6480   52.2810 C.ar  232  PHE232     -0.0003
     86  CE2       15.9040   22.1740   51.9310 C.ar  232  PHE232     -0.0003
     87  CZ        14.8380   22.5900   52.6970 C.ar  232  PHE232     -0.0000
     88  N         21.7940   12.2740   53.7120 N.3   273  THR273     -0.1218
     89  CA        21.3630   13.5710   53.1680 C.3   273  THR273      0.1862
     90  C         21.9780   13.9030   51.8190 C.2   273  THR273      0.2287
     91  O         21.3540   14.6140   51.0280 O.2   273  THR273     -0.2866
     92  CB        21.6580   14.7140   54.1650 C.3   273  THR273      0.1770
     93  OG1       23.0560   14.7410   54.4540 O.3   273  THR273     -0.2211
     94  CG2       20.8310   14.6160   55.4590 C.3   273  THR273      0.0375
     95  N         13.8020   18.5180   39.9310 N.3   306  HIS306     -0.1241
     96  CA        13.7830   18.6430   41.3830 C.3   306  HIS306      0.1621
     97  C         14.2960   20.0720   41.6810 C.2   306  HIS306      0.2264
     98  O         13.6070   20.8200   42.3720 O.2   306  HIS306     -0.2867
     99  CB        14.6400   17.5480   42.0420 C.3   306  HIS306      0.0745
    100  CG        14.5480   17.5370   43.5340 C.ar  306  HIS306      0.0817
    101  ND1       13.3300   17.3890   44.1850 N.ar  306  HIS306     -0.2268
    102  CD2       15.5210   17.6920   44.4590 C.ar  306  HIS306      0.1154
    103  CE1       13.6010   17.4540   45.4780 C.ar  306  HIS306      0.1986
    104  NE2       14.9050   17.6280   45.6960 N.ar  306  HIS306     -0.2212
    105  N         16.2140   22.3300   43.3710 N.3   308  THR308     -0.1218
    106  CA        15.9660   22.9910   44.6660 C.3   308  THR308      0.1862
    107  C         16.7850   24.2420   44.9560 C.2   308  THR308      0.2287
    108  O         16.4760   24.9380   45.9210 O.2   308  THR308     -0.2866
    109  CB        16.1340   21.9870   45.8260 C.3   308  THR308      0.1770
    110  OG1       17.4710   21.4900   45.8200 O.3   308  THR308     -0.2211
    111  CG2       15.1850   20.8480   45.7280 C.3   308  THR308      0.0375
    112  N         22.6370   18.9770   44.5880 N.3   313  ASN313     -0.1240
    113  CA        21.4280   18.5040   43.9130 C.3   313  ASN313      0.1653
    114  C         21.2630   18.9830   42.4750 C.2   313  ASN313      0.2266
    115  O         20.9920   18.1460   41.6090 O.2   313  ASN313     -0.2867
    116  CB        20.1490   18.7200   44.7490 C.3   313  ASN313      0.1155
    117  CG        20.1660   18.0170   46.0930 C.2   313  ASN313      0.2627
    118  OD1       20.1470   16.7900   46.1830 O.2   313  ASN313     -0.2716
    119  ND2       20.1730   18.7790   47.1720 N.am  313  ASN313     -0.0877
    120  N         10.6290   25.5230   47.8140 N.3   343  HIS343     -0.1241
    121  CA        10.6130   24.0800   47.9760 C.3   343  HIS343      0.1621
    122  C          9.5070   23.6580   48.9430 C.2   343  HIS343      0.2264
    123  O          9.5940   23.9270   50.1450 O.2   343  HIS343     -0.2867
    124  CB        11.9930   23.5780   48.4380 C.3   343  HIS343      0.0745
    125  CG        12.1920   22.1030   48.3080 C.ar  343  HIS343      0.0817
    126  ND1       11.1710   21.2610   47.8890 N.ar  343  HIS343     -0.2268
    127  CD2       13.2840   21.3590   48.5890 C.ar  343  HIS343      0.1154
    128  CE1       11.6840   20.0470   47.8890 C.ar  343  HIS343      0.1986
    129  NE2       12.9510   20.0520   48.3040 N.ar  343  HIS343     -0.2212
    130  N          8.6950   20.6550   49.8270 N.3   345  LEU345     -0.1245
    131  CA         9.0800   19.4200   50.5070 C.3   345  LEU345      0.1561
    132  C          8.1740   18.2640   50.0920 C.2   345  LEU345      0.2260
    133  O          8.2000   17.8900   48.9260 O.2   345  LEU345     -0.2867
    134  CB         9.1750   19.6240   52.0480 C.3   345  LEU345      0.0270
    135  CG        10.0590   20.8170   52.5190 C.3   345  LEU345      0.0019
    136  CD1       10.1020   20.9010   54.0190 C.3   345  LEU345      0.0001
    137  CD2       11.4940   20.7210   51.9670 C.3   345  LEU345      0.0001
    138  N         13.5440   13.8140   44.6380 N.3   400  LEU400     -0.1231
    139  CA        14.5100   13.1040   45.4470 C.3   400  LEU400      0.1693
    140  C         14.3370   13.5580   46.8950 C.2   400  LEU400      0.2593
    141  O         13.7490   14.6110   47.1490 O.2   400  LEU400     -0.2718
    142  CB        15.9550   13.2330   44.9220 C.3   400  LEU400      0.0284
    143  CG        16.6310   14.5830   44.9980 C.3   400  LEU400      0.0019
    144  CD1       17.4540   14.7210   46.2710 C.3   400  LEU400      0.0001
    145  CD2       17.4920   14.8150   43.7850 C.3   400  LEU400      0.0001
    146  N         14.8010   12.7580   47.8280 N.am  401  GLY401     -0.1942
    147  CA        14.6940   13.1200   49.2280 C.3   401  GLY401      0.2014
    148  C         15.8300   12.5720   50.0490 C.2   401  GLY401      0.2638
    149  O         16.5820   11.7150   49.5750 O.2   401  GLY401     -0.2714
    150  N         15.9360   13.0420   51.3020 N.am  402  PHE402     -0.1973
    151  CA        16.9050   12.5400   52.2850 C.3   402  PHE402      0.1639
    152  C         16.6820   11.0380   52.4070 C.2   402  PHE402      0.2290
    153  O         15.5540   10.5800   52.2220 O.2   402  PHE402     -0.2864
    154  CB        16.6750   13.1960   53.6660 C.3   402  PHE402      0.0560
    155  CG        17.1590   14.6160   53.8590 C.ar  402  PHE402     -0.0200
    156  CD1       17.9130   15.2580   52.8750 C.ar  402  PHE402     -0.0042
    157  CD2       16.9040   15.2970   55.0460 C.ar  402  PHE402     -0.0042
    158  CE1       18.4090   16.5520   53.0780 C.ar  402  PHE402     -0.0003
    159  CE2       17.3860   16.5980   55.2440 C.ar  402  PHE402     -0.0003
    160  CZ        18.1460   17.2120   54.2620 C.ar  402  PHE402     -0.0000
@<TRIPOS>BOND
     1    95    96    1
     2    96    97    1
     3    96    99    1
     4   115   114    2
     5    97    98    2
     6    99   100    1
     7   114   113    1
     8   105   106    1
     9   100   101   ar
    10   100   102   ar
    11   145   143    1
    12   113   112    1
    13   113   116    1
    14   101   103   ar
    15   102   104   ar
    16   138   139    1
    17   106   107    1
    18   106   109    1
    19   116   117    1
    20   142   143    1
    21   142   139    1
    22   107   108    2
    23   143   144    1
    24   139   140    1
    25   103   104   ar
    26   111   109    1
    27   110   109    1
    28   117   118    2
    29   117   119   am
    30   140   141    2
    31   140   146   am
    32    29    28    2
    33   120   121    1
    34   146   147    1
    35   126   128   ar
    36   126   125   ar
    37   128   129   ar
    38   121   124    1
    39   121   122    1
    40    28    27    1
    41   129   127   ar
    42   125   124    1
    43   125   127   ar
    44    30    27    1
    45    30    31    1
    46   133   132    2
    47   122   123    2
    48    81    78    1
    49    81    82    1
    50    78    77    1
    51    78    79    1
    52   147   148    1
    53    27    26    1
    54   149   148    2
    55   130   131    1
    56    79    80    2
    57   148   150   am
    58   132   131    1
    59    82    84   ar
    60    82    83   ar
    61    26    23   am
    62   131   134    1
    63    84    86   ar
    64    24    23    2
    65    91    90    2
    66    83    85   ar
    67    23    22    1
    68   150   151    1
    69    90    89    1
    70    86    87   ar
    71   137   135    1
    72   134   135    1
    73   153   152    2
    74    85    87   ar
    75   151   152    1
    76   151   154    1
    77    21    22    1
    78    22    25    1
    79   135   136    1
    80    32    33    1
    81   156   158   ar
    82   156   155   ar
    83   158   160   ar
    84    36    33    1
    85    36    37    1
    86    89    88    1
    87    89    92    1
    88    35    34    2
    89   154   155    1
    90    39    38   ar
    91    33    34    1
    92   155   157   ar
    93    37    38    1
    94    92    93    1
    95    92    94    1
    96     1     2    1
    97   160   159   ar
    98    38    40   ar
    99     2     3    1
   100    46    47    1
   101    46    45    1
   102   157   159   ar
   103    47    41    1
   104    74    76   ar
   105    74    72   ar
   106    76    75   ar
   107    72    71   ar
   108     3     4    2
   109     3     5   am
   110    45    42    1
   111    75    73   ar
   112    41    42    1
   113    71    73   ar
   114    71    70    1
   115     5     6    1
   116    70    67    1
   117    42    43    1
   118    69    68    2
   119    43    44    2
   120    68    67    1
   121    67    66    1
   122     6     9    1
   123     6     7    1
   124    61    60    1
   125    11     9    1
   126     9    10    1
   127     7     8    2
   128    66    64   am
   129    59    58    2
   130    60    57    1
   131    58    57    1
   132    65    64    2
   133    10    12    1
   134    64    63    1
   135    57    56    1
   136    63    62    1
   137    20    18    1
   138    56    50   am
   139    17    18    1
   140    17    14    1
   141    13    14    1
   142    51    50    2
   143    18    19    1
   144    50    49    1
   145    14    15    1
   146    15    16    2
   147    49    48    1
   148    49    52    1
   149    52    53    1
   150    53    54    1
   151    55    54    1
