@<TRIPOS>MOLECULE
tmp/4lsaA03.pdb
 118 108 0 0 0
SMALL
GASTEIGER

@<TRIPOS>ATOM
      1  N         63.1140   65.4180   -1.7890 N.3   154  ALA154     -0.1231
      2  CA        62.0310   66.1880   -1.1830 C.3   154  ALA154      0.1694
      3  C         61.3250   67.1300   -2.1660 C.2   154  ALA154      0.2592
      4  O         60.9920   68.2620   -1.8180 O.2   154  ALA154     -0.2718
      5  CB        62.5550   66.9690    0.0140 C.3   154  ALA154      0.0304
      6  N         61.1030   66.6550   -3.3880 N.am  155  ASN155     -0.1974
      7  CA        60.3240   67.3950   -4.3750 C.3   155  ASN155      0.1688
      8  C         58.9500   66.7480   -4.5590 C.2   155  ASN155      0.2292
      9  O         58.5610   65.8860   -3.7700 O.2   155  ASN155     -0.2864
     10  CB        61.0880   67.4850   -5.7000 C.3   155  ASN155      0.1181
     11  CG        62.0490   68.6590   -5.7360 C.2   155  ASN155      0.2629
     12  OD1       61.6780   69.7650   -6.1270 O.2   155  ASN155     -0.2716
     13  ND2       63.2900   68.4250   -5.3200 N.am  155  ASN155     -0.0877
     14  N         65.6910   61.1790   -2.8990 N.3   180  SER180     -0.1202
     15  CA        64.8320   60.7170   -1.8130 C.3   180  SER180      0.2020
     16  C         63.5850   61.5780   -1.5930 C.2   180  SER180      0.2619
     17  O         63.5440   62.7400   -1.9760 O.2   180  SER180     -0.2717
     18  CB        65.6490   60.6530   -0.5180 C.3   180  SER180      0.2103
     19  OG        64.8410   60.8760    0.6220 O.3   180  SER180     -0.2182
     20  N         62.5670   60.9900   -0.9750 N.am  181  GLY181     -0.1956
     21  CA        61.3880   61.7340   -0.5640 C.3   181  GLY181      0.1869
     22  C         60.4820   62.1900   -1.6970 C.2   181  GLY181      0.2309
     23  O         59.9340   63.2920   -1.6520 O.2   181  GLY181     -0.2863
     24  N         65.6090   56.6580   -1.0840 N.3   202  SER202     -0.1202
     25  CA        64.7310   56.3220    0.0300 C.3   202  SER202      0.2020
     26  C         63.4300   57.1180    0.0140 C.2   202  SER202      0.2619
     27  O         63.3350   58.1590   -0.6340 O.2   202  SER202     -0.2717
     28  CB        65.4500   56.5430    1.3640 C.3   202  SER202      0.2103
     29  OG        65.6920   57.9230    1.5920 O.3   202  SER202     -0.2182
     30  N         62.4350   56.6210    0.7450 N.am  203  SER203     -0.1951
     31  CA        61.1390   57.2860    0.8600 C.3   203  SER203      0.1924
     32  C         60.5270   57.5800   -0.5100 C.2   203  SER203      0.2314
     33  O         60.2700   58.7350   -0.8510 O.2   203  SER203     -0.2863
     34  CB        61.2750   58.5760    1.6700 C.3   203  SER203      0.2116
     35  OG        61.6700   58.2980    3.0020 O.3   203  SER203     -0.2180
     36  N         77.7330   54.3070    0.0170 N.3   221  HIS221     -0.1241
     37  CA        76.4860   54.6120    0.7110 C.3   221  HIS221      0.1621
     38  C         75.2890   54.1990   -0.1460 C.2   221  HIS221      0.2264
     39  O         75.0790   54.7450   -1.2290 O.2   221  HIS221     -0.2867
     40  CB        76.4230   56.1100    1.0230 C.3   221  HIS221      0.0745
     41  CG        75.1710   56.5360    1.7280 C.ar  221  HIS221      0.0817
     42  ND1       75.1640   56.9610    3.0370 N.ar  221  HIS221     -0.2268
     43  CD2       73.8890   56.6120    1.2990 C.ar  221  HIS221      0.1154
     44  CE1       73.9300   57.2810    3.3880 C.ar  221  HIS221      0.1986
     45  NE2       73.1380   57.0750    2.3530 N.ar  221  HIS221     -0.2212
     46  N         71.1600   53.6880    0.2350 N.3   223  ASP223     -0.1239
     47  CA        69.9240   53.8340    0.9910 C.3   223  ASP223      0.1674
     48  C         68.7240   53.5720    0.0820 C.2   223  ASP223      0.2266
     49  O         68.4350   54.3640   -0.8170 O.2   223  ASP223     -0.2867
     50  CB        69.8370   55.2430    1.5880 C.3   223  ASP223      0.1410
     51  CG        68.7080   55.3890    2.5960 C.2   223  ASP223      0.3668
     52  OD1       67.8320   54.5000    2.6590 O.co2 223  ASP223     -0.2456
     53  OD2       68.6960   56.4020    3.3260 O.co2 223  ASP223     -0.2456
     54  N         65.8230   52.6390    1.7700 N.3   225  SER225     -0.1202
     55  CA        64.8470   52.5260    2.8480 C.3   225  SER225      0.2020
     56  C         63.5470   53.2560    2.5290 C.2   225  SER225      0.2619
     57  O         63.5100   54.1360    1.6760 O.2   225  SER225     -0.2717
     58  CB        65.4280   53.0880    4.1470 C.3   225  SER225      0.2103
     59  OG        65.6030   54.4910    4.0590 O.3   225  SER225     -0.2182
     60  N         62.4800   52.8880    3.2270 N.am  226  GLY226     -0.1956
     61  CA        61.2090   53.5710    3.0810 C.3   226  GLY226      0.1869
     62  C         60.5570   53.3430    1.7290 C.2   226  GLY226      0.2309
     63  O         60.1270   54.2880    1.0670 O.2   226  GLY226     -0.2863
     64  N         77.6960   52.0490    4.2250 N.3   245  LEU245     -0.1245
     65  CA        76.3640   52.2070    4.7970 C.3   245  LEU245      0.1561
     66  C         75.3230   51.4940    3.9390 C.2   245  LEU245      0.2260
     67  O         75.2880   51.6630    2.7190 O.2   245  LEU245     -0.2867
     68  CB        76.0140   53.6920    4.9280 C.3   245  LEU245      0.0270
     69  CG        74.6950   54.0140    5.6410 C.3   245  LEU245      0.0019
     70  CD1       74.7900   55.3580    6.3440 C.3   245  LEU245      0.0001
     71  CD2       73.5020   54.0100    4.6820 C.3   245  LEU245      0.0001
     72  N         71.1950   51.0060    4.2370 N.3   247  ASN247     -0.1240
     73  CA        69.9160   51.2510    4.8900 C.3   247  ASN247      0.1653
     74  C         68.7800   50.6990    4.0300 C.2   247  ASN247      0.2266
     75  O         68.3830   51.3170    3.0410 O.2   247  ASN247     -0.2867
     76  CB        69.7270   52.7530    5.1320 C.3   247  ASN247      0.1155
     77  CG        68.7020   53.0550    6.2140 C.2   247  ASN247      0.2627
     78  OD1       67.8150   52.2480    6.4900 O.2   247  ASN247     -0.2716
     79  ND2       68.8260   54.2310    6.8320 N.am  247  ASN247     -0.0877
     80  N         65.9010   49.7280    5.5850 N.3   249  SER249     -0.1202
     81  CA        64.8190   49.7080    6.5620 C.3   249  SER249      0.2020
     82  C         63.4860   50.1820    5.9860 C.2   249  SER249      0.2619
     83  O         63.4450   50.8570    4.9610 O.2   249  SER249     -0.2717
     84  CB        65.1840   50.5620    7.7760 C.3   249  SER249      0.2103
     85  OG        65.3200   51.9250    7.4150 O.3   249  SER249     -0.2182
     86  N         62.4010   49.8250    6.6660 N.am  250  SER250     -0.1951
     87  CA        61.0530   50.1690    6.2250 C.3   250  SER250      0.1924
     88  C         60.8010   49.6570    4.8100 C.2   250  SER250      0.2314
     89  O         60.6620   50.4400    3.8680 O.2   250  SER250     -0.2863
     90  CB        60.8200   51.6810    6.2990 C.3   250  SER250      0.2116
     91  OG        60.8600   52.1390    7.6390 O.3   250  SER250     -0.2180
     92  N         77.6970   51.1930    8.9400 N.3   267  TYR267     -0.1241
     93  CA        76.3100   51.2690    9.3900 C.3   267  TYR267      0.1605
     94  C         75.4290   50.2830    8.6300 C.2   267  TYR267      0.2264
     95  O         75.5280   50.1530    7.4100 O.2   267  TYR267     -0.2867
     96  CB        75.7590   52.6870    9.2270 C.3   267  TYR267      0.0534
     97  CG        74.3380   52.8280    9.7260 C.ar  267  TYR267     -0.0201
     98  CD1       74.0740   53.0630   11.0690 C.ar  267  TYR267     -0.0009
     99  CD2       73.2610   52.7130    8.8570 C.ar  267  TYR267     -0.0009
    100  CE1       72.7790   53.1850   11.5310 C.ar  267  TYR267      0.0417
    101  CE2       71.9640   52.8350    9.3090 C.ar  267  TYR267      0.0417
    102  CZ        71.7280   53.0700   10.6470 C.ar  267  TYR267      0.1957
    103  OH        70.4370   53.1930   11.1050 O.3   267  TYR267     -0.2866
    104  N         71.2450   48.9310    8.6630 N.3   269  SER269     -0.1217
    105  CA        69.8790   48.9970    9.1690 C.3   269  SER269      0.1889
    106  C         68.9690   48.0430    8.4050 C.2   269  SER269      0.2288
    107  O         68.7390   48.2140    7.2080 O.2   269  SER269     -0.2866
    108  CB        69.3340   50.4220    9.0710 C.3   269  SER269      0.2089
    109  OG        68.0360   50.5050    9.6330 O.3   269  SER269     -0.2183
    110  N         62.4450   47.6420   10.6850 N.3   272  GLU272     -0.1245
    111  CA        61.0930   47.7490   10.1380 C.3   272  GLU272      0.1567
    112  C         60.9090   46.9000    8.8790 C.2   272  GLU272      0.2260
    113  O         60.5660   47.4150    7.8140 O.2   272  GLU272     -0.2867
    114  CB        60.7480   49.2120    9.8400 C.3   272  GLU272      0.0388
    115  CG        61.0560   50.1700   10.9810 C.3   272  GLU272      0.1160
    116  CD        60.4550   49.7250   12.3000 C.2   272  GLU272      0.3649
    117  OE1       59.3420   49.1560   12.2900 O.co2 272  GLU272     -0.2457
    118  OE2       61.1000   49.9400   13.3490 O.co2 272  GLU272     -0.2457
@<TRIPOS>BOND
     1    12    11    2
     2    11    10    1
     3    11    13   am
     4    10     7    1
     5     8     7    1
     6     8     9    2
     7     7     6    1
     8     6     3   am
     9    14    15    1
    10     3     4    2
    11     3     2    1
    12    17    16    2
    13    15    16    1
    14    15    18    1
    15     1     2    1
    16    22    23    2
    17    22    21    1
    18    16    20   am
    19    39    38    2
    20     2     5    1
    21    24    25    1
    22    20    21    1
    23    33    32    2
    24    49    48    2
    25    27    26    2
    26    18    19    1
    27    32    31    1
    28    38    37    1
    29    26    25    1
    30    26    30   am
    31    36    37    1
    32    25    28    1
    33    48    47    1
    34    46    47    1
    35    37    40    1
    36    30    31    1
    37    31    34    1
    38    47    50    1
    39    40    41    1
    40    63    62    2
    41    43    41   ar
    42    43    45   ar
    43    28    29    1
    44    50    51    1
    45    34    35    1
    46    57    56    2
    47    41    42   ar
    48    62    61    1
    49    54    55    1
    50    45    44   ar
    51    56    55    1
    52    56    60   am
    53    51    52   ar
    54    51    53   ar
    55    67    66    2
    56    55    58    1
    57    42    44   ar
    58    75    74    2
    59    61    60    1
    60    89    88    2
    61    66    65    1
    62    74    73    1
    63    59    58    1
    64    64    65    1
    65    72    73    1
    66    71    69    1
    67    65    68    1
    68    88    87    1
    69    73    76    1
    70    68    69    1
    71    83    82    2
    72    76    77    1
    73    80    81    1
    74    69    70    1
    75    82    81    1
    76    82    86   am
    77    77    78    2
    78    77    79   am
    79    87    90    1
    80    87    86    1
    81    90    91    1
    82    81    84    1
    83   107   106    2
    84    95    94    2
    85    85    84    1
    86   113   112    2
    87   106   105    1
    88    94    93    1
    89   104   105    1
    90    99   101   ar
    91    99    97   ar
    92   112   111    1
    93    92    93    1
    94   108   105    1
    95   108   109    1
    96    96    93    1
    97    96    97    1
    98   101   102   ar
    99    97    98   ar
   100   114   111    1
   101   114   115    1
   102   111   110    1
   103   102   103    1
   104   102   100   ar
   105   115   116    1
   106    98   100   ar
   107   117   116   ar
   108   116   118   ar
