@<TRIPOS>MOLECULE
tmp/4lseC00.pdb
 91 88 0 0 0
SMALL
GASTEIGER

@<TRIPOS>ATOM
      1  N        -28.8670   -2.4930   40.3130 N.3   164  ASP164     -0.1225
      2  CA       -29.5510   -1.2080   40.1400 C.3   164  ASP164      0.1805
      3  C        -30.0150   -0.6170   41.4450 C.2   164  ASP164      0.2598
      4  O        -30.4980    0.5100   41.4760 O.2   164  ASP164     -0.2718
      5  CB       -30.8450   -1.4100   39.3380 C.3   164  ASP164      0.1424
      6  CG       -30.5950   -1.5970   37.8780 C.2   164  ASP164      0.3668
      7  OD1      -29.5440   -1.1460   37.3730 O.co2 164  ASP164     -0.2456
      8  OD2      -31.4660   -2.2010   37.2140 O.co2 164  ASP164     -0.2456
      9  N        -29.8990   -1.4090   42.4980 N.am  165  THR165     -0.1939
     10  CA       -30.5980   -1.1680   43.7240 C.3   165  THR165      0.2028
     11  C        -29.6280   -1.4860   44.8760 C.2   165  THR165      0.2642
     12  O        -28.8410   -2.4380   44.7920 O.2   165  THR165     -0.2714
     13  CB       -31.8650   -2.0370   43.6650 C.3   165  THR165      0.1808
     14  OG1      -32.9910   -1.1970   43.4110 O.3   165  THR165     -0.2208
     15  CG2      -32.0740   -2.8650   44.8650 C.3   165  THR165      0.0379
     16  N        -29.6410   -0.6590   45.9160 N.am  166  ALA166     -0.1963
     17  CA       -28.7960   -0.9390   47.0680 C.3   166  ALA166      0.1728
     18  C        -29.2690   -2.2310   47.7390 C.2   166  ALA166      0.2616
     19  O        -28.4520   -3.0570   48.0970 O.2   166  ALA166     -0.2715
     20  CB       -28.7560    0.2170   48.0470 C.3   166  ALA166      0.0334
     21  N        -30.5860   -2.3990   47.8540 N.am  167  ARG167     -0.1977
     22  CA       -31.1930   -3.5730   48.4770 C.3   167  ARG167      0.1597
     23  C        -30.6820   -4.9500   47.9570 C.2   167  ARG167      0.2287
     24  O        -30.4880   -5.8760   48.7170 O.2   167  ARG167     -0.2864
     25  CB       -32.7260   -3.4500   48.4100 C.3   167  ARG167      0.0334
     26  CG       -33.5370   -4.7120   48.7610 C.3   167  ARG167      0.0492
     27  CD       -33.3970   -5.1900   50.2160 C.3   167  ARG167      0.2205
     28  NE       -34.0910   -6.4620   50.3650 N.pl3 167  ARG167     -0.0865
     29  CZ       -33.5310   -7.6620   50.1380 C.cat 167  ARG167      0.5346
     30  NH1      -32.2640   -7.7620   49.7660 N.pl3 167  ARG167      0.1354
     31  NH2      -34.2490   -8.7610   50.2520 N.pl3 167  ARG167      0.1354
     32  N        -22.9970    2.2240   45.8380 N.3   199  LEU199     -0.1245
     33  CA       -24.4370    2.4460   45.9500 C.3   199  LEU199      0.1561
     34  C        -24.9820    2.1780   47.3620 C.2   199  LEU199      0.2260
     35  O        -25.7700    2.9620   47.8730 O.2   199  LEU199     -0.2867
     36  CB       -25.2200    1.6580   44.9140 C.3   199  LEU199      0.0270
     37  CG       -26.7170    1.9850   44.8600 C.3   199  LEU199      0.0019
     38  CD1      -26.9800    3.4450   44.4400 C.3   199  LEU199      0.0001
     39  CD2      -27.4980    1.0180   43.9740 C.3   199  LEU199      0.0001
     40  N        -26.5960    5.1000   50.5460 N.3   203  GLN203     -0.1245
     41  CA       -27.8770    5.1540   51.2540 C.3   203  GLN203      0.1566
     42  C        -27.7740    5.8390   52.6290 C.2   203  GLN203      0.2260
     43  O        -26.7870    5.6680   53.3320 O.2   203  GLN203     -0.2867
     44  CB       -28.4840    3.7520   51.3870 C.3   203  GLN203      0.0367
     45  CG       -28.6610    3.0280   50.0670 C.3   203  GLN203      0.0905
     46  CD       -29.3360    3.8850   49.0200 C.2   203  GLN203      0.2608
     47  OE1      -30.4790    4.2990   49.1970 O.2   203  GLN203     -0.2717
     48  NE2      -28.6170    4.1830   47.9330 N.am  203  GLN203     -0.0878
     49  N        -31.4560   -5.1860   55.4620 N.3   239  PRO239     -0.2102
     50  CA       -32.0720   -4.0590   54.7890 C.3   239  PRO239      0.1504
     51  C        -33.2750   -3.5200   55.5760 C.2   239  PRO239      0.2576
     52  O        -34.0450   -4.2830   56.1380 O.2   239  PRO239     -0.2718
     53  CB       -32.5480   -4.6510   53.4550 C.3   239  PRO239      0.0282
     54  CG       -32.6390   -6.1370   53.6940 C.3   239  PRO239      0.0208
     55  CD       -31.6120   -6.4500   54.7100 C.3   239  PRO239      0.0893
     56  N        -33.4410   -2.2070   55.5650 N.am  240  ILE240     -0.1966
     57  CA       -34.5300   -1.5640   56.2730 C.3   240  ILE240      0.1727
     58  C        -35.0320   -0.3590   55.4960 C.2   240  ILE240      0.2616
     59  O        -34.2950    0.2180   54.6790 O.2   240  ILE240     -0.2715
     60  CB       -34.0750   -1.1100   57.6800 C.3   240  ILE240      0.0290
     61  CG1      -32.9250   -0.1000   57.5710 C.3   240  ILE240      0.0022
     62  CG2      -33.6260   -2.3240   58.5020 C.3   240  ILE240      0.0023
     63  CD1      -32.5300    0.6140   58.9160 C.3   240  ILE240      0.0001
     64  N        -36.2750    0.0270   55.7820 N.am  241  THR241     -0.1951
     65  CA       -36.9290    1.1550   55.1270 C.3   241  THR241      0.1897
     66  C        -37.5980    2.0400   56.1840 C.2   241  THR241      0.2313
     67  O        -38.3420    1.5370   56.9890 O.2   241  THR241     -0.2863
     68  CB       -38.0310    0.6570   54.1280 C.3   241  THR241      0.1794
     69  OG1      -37.4460   -0.2010   53.1530 O.3   241  THR241     -0.2208
     70  CG2      -38.6890    1.8220   53.3860 C.3   241  THR241      0.0378
     71  N        -34.1490    4.6440   52.8690 N.3   248  SER248     -0.1202
     72  CA       -33.7690    3.2350   52.8640 C.3   248  SER248      0.2020
     73  C        -32.2780    2.9900   53.0360 C.2   248  SER248      0.2619
     74  O        -31.4610    3.9110   52.9340 O.2   248  SER248     -0.2717
     75  CB       -34.2480    2.5600   51.5810 C.3   248  SER248      0.2103
     76  OG       -35.3790    1.7840   51.8760 O.3   248  SER248     -0.2182
     77  N        -31.9510    1.7340   53.3080 N.am  249  GLY249     -0.1942
     78  CA       -30.5960    1.2910   53.4260 C.3   249  GLY249      0.2014
     79  C        -30.5070    0.0560   54.3040 C.2   249  GLY249      0.2638
     80  O        -31.2790   -0.8910   54.1520 O.2   249  GLY249     -0.2714
     81  N        -29.5640    0.0820   55.2320 N.am  250  PHE250     -0.1973
     82  CA       -29.2860   -1.0770   56.0480 C.3   250  PHE250      0.1639
     83  C        -29.1090   -0.6510   57.5100 C.2   250  PHE250      0.2290
     84  O        -28.6070    0.4480   57.7760 O.2   250  PHE250     -0.2864
     85  CB       -28.0540   -1.8280   55.5290 C.3   250  PHE250      0.0560
     86  CG       -28.2250   -2.3870   54.1070 C.ar  250  PHE250     -0.0200
     87  CD1      -28.1420   -1.5510   52.9860 C.ar  250  PHE250     -0.0042
     88  CD2      -28.4740   -3.7530   53.9000 C.ar  250  PHE250     -0.0042
     89  CE1      -28.3230   -2.0630   51.6740 C.ar  250  PHE250     -0.0003
     90  CE2      -28.6560   -4.2560   52.5860 C.ar  250  PHE250     -0.0003
     91  CZ       -28.5580   -3.4210   51.4950 C.ar  250  PHE250     -0.0000
@<TRIPOS>BOND
     1     8     6   ar
     2     7     6   ar
     3     6     5    1
     4     5     2    1
     5     2     1    1
     6     2     3    1
     7     3     4    2
     8     3     9   am
     9     9    10    1
    10    14    13    1
    11    13    10    1
    12    13    15    1
    13    10    11    1
    14    39    37    1
    15    38    37    1
    16    12    11    2
    17    37    36    1
    18    11    16   am
    19    36    33    1
    20    32    33    1
    21    16    17    1
    22    33    34    1
    23    17    18    1
    24    17    20    1
    25    34    35    2
    26    18    21   am
    27    18    19    2
    28    21    22    1
    29    48    46   am
    30    23    22    1
    31    23    24    2
    32    25    22    1
    33    25    26    1
    34    26    27    1
    35    46    47    2
    36    46    45    1
    37    30    29    1
    38    45    44    1
    39    29    31    1
    40    29    28    2
    41    27    28    1
    42    40    41    1
    43    41    44    1
    44    41    42    1
    45    91    89   ar
    46    91    90   ar
    47    75    76    1
    48    75    72    1
    49    89    87   ar
    50    90    88   ar
    51    42    43    2
    52    72    71    1
    53    72    73    1
    54    74    73    2
    55    87    86   ar
    56    73    77   am
    57    69    68    1
    58    77    78    1
    59    70    68    1
    60    78    79    1
    61    53    54    1
    62    53    50    1
    63    54    55    1
    64    88    86   ar
    65    86    85    1
    66    68    65    1
    67    80    79    2
    68    79    81   am
    69    59    58    2
    70    55    49    1
    71    50    49    1
    72    50    51    1
    73    65    64    1
    74    65    66    1
    75    81    82    1
    76    58    64   am
    77    58    57    1
    78    85    82    1
    79    56    51   am
    80    56    57    1
    81    51    52    2
    82    82    83    1
    83    66    67    2
    84    57    60    1
    85    83    84    2
    86    61    60    1
    87    61    63    1
    88    60    62    1
