@<TRIPOS>MOLECULE
tmp/4lseB01.pdb
 81 78 0 0 0
SMALL
GASTEIGER

@<TRIPOS>ATOM
      1  N        -72.2610  -27.3020   41.7700 N.3   154  ALA154     -0.1245
      2  CA       -71.0560  -26.6350   42.2390 C.3   154  ALA154      0.1562
      3  C        -71.4390  -25.3240   42.8840 C.2   154  ALA154      0.2260
      4  O        -72.3900  -24.6810   42.4510 O.2   154  ALA154     -0.2867
      5  CB       -70.0800  -26.3770   41.0870 C.3   154  ALA154      0.0290
      6  N        -70.2590  -14.8720   45.1580 N.3   174  VAL174     -0.1231
      7  CA       -70.6530  -16.2670   45.3280 C.3   174  VAL174      0.1692
      8  C        -71.3790  -16.6570   44.0670 C.2   174  VAL174      0.2593
      9  O        -72.0690  -15.8260   43.4670 O.2   174  VAL174     -0.2718
     10  CB       -71.6410  -16.4700   46.5160 C.3   174  VAL174      0.0266
     11  CG1      -71.8130  -17.9640   46.8420 C.3   174  VAL174      0.0020
     12  CG2      -71.1720  -15.7080   47.7460 C.3   174  VAL174      0.0020
     13  N        -71.2510  -17.9160   43.6740 N.am  175  GLY175     -0.1942
     14  CA       -71.8540  -18.3860   42.4240 C.3   175  GLY175      0.2014
     15  C        -72.0420  -19.8890   42.4540 C.2   175  GLY175      0.2639
     16  O        -71.5260  -20.5750   43.3540 O.2   175  GLY175     -0.2714
     17  N        -72.8100  -20.3920   41.4960 N.am  176  GLY176     -0.1939
     18  CA       -73.0690  -21.8190   41.3800 C.3   176  GLY176      0.2014
     19  C        -73.5040  -22.2610   40.0040 C.2   176  GLY176      0.2640
     20  O        -73.7680  -21.4240   39.1230 O.2   176  GLY176     -0.2714
     21  N        -73.5510  -23.5780   39.8330 N.am  177  SER177     -0.1935
     22  CA       -73.9840  -24.2180   38.6000 C.3   177  SER177      0.2055
     23  C        -74.6210  -25.5610   38.9190 C.2   177  SER177      0.2642
     24  O        -74.4180  -26.1130   39.9890 O.2   177  SER177     -0.2714
     25  CB       -72.8150  -24.4500   37.6580 C.3   177  SER177      0.2130
     26  OG       -71.9940  -25.4840   38.1450 O.3   177  SER177     -0.2179
     27  N        -75.4100  -26.0600   37.9740 N.am  178  ILE178     -0.1977
     28  CA       -76.0250  -27.3570   38.0900 C.3   178  ILE178      0.1596
     29  C        -76.0950  -27.8670   36.6770 C.2   178  ILE178      0.2287
     30  O        -76.4230  -27.1090   35.7670 O.2   178  ILE178     -0.2864
     31  CB       -77.4500  -27.2680   38.6270 C.3   178  ILE178      0.0276
     32  CG1      -77.4660  -26.7040   40.0490 C.3   178  ILE178      0.0022
     33  CG2      -78.1150  -28.6860   38.6200 C.3   178  ILE178      0.0022
     34  CD1      -78.8830  -26.3170   40.5890 C.3   178  ILE178      0.0001
     35  N        -76.7630  -24.8450   33.7240 N.3   189  GLY189     -0.1210
     36  CA       -77.0970  -23.5040   34.0640 C.3   189  GLY189      0.1956
     37  C        -76.1900  -23.0630   35.1660 C.2   189  GLY189      0.2612
     38  O        -75.8570  -23.8290   36.0110 O.2   189  GLY189     -0.2717
     39  N        -75.8070  -21.8110   35.1310 N.am  190  ALA190     -0.1965
     40  CA       -74.8320  -21.2950   36.0890 C.3   190  ALA190      0.1728
     41  C        -75.0980  -19.8160   36.3220 C.2   190  ALA190      0.2616
     42  O        -75.4650  -19.1150   35.3830 O.2   190  ALA190     -0.2715
     43  CB       -73.4330  -21.4870   35.5430 C.3   190  ALA190      0.0334
     44  N        -74.8810  -19.3600   37.5560 N.am  191  TYR191     -0.1974
     45  CA       -75.1120  -17.9880   37.9500 C.3   191  TYR191      0.1639
     46  C        -74.1020  -17.5320   38.9930 C.2   191  TYR191      0.2290
     47  O        -73.7980  -18.2590   39.9480 O.2   191  TYR191     -0.2864
     48  CB       -76.5260  -17.8300   38.5300 C.3   191  TYR191      0.0560
     49  CG       -76.7900  -16.4620   39.1160 C.ar  191  TYR191     -0.0198
     50  CD1      -77.2470  -15.4280   38.3080 C.ar  191  TYR191     -0.0009
     51  CD2      -76.5820  -16.1930   40.4720 C.ar  191  TYR191     -0.0009
     52  CE1      -77.5010  -14.1670   38.8160 C.ar  191  TYR191      0.0417
     53  CE2      -76.8420  -14.8980   41.0070 C.ar  191  TYR191      0.0417
     54  CZ       -77.2960  -13.8940   40.1510 C.ar  191  TYR191      0.1957
     55  OH       -77.5440  -12.6120   40.5790 O.3   191  TYR191     -0.2866
     56  N        -72.7510  -13.7610   41.3190 N.3   193  ALA193     -0.1245
     57  CA       -72.8390  -12.3290   41.5470 C.3   193  ALA193      0.1562
     58  C        -71.7720  -11.9220   42.5260 C.2   193  ALA193      0.2260
     59  O        -71.4340  -12.6840   43.4230 O.2   193  ALA193     -0.2867
     60  CB       -74.2240  -11.9490   42.0580 C.3   193  ALA193      0.0290
     61  N        -74.8110  -14.8450   34.1900 N.3   214  TRP214     -0.1241
     62  CA       -75.4390  -16.1450   34.0720 C.3   214  TRP214      0.1605
     63  C        -75.4530  -16.6440   32.6500 C.2   214  TRP214      0.2264
     64  O        -75.4050  -15.8570   31.6850 O.2   214  TRP214     -0.2867
     65  CB       -76.8510  -16.1730   34.6680 C.3   214  TRP214      0.0550
     66  CG       -77.8990  -15.3130   34.0200 C.ar  214  TRP214      0.0003
     67  CD1      -78.2900  -14.0570   34.4120 C.ar  214  TRP214      0.0946
     68  CD2      -78.7470  -15.6650   32.9160 C.ar  214  TRP214      0.0152
     69  NE1      -79.3000  -13.6030   33.6110 N.ar  214  TRP214     -0.2442
     70  CE2      -79.6040  -14.5670   32.6820 C.ar  214  TRP214      0.0810
     71  CE3      -78.8570  -16.7940   32.0910 C.ar  214  TRP214      0.0012
     72  CZ2      -80.5630  -14.5640   31.6450 C.ar  214  TRP214      0.0191
     73  CZ3      -79.8110  -16.7930   31.0570 C.ar  214  TRP214      0.0001
     74  CH2      -80.6510  -15.6770   30.8490 C.ar  214  TRP214      0.0015
     75  N        -76.7900  -20.4790   30.4190 N.3   216  THR216     -0.1218
     76  CA       -77.3670  -21.8090   30.3510 C.3   216  THR216      0.1862
     77  C        -76.8040  -22.4550   29.0870 C.2   216  THR216      0.2287
     78  O        -76.5190  -21.7560   28.0870 O.2   216  THR216     -0.2866
     79  CB       -78.9220  -21.7650   30.2240 C.3   216  THR216      0.1770
     80  OG1      -79.2680  -21.1290   28.9980 O.3   216  THR216     -0.2211
     81  CG2      -79.5390  -20.9890   31.3330 C.3   216  THR216      0.0375
@<TRIPOS>BOND
     1    78    77    2
     2    80    79    1
     3    77    76    1
     4    79    76    1
     5    79    81    1
     6    76    75    1
     7    74    73   ar
     8    74    72   ar
     9    73    71   ar
    10    72    70   ar
    11    64    63    2
    12    71    68   ar
    13    63    62    1
    14    70    68   ar
    15    70    69   ar
    16    68    66   ar
    17    69    67   ar
    18    35    36    1
    19    66    67   ar
    20    66    65    1
    21    36    37    1
    22    62    61    1
    23    62    65    1
    24    39    37   am
    25    39    40    1
    26    37    38    2
    27    42    41    2
    28    43    40    1
    29    30    29    2
    30    40    41    1
    31    41    44   am
    32    29    28    1
    33    44    45    1
    34    25    26    1
    35    25    22    1
    36    45    48    1
    37    45    46    1
    38    27    28    1
    39    27    23   am
    40    28    31    1
    41    50    52   ar
    42    50    49   ar
    43    48    49    1
    44    22    23    1
    45    22    21    1
    46    33    31    1
    47    31    32    1
    48    52    54   ar
    49    23    24    2
    50    46    47    2
    51    49    51   ar
    52    20    19    2
    53    21    19   am
    54    19    18    1
    55    32    34    1
    56    54    55    1
    57    54    53   ar
    58    51    53   ar
    59     5     2    1
    60    56    57    1
    61    18    17    1
    62    17    15   am
    63    57    60    1
    64    57    58    1
    65     1     2    1
    66     2     3    1
    67    14    15    1
    68    14    13    1
    69     4     3    2
    70    15    16    2
    71    58    59    2
    72     9     8    2
    73    13     8   am
    74     8     7    1
    75     6     7    1
    76     7    10    1
    77    10    11    1
    78    10    12    1
