@<TRIPOS>MOLECULE
tmp/4lsiC02.pdb
 124 118 0 0 0
SMALL
GASTEIGER

@<TRIPOS>ATOM
      1  N         17.4170    4.9150    8.4210 N.3    94  ARG94      -0.1245
      2  CA        18.1120    6.0790    8.9850 C.3    94  ARG94       0.1563
      3  C         18.2610    7.1860    7.9530 C.2    94  ARG94       0.2260
      4  O         18.8730    6.9790    6.9230 O.2    94  ARG94      -0.2867
      5  CB        19.4670    5.6920    9.6830 C.3    94  ARG94       0.0307
      6  CG        20.0540    6.8660   10.4650 C.3    94  ARG94       0.0489
      7  CD        21.4690    6.7380   10.9950 C.3    94  ARG94       0.2205
      8  NE        21.8480    8.0360   11.5370 N.pl3  94  ARG94      -0.0865
      9  CZ        21.4170    8.4760   12.7070 C.cat  94  ARG94       0.5346
     10  NH1       20.6620    7.7440   13.4420 N.pl3  94  ARG94       0.1354
     11  NH2       21.7270    9.6630   13.1280 N.pl3  94  ARG94       0.1354
     12  N         20.0920   12.7580   15.8330 N.3   120  ASP120     -0.1225
     13  CA        19.3200   11.9920   16.8220 C.3   120  ASP120      0.1805
     14  C         18.5350   12.9650   17.7140 C.2   120  ASP120      0.2598
     15  O         18.5370   12.8500   18.9680 O.2   120  ASP120     -0.2718
     16  CB        20.2180   11.0120   17.6120 C.3   120  ASP120      0.1424
     17  CG        21.1220   10.1260   16.6720 C.2   120  ASP120      0.3668
     18  OD1       20.6040    9.2870   15.9020 O.co2 120  ASP120     -0.2456
     19  OD2       22.3590   10.3020   16.7090 O.co2 120  ASP120     -0.2456
     20  N         17.8300   13.8900   17.0430 N.am  121  ASP121     -0.1960
     21  CA        17.1020   14.9710   17.6920 C.3   121  ASP121      0.1840
     22  C         15.7750   15.2280   16.9700 C.2   121  ASP121      0.2622
     23  O         15.5540   16.2370   16.3690 O.2   121  ASP121     -0.2715
     24  CB        17.9380   16.2140   17.7850 C.3   121  ASP121      0.1450
     25  CG        17.2740   17.2970   18.5830 C.2   121  ASP121      0.3671
     26  OD1       16.4670   16.9150   19.4770 O.co2 121  ASP121     -0.2456
     27  OD2       17.4810   18.5190   18.2900 O.co2 121  ASP121     -0.2456
     28  N         14.9160   14.2320   17.0390 N.am  122  PHE122     -0.1974
     29  CA        13.5720   14.2360   16.4760 C.3   122  PHE122      0.1639
     30  C         13.6400   14.5340   14.9360 C.2   122  PHE122      0.2290
     31  O         14.1050   13.6860   14.1690 O.2   122  PHE122     -0.2864
     32  CB        12.6350   15.1330   17.3010 C.3   122  PHE122      0.0560
     33  CG        12.5300   14.6990   18.7550 C.ar  122  PHE122     -0.0200
     34  CD1       11.6410   13.7050   19.1390 C.ar  122  PHE122     -0.0042
     35  CD2       13.3320   15.2840   19.7360 C.ar  122  PHE122     -0.0042
     36  CE1       11.5250   13.3280   20.4840 C.ar  122  PHE122     -0.0003
     37  CE2       13.2200   14.9130   21.0840 C.ar  122  PHE122     -0.0003
     38  CZ        12.3300   13.9260   21.4590 C.ar  122  PHE122     -0.0000
     39  N         18.4230   10.7760   11.7570 N.3   127  VAL127     -0.1231
     40  CA        18.0290    9.9420   12.8890 C.3   127  VAL127      0.1692
     41  C         17.7250    8.5060   12.4700 C.2   127  VAL127      0.2592
     42  O         18.0320    8.0940   11.3510 O.2   127  VAL127     -0.2718
     43  CB        16.8020   10.5230   13.6170 C.3   127  VAL127      0.0266
     44  CG1       17.2220   11.6530   14.5430 C.3   127  VAL127      0.0020
     45  CG2       15.7680   11.0040   12.6110 C.3   127  VAL127      0.0020
     46  N         17.1190    7.7490   13.3810 N.am  128  GLY128     -0.1957
     47  CA        16.7740    6.3340   13.1230 C.3   128  GLY128      0.1869
     48  C         15.2650    6.1190   13.0640 C.2   128  GLY128      0.2309
     49  O         14.5150    6.7820   13.7980 O.2   128  GLY128     -0.2863
     50  N         12.4390    5.4220   19.5110 N.3   155  ASN155     -0.1240
     51  CA        13.7320    4.7960   19.8030 C.3   155  ASN155      0.1653
     52  C         14.1120    5.0150   21.2980 C.2   155  ASN155      0.2266
     53  O         14.6460    6.0700   21.6450 O.2   155  ASN155     -0.2867
     54  CB        14.8470    5.4260   18.9620 C.3   155  ASN155      0.1155
     55  CG        14.6670    5.1670   17.4690 C.2   155  ASN155      0.2627
     56  OD1       14.6670    4.0170   17.0330 O.2   155  ASN155     -0.2716
     57  ND2       14.5870    6.2410   16.6860 N.am  155  ASN155     -0.0877
     58  N         16.4650    4.6240   23.6260 N.3   157  ARG157     -0.1245
     59  CA        17.8740    4.3560   23.7570 C.3   157  ARG157      0.1563
     60  C         18.3580    4.4910   25.2370 C.2   157  ARG157      0.2260
     61  O         17.5930    4.8910   26.1540 O.2   157  ARG157     -0.2867
     62  CB        18.5770    5.3640   22.8510 C.3   157  ARG157      0.0307
     63  CG        18.0430    5.2920   21.4390 C.3   157  ARG157      0.0489
     64  CD        19.1560    5.6360   20.4720 C.3   157  ARG157      0.2205
     65  NE        18.7210    5.8430   19.0810 N.pl3 157  ARG157     -0.0865
     66  CZ        18.6260    4.8890   18.1770 C.cat 157  ARG157      0.5346
     67  NH1       18.8400    3.6280   18.5090 N.pl3 157  ARG157      0.1354
     68  NH2       18.3090    5.1990   16.8970 N.pl3 157  ARG157      0.1354
     69  N         19.5330   11.9560   25.5130 N.3   161  ARG161     -0.1231
     70  CA        19.9580   12.7930   24.3840 C.3   161  ARG161      0.1694
     71  C         19.6350   12.1390   22.9700 C.2   161  ARG161      0.2592
     72  O         19.2750   12.8180   22.0680 O.2   161  ARG161     -0.2718
     73  CB        21.4720   13.1010   24.5760 C.3   161  ARG161      0.0321
     74  CG        22.2500   13.4840   23.2800 C.3   161  ARG161      0.0489
     75  CD        21.8790   14.8710   22.8110 C.3   161  ARG161      0.2205
     76  NE        22.5510   15.2140   21.5540 N.pl3 161  ARG161     -0.0865
     77  CZ        22.1000   14.8890   20.3270 C.cat 161  ARG161      0.5346
     78  NH1       20.9740   14.1690   20.1700 N.pl3 161  ARG161      0.1354
     79  NH2       22.7850   15.2940   19.2510 N.pl3 161  ARG161      0.1354
     80  N         19.7280   10.8160   22.8700 N.am  162  ARG162     -0.1966
     81  CA        19.6570   10.0540   21.6060 C.3   162  ARG162      0.1729
     82  C         18.3290    9.3280   21.4270 C.2   162  ARG162      0.2617
     83  O         18.1660    8.6430   20.4250 O.2   162  ARG162     -0.2715
     84  CB        20.7940    9.0110   21.4990 C.3   162  ARG162      0.0348
     85  CG        22.2030    9.5870   21.6680 C.3   162  ARG162      0.0492
     86  CD        22.5380   10.5250   20.4800 C.3   162  ARG162      0.2205
     87  NE        23.7580   11.2820   20.6450 N.pl3 162  ARG162     -0.0865
     88  CZ        24.3970   11.9260   19.6620 C.cat 162  ARG162      0.5346
     89  NH1       23.9700   11.8820   18.4050 N.pl3 162  ARG162      0.1354
     90  NH2       25.5110   12.6070   19.9330 N.pl3 162  ARG162      0.1354
     91  N         17.4150    9.4950   22.4010 N.am  163  SER163     -0.1936
     92  CA        16.0980    8.9440   22.4050 C.3   163  SER163      0.2055
     93  C         14.9960    9.7850   21.7790 C.2   163  SER163      0.2643
     94  O         15.1450   10.9410   21.5670 O.2   163  SER163     -0.2714
     95  CB        15.6890    8.5860   23.8540 C.3   163  SER163      0.2130
     96  OG        16.6130    7.6620   24.3350 O.3   163  SER163     -0.2179
     97  N         13.8810    9.1210   21.4650 N.am  164  ASN164     -0.1971
     98  CA        12.6580    9.7510   21.0220 C.3   164  ASN164      0.1688
     99  C         11.4920    8.8390   21.1650 C.2   164  ASN164      0.2292
    100  O         11.6470    7.6420   21.1230 O.2   164  ASN164     -0.2864
    101  CB        12.7240   10.2180   19.5500 C.3   164  ASN164      0.1181
    102  CG        12.9280    9.0900   18.5750 C.2   164  ASN164      0.2629
    103  OD1       14.0670    8.7850   18.2190 O.2   164  ASN164     -0.2716
    104  ND2       11.8420    8.4510   18.1460 N.am  164  ASN164     -0.0877
    105  N         13.6950   10.8950   29.0200 N.3   194  GLN194     -0.1245
    106  CA        13.8580   12.3290   28.7260 C.3   194  GLN194      0.1566
    107  C         13.1720   13.1530   29.8310 C.2   194  GLN194      0.2260
    108  O         13.7100   14.1620   30.3030 O.2   194  GLN194     -0.2867
    109  CB        13.3210   12.7020   27.3160 C.3   194  GLN194      0.0367
    110  CG        14.0090   11.8770   26.2110 C.3   194  GLN194      0.0905
    111  CD        13.5660   12.1990   24.7860 C.2   194  GLN194      0.2608
    112  OE1       12.3770   12.1270   24.4510 O.2   194  GLN194     -0.2717
    113  NE2       14.5450   12.4820   23.9100 N.am  194  GLN194     -0.0878
    114  N         17.0410   18.9650   27.8860 N.3   244  PHE244     -0.1241
    115  CA        16.4770   19.7470   26.7760 C.3   244  PHE244      0.1605
    116  C         15.9490   21.1260   27.1970 C.2   244  PHE244      0.2264
    117  O         15.3460   21.2890   28.2860 O.2   244  PHE244     -0.2867
    118  CB        15.3560   18.9320   26.0810 C.3   244  PHE244      0.0534
    119  CG        15.8450   17.6380   25.4900 C.ar  244  PHE244     -0.0203
    120  CD1       16.0050   16.4930   26.2970 C.ar  244  PHE244     -0.0042
    121  CD2       16.1790   17.5630   24.1350 C.ar  244  PHE244     -0.0042
    122  CE1       16.5010   15.3090   25.7520 C.ar  244  PHE244     -0.0003
    123  CE2       16.6650   16.3720   23.5810 C.ar  244  PHE244     -0.0003
    124  CZ        16.8240   15.2510   24.3790 C.ar  244  PHE244     -0.0000
@<TRIPOS>BOND
     1     4     3    2
     2     3     2    1
     3     1     2    1
     4     2     5    1
     5     5     6    1
     6     6     7    1
     7     7     8    1
     8    42    41    2
     9     8     9    2
    10    39    40    1
    11    41    40    1
    12    41    46   am
    13    45    43    1
    14     9    11    1
    15     9    10    1
    16    40    43    1
    17    48    47    1
    18    48    49    2
    19    47    46    1
    20    43    44    1
    21    31    30    2
    22    30    29    1
    23    12    13    1
    24    18    17   ar
    25    23    22    2
    26    29    28    1
    27    29    32    1
    28    17    19   ar
    29    17    16    1
    30    57    55   am
    31    13    16    1
    32    13    14    1
    33    68    66    1
    34    22    28   am
    35    22    21    1
    36    56    55    2
    37    20    21    1
    38    20    14   am
    39    32    33    1
    40    55    54    1
    41    21    24    1
    42    14    15    2
    43    24    25    1
    44   104   102   am
    45    66    67    1
    46    66    65    2
    47   103   102    2
    48    27    25   ar
    49    89    88    1
    50   102   101    1
    51    25    26   ar
    52    33    34   ar
    53    33    35   ar
    54    54    51    1
    55    65    64    1
    56    34    36   ar
    57    79    77    1
    58    50    51    1
    59   101    98    1
    60    88    90    1
    61    88    87    2
    62    35    37   ar
    63    51    52    1
    64    78    77    1
    65    77    76    2
    66    83    82    2
    67    64    63    1
    68    86    87    1
    69    86    85    1
    70    36    38   ar
    71    98    99    1
    72    98    97    1
    73    37    38   ar
    74   100    99    2
    75    52    53    2
    76    82    81    1
    77    82    91   am
    78    63    62    1
    79    97    93   am
    80    84    81    1
    81    84    85    1
    82    76    75    1
    83    94    93    2
    84    81    80    1
    85    93    92    1
    86    72    71    2
    87    91    92    1
    88    92    95    1
    89    75    74    1
    90    62    59    1
    91    80    71   am
    92    71    70    1
    93    74    73    1
    94   123   121   ar
    95   123   124   ar
    96    58    59    1
    97    59    60    1
    98    95    96    1
    99   113   111   am
   100   121   119   ar
   101   124   122   ar
   102    70    73    1
   103    70    69    1
   104   112   111    2
   105   111   110    1
   106    60    61    2
   107   119   118    1
   108   119   120   ar
   109   122   120   ar
   110   118   115    1
   111   110   109    1
   112   115   116    1
   113   115   114    1
   114   116   117    2
   115   109   106    1
   116   106   105    1
   117   106   107    1
   118   107   108    2
