@<TRIPOS>MOLECULE
tmp/4lsiA02.pdb
 91 88 0 0 0
SMALL
GASTEIGER

@<TRIPOS>ATOM
      1  N         16.0210  -33.0250   -6.1990 N.3   179  PHE179     -0.1241
      2  CA        16.1010  -33.4090   -4.7830 C.3   179  PHE179      0.1605
      3  C         17.5240  -33.2790   -4.2650 C.2   179  PHE179      0.2264
      4  O         18.5030  -33.2930   -5.0340 O.2   179  PHE179     -0.2867
      5  CB        15.6380  -34.8410   -4.5460 C.3   179  PHE179      0.0534
      6  CG        14.2180  -35.1020   -4.9610 C.ar  179  PHE179     -0.0203
      7  CD1       13.9020  -35.3610   -6.3030 C.ar  179  PHE179     -0.0042
      8  CD2       13.1930  -35.0750   -4.0120 C.ar  179  PHE179     -0.0042
      9  CE1       12.5890  -35.6010   -6.6670 C.ar  179  PHE179     -0.0003
     10  CE2       11.8800  -35.3220   -4.3830 C.ar  179  PHE179     -0.0003
     11  CZ        11.5750  -35.5660   -5.7160 C.ar  179  PHE179     -0.0000
     12  N         16.8110  -32.7270    4.0240 N.3   212  LEU212     -0.1231
     13  CA        16.0990  -33.1610    2.8110 C.3   212  LEU212      0.1693
     14  C         15.4730  -31.9890    2.0210 C.2   212  LEU212      0.2592
     15  O         14.8590  -31.1180    2.6130 O.2   212  LEU212     -0.2718
     16  CB        14.9880  -34.1210    3.2570 C.3   212  LEU212      0.0284
     17  CG        15.3880  -35.5670    3.4940 C.3   212  LEU212      0.0019
     18  CD1       16.2680  -35.7330    4.7410 C.3   212  LEU212      0.0001
     19  CD2       14.1200  -36.4350    3.5860 C.3   212  LEU212      0.0001
     20  N         15.6210  -31.9310    0.6980 N.am  213  LYS213     -0.1966
     21  CA        15.0260  -30.7770   -0.0210 C.3   213  LYS213      0.1728
     22  C         14.5520  -31.0980   -1.4370 C.2   213  LYS213      0.2616
     23  O         15.0900  -31.9790   -2.1110 O.2   213  LYS213     -0.2715
     24  CB        15.9760  -29.5630   -0.0680 C.3   213  LYS213      0.0311
     25  CG        16.9990  -29.5920   -1.2040 C.3   213  LYS213      0.0038
     26  CD        17.9600  -28.3950   -1.2020 C.3   213  LYS213      0.0206
     27  CE        19.0690  -28.5520   -2.2300 C.3   213  LYS213      0.1093
     28  NZ        19.3030  -27.3560   -3.0930 N.3   213  LYS213     -0.1314
     29  N         13.5520  -30.3450   -1.8820 N.am  214  TYR214     -0.1974
     30  CA        13.1570  -30.3300   -3.2940 C.3   214  TYR214      0.1639
     31  C         13.1480  -28.9060   -3.7720 C.2   214  TYR214      0.2290
     32  O         12.6010  -28.0170   -3.1140 O.2   214  TYR214     -0.2864
     33  CB        11.8000  -30.9930   -3.4990 C.3   214  TYR214      0.0560
     34  CG        11.3650  -31.0100   -4.9250 C.ar  214  TYR214     -0.0198
     35  CD1       11.8110  -31.9960   -5.8130 C.ar  214  TYR214     -0.0009
     36  CD2       10.5070  -30.0270   -5.4100 C.ar  214  TYR214     -0.0009
     37  CE1       11.4070  -31.9820   -7.1510 C.ar  214  TYR214      0.0417
     38  CE2       10.0930  -30.0160   -6.7200 C.ar  214  TYR214      0.0417
     39  CZ        10.5400  -30.9830   -7.5840 C.ar  214  TYR214      0.1957
     40  OH        10.1130  -30.8940   -8.8830 O.3   214  TYR214     -0.2866
     41  N         10.8950  -27.0590   -1.0830 N.3   221  LEU221     -0.1231
     42  CA        10.5080  -27.8230    0.1170 C.3   221  LEU221      0.1693
     43  C         11.7610  -28.3230    0.7950 C.2   221  LEU221      0.2592
     44  O         12.6510  -28.8660    0.1290 O.2   221  LEU221     -0.2718
     45  CB         9.6650  -29.0160   -0.2500 C.3   221  LEU221      0.0284
     46  CG         8.4040  -28.6560   -1.0010 C.3   221  LEU221      0.0019
     47  CD1        7.8620  -29.9320   -1.5600 C.3   221  LEU221      0.0001
     48  CD2        7.3950  -27.9980   -0.0640 C.3   221  LEU221      0.0001
     49  N         11.8220  -28.1860    2.1230 N.am  222  ALA222     -0.1966
     50  CA        13.0240  -28.5840    2.8030 C.3   222  ALA222      0.1728
     51  C         12.7420  -28.9300    4.2010 C.2   222  ALA222      0.2616
     52  O         11.8410  -28.3600    4.8320 O.2   222  ALA222     -0.2715
     53  CB        14.0830  -27.4750    2.7280 C.3   222  ALA222      0.0334
     54  N         13.5040  -29.8820    4.7030 N.am  223  ALA223     -0.1977
     55  CA        13.4360  -30.1620    6.1290 C.3   223  ALA223      0.1597
     56  C         14.8010  -30.5090    6.6450 C.2   223  ALA223      0.2287
     57  O         15.5680  -31.1600    5.9300 O.2   223  ALA223     -0.2864
     58  CB        12.4790  -31.3280    6.3660 C.3   223  ALA223      0.0319
     59  N         11.2120  -27.0090    9.1460 N.3   253  LEU253     -0.1231
     60  CA        10.5000  -27.3480    7.9100 C.3   253  LEU253      0.1693
     61  C         10.1590  -26.0800    7.1930 C.2   253  LEU253      0.2592
     62  O          9.8340  -25.0570    7.8240 O.2   253  LEU253     -0.2718
     63  CB         9.2060  -28.0720    8.1880 C.3   253  LEU253      0.0284
     64  CG         9.2640  -29.2470    9.1760 C.3   253  LEU253      0.0019
     65  CD1        7.8490  -29.7960    9.2750 C.3   253  LEU253      0.0001
     66  CD2       10.2080  -30.3780    8.7310 C.3   253  LEU253      0.0001
     67  N         10.2530  -26.1420    5.8740 N.am  254  VAL254     -0.1966
     68  CA        10.0160  -24.9840    5.0630 C.3   254  VAL254      0.1727
     69  C          9.3180  -25.3560    3.7700 C.2   254  VAL254      0.2616
     70  O          9.7060  -26.3030    3.1050 O.2   254  VAL254     -0.2715
     71  CB        11.3440  -24.2250    4.7030 C.3   254  VAL254      0.0290
     72  CG1       11.0120  -23.1060    3.7550 C.3   254  VAL254      0.0023
     73  CG2       12.0440  -23.6870    5.9630 C.3   254  VAL254      0.0023
     74  N          8.3000  -24.5700    3.4150 N.am  255  ALA255     -0.1977
     75  CA         7.6810  -24.6540    2.1130 C.3   255  ALA255      0.1597
     76  C          7.4500  -23.2620    1.5290 C.2   255  ALA255      0.2287
     77  O          6.8670  -22.3700    2.1770 O.2   255  ALA255     -0.2864
     78  CB         6.3610  -25.4670    2.1750 C.3   255  ALA255      0.0319
     79  N          5.9570  -20.6980    4.1280 N.3   267  ILE267     -0.1231
     80  CA         5.3630  -21.3290    5.2520 C.3   267  ILE267      0.1692
     81  C          6.4430  -22.1730    5.9850 C.2   267  ILE267      0.2591
     82  O          7.2230  -22.8620    5.3380 O.2   267  ILE267     -0.2718
     83  CB         4.1440  -22.0800    4.6250 C.3   267  ILE267      0.0266
     84  CG1        2.9240  -21.1380    4.6130 C.3   267  ILE267      0.0019
     85  CG2        3.9100  -23.4750    5.1470 C.3   267  ILE267      0.0020
     86  CD1        2.6470  -20.5080    5.9330 C.3   267  ILE267      0.0001
     87  N          6.4890  -22.1340    7.3190 N.am  268  ALA268     -0.1980
     88  CA         7.5300  -22.8460    8.0400 C.3   268  ALA268      0.1597
     89  C          7.1510  -23.2750    9.4470 C.2   268  ALA268      0.2287
     90  O          6.1690  -22.8140   10.0440 O.2   268  ALA268     -0.2864
     91  CB         8.7860  -21.9650    8.1520 C.3   268  ALA268      0.0319
@<TRIPOS>BOND
     1    40    39    1
     2    39    37   ar
     3    39    38   ar
     4    37    35   ar
     5    38    36   ar
     6     9     7   ar
     7     9    11   ar
     8     7     6   ar
     9     1     2    1
    10    35    34   ar
    11    11    10   ar
    12    36    34   ar
    13     4     3    2
    14     6     5    1
    15     6     8   ar
    16    34    33    1
    17     2     5    1
    18     2     3    1
    19    10     8   ar
    20    31    30    1
    21    31    32    2
    22    33    30    1
    23    30    29    1
    24    28    27    1
    25    27    26    1
    26    23    22    2
    27    29    22   am
    28    47    46    1
    29    22    21    1
    30    25    26    1
    31    25    24    1
    32    41    42    1
    33    46    45    1
    34    46    48    1
    35    45    42    1
    36    24    21    1
    37    21    20    1
    38    42    43    1
    39    44    43    2
    40    20    14   am
    41    43    49   am
    42    76    75    1
    43    76    77    2
    44    14    15    2
    45    14    13    1
    46    75    78    1
    47    75    74    1
    48    49    50    1
    49    53    50    1
    50    50    51    1
    51    13    16    1
    52    13    12    1
    53    70    69    2
    54    16    17    1
    55    74    69   am
    56    17    19    1
    57    17    18    1
    58    72    71    1
    59    69    68    1
    60    79    80    1
    61    51    54   am
    62    51    52    2
    63    84    83    1
    64    84    86    1
    65    83    85    1
    66    83    80    1
    67    54    55    1
    68    71    68    1
    69    71    73    1
    70    68    67    1
    71    80    81    1
    72    82    81    2
    73    67    61   am
    74    57    56    2
    75    81    87   am
    76    55    58    1
    77    55    56    1
    78    61    62    2
    79    61    60    1
    80    87    88    1
    81    60    63    1
    82    60    59    1
    83    88    91    1
    84    88    89    1
    85    63    64    1
    86    66    64    1
    87    64    65    1
    88    89    90    2
