@<TRIPOS>MOLECULE
tmp/4lsiB02.pdb
 84 80 0 0 0
SMALL
GASTEIGER

@<TRIPOS>ATOM
      1  N         60.4070    6.9240    5.7750 N.3   101  ASP101     -0.1239
      2  CA        61.1080    7.0110    4.4840 C.3   101  ASP101      0.1674
      3  C         62.3960    6.2040    4.5170 C.2   101  ASP101      0.2266
      4  O         62.8590    5.6690    3.4880 O.2   101  ASP101     -0.2867
      5  CB        61.4400    8.4910    4.1590 C.3   101  ASP101      0.1410
      6  CG        60.2210    9.2850    3.7410 C.2   101  ASP101      0.3668
      7  OD1       59.0650    8.7500    3.8160 O.co2 101  ASP101     -0.2456
      8  OD2       60.3910   10.4560    3.3530 O.co2 101  ASP101     -0.2456
      9  N         56.7280   16.8270   -0.0820 N.3   134  ARG134     -0.1182
     10  CA        57.6430   15.8910   -0.7370 C.3   134  ARG134      0.1910
     11  C         58.1530   16.3990   -2.0920 C.2   134  ARG134      0.2634
     12  O         57.3820   16.9500   -2.8590 O.2   134  ARG134     -0.2714
     13  CB        57.0290   14.4780   -0.9470 C.2   134  ARG134      0.0007
     14  CG        56.7360   13.6960    0.3180 C.2   134  ARG134      0.0176
     15  CD        56.1380   12.3330    0.1010 C.3   134  ARG134      0.2464
     16  NE        56.0580   11.6590    1.3950 N.pl3 134  ARG134     -0.0815
     17  CZ        57.1050   11.1600    2.0490 C.cat 134  ARG134      0.5349
     18  NH1       58.3290   11.2000    1.5280 N.pl3 134  ARG134      0.1354
     19  NH2       56.9300   10.6040    3.2180 N.pl3 134  ARG134      0.1354
     20  N         59.4410   16.1620   -2.3800 N.am  135  ASN135     -0.1958
     21  CA        60.0440   16.6530   -3.6540 C.3   135  ASN135      0.1819
     22  C         60.8050   15.5340   -4.3540 C.2   135  ASN135      0.2622
     23  O         61.6550   14.8910   -3.6990 O.2   135  ASN135     -0.2715
     24  CB        61.0530   17.8120   -3.3590 C.3   135  ASN135      0.1195
     25  CG        61.6030   18.4400   -4.6400 C.2   135  ASN135      0.2630
     26  OD1       62.2990   17.7990   -5.4270 O.2   135  ASN135     -0.2716
     27  ND2       61.2250   19.6710   -4.8820 N.am  135  ASN135     -0.0877
     28  N         60.5800   15.3880   -5.6680 N.am  136  SER136     -0.1950
     29  CA        61.2700   14.4070   -6.5190 C.3   136  SER136      0.1924
     30  C         62.2580   15.0570   -7.4360 C.2   136  SER136      0.2314
     31  O         61.9670   16.0720   -8.0850 O.2   136  SER136     -0.2863
     32  CB        60.2820   13.5850   -7.4040 C.3   136  SER136      0.2116
     33  OG        59.5690   12.7100   -6.5790 O.3   136  SER136     -0.2180
     34  N         65.8490   13.1470   -3.8670 N.3   146  ASN146     -0.1225
     35  CA        64.5060   13.3790   -3.3590 C.3   146  ASN146      0.1785
     36  C         64.6010   13.8510   -1.9100 C.2   146  ASN146      0.2597
     37  O         65.5400   13.5190   -1.2090 O.2   146  ASN146     -0.2718
     38  CB        63.6870   12.0780   -3.3440 C.3   146  ASN146      0.1169
     39  CG        63.3440   11.5360   -4.7390 C.2   146  ASN146      0.2627
     40  OD1       63.7600   12.0330   -5.7580 O.2   146  ASN146     -0.2716
     41  ND2       62.5480   10.4820   -4.7620 N.am  146  ASN146     -0.0877
     42  N         63.6520   14.6380   -1.4650 N.am  147  PHE147     -0.1962
     43  CA        63.6410   15.0100   -0.0460 C.3   147  PHE147      0.1771
     44  C         62.2170   15.3010    0.4100 C.2   147  PHE147      0.2619
     45  O         61.2850   15.4250   -0.4120 O.2   147  PHE147     -0.2715
     46  CB        64.5780   16.1920    0.2680 C.3   147  PHE147      0.0574
     47  CG        64.0940   17.5150   -0.2430 C.ar  147  PHE147     -0.0200
     48  CD1       64.3650   17.9100   -1.5530 C.ar  147  PHE147     -0.0042
     49  CD2       63.3710   18.3450    0.5570 C.ar  147  PHE147     -0.0042
     50  CE1       63.9120   19.1530   -2.0240 C.ar  147  PHE147     -0.0003
     51  CE2       62.9250   19.5690    0.1200 C.ar  147  PHE147     -0.0003
     52  CZ        63.1820   19.9980   -1.1780 C.ar  147  PHE147     -0.0000
     53  N         62.0480   15.3750    1.7380 N.am  148  ALA148     -0.1977
     54  CA        60.7630   15.7020    2.2780 C.3   148  ALA148      0.1597
     55  C         60.9020   16.3280    3.6860 C.2   148  ALA148      0.2287
     56  O         61.8730   16.0640    4.3890 O.2   148  ALA148     -0.2864
     57  CB        59.9270   14.4240    2.3730 C.3   148  ALA148      0.0319
     58  N         63.5280   14.0610    5.5670 N.3   171  SER171     -0.1202
     59  CA        64.2110   12.9780    4.9240 C.3   171  SER171      0.2020
     60  C         64.8570   13.4350    3.6170 C.2   171  SER171      0.2619
     61  O         64.4350   14.4100    3.0230 O.2   171  SER171     -0.2717
     62  CB        63.2590   11.7830    4.6640 C.3   171  SER171      0.2103
     63  OG        62.3660   11.9830    3.5260 O.3   171  SER171     -0.2182
     64  N         65.9350   12.7210    3.2480 N.am  172  ILE172     -0.1965
     65  CA        66.6720   12.9550    2.0170 C.3   172  ILE172      0.1727
     66  C         67.1240   11.6130    1.5170 C.2   172  ILE172      0.2616
     67  O         67.6420   10.8210    2.2610 O.2   172  ILE172     -0.2715
     68  CB        67.9530   13.8220    2.2430 C.3   172  ILE172      0.0290
     69  CG1       67.5860   15.1270    2.9650 C.3   172  ILE172      0.0022
     70  CG2       68.6870   14.1050    0.9070 C.3   172  ILE172      0.0023
     71  CD1       68.7330   16.0230    3.3920 C.3   172  ILE172      0.0001
     72  N         66.9090   11.3690    0.2390 N.am  173  SER173     -0.1950
     73  CA        67.4170   10.1560   -0.3790 C.3   173  SER173      0.1924
     74  C         68.0440   10.3880   -1.7310 C.2   173  SER173      0.2314
     75  O         67.7970   11.4050   -2.3700 O.2   173  SER173     -0.2863
     76  CB        66.2860    9.0860   -0.5470 C.3   173  SER173      0.2116
     77  OG        65.2510    9.5840   -1.3620 O.3   173  SER173     -0.2180
     78  N         69.4550    6.7710    2.0260 N.3   182  VAL182     -0.1245
     79  CA        68.4500    7.5780    2.7180 C.3   182  VAL182      0.1561
     80  C         68.9130    7.8910    4.1310 C.2   182  VAL182      0.2260
     81  O         69.5380    7.0440    4.8410 O.2   182  VAL182     -0.2867
     82  CB        67.1340    6.8330    2.9690 C.3   182  VAL182      0.0252
     83  CG1       65.9540    7.7850    3.1290 C.3   182  VAL182      0.0019
     84  CG2       66.8560    5.8970    1.8700 C.3   182  VAL182      0.0019
@<TRIPOS>BOND
     1    31    30    2
     2    30    29    1
     3    32    33    1
     4    32    29    1
     5    29    28    1
     6    40    39    2
     7    28    22   am
     8    26    25    2
     9    27    25   am
    10    41    39   am
    11    39    38    1
    12    25    24    1
    13    22    23    2
    14    22    21    1
    15    34    35    1
    16    21    24    1
    17    21    20    1
    18    35    38    1
    19    35    36    1
    20    12    11    2
    21    20    11   am
    22    75    74    2
    23    11    10    1
    24    50    48   ar
    25    50    52   ar
    26    36    42   am
    27    36    37    2
    28    74    73    1
    29    48    47   ar
    30    42    43    1
    31    77    76    1
    32    52    51   ar
    33    13    10    1
    34    13    14    2
    35    10     9    1
    36    76    73    1
    37    45    44    2
    38    73    72    1
    39    47    46    1
    40    47    49   ar
    41    43    46    1
    42    43    44    1
    43    15    14    1
    44    15    16    1
    45    51    49   ar
    46    72    66   am
    47    44    53   am
    48    70    68    1
    49    16    17    2
    50    66    65    1
    51    66    67    2
    52    18    17    1
    53    53    54    1
    54    84    82    1
    55    65    68    1
    56    65    64    1
    57    78    79    1
    58    17    19    1
    59    68    69    1
    60    54    57    1
    61    54    55    1
    62    79    82    1
    63    79    80    1
    64    69    71    1
    65    82    83    1
    66    61    60    2
    67    64    60   am
    68     8     6   ar
    69     4     3    2
    70    63    62    1
    71    60    59    1
    72    55    56    2
    73     6     7   ar
    74     6     5    1
    75    80    81    2
    76     5     2    1
    77     2     3    1
    78     2     1    1
    79    62    59    1
    80    59    58    1
