@<TRIPOS>MOLECULE
tmp/4lsiC01.pdb
 75 72 0 0 0
SMALL
GASTEIGER

@<TRIPOS>ATOM
      1  N          8.6470    6.8090   -1.2910 N.3    90  PHE90      -0.1241
      2  CA         8.4970    6.2970    0.0600 C.3    90  PHE90       0.1605
      3  C          9.7650    5.5480    0.4920 C.2    90  PHE90       0.2264
      4  O         10.2060    4.5980   -0.1770 O.2    90  PHE90      -0.2867
      5  CB         7.2430    5.4180    0.3490 C.3    90  PHE90       0.0534
      6  CG         7.3170    4.7840    1.7360 C.ar   90  PHE90      -0.0203
      7  CD1        8.1040    3.6660    1.9980 C.ar   90  PHE90      -0.0042
      8  CD2        6.6260    5.3890    2.8180 C.ar   90  PHE90      -0.0042
      9  CE1        8.1550    3.1470    3.2770 C.ar   90  PHE90      -0.0003
     10  CE2        6.6650    4.8510    4.0650 C.ar   90  PHE90      -0.0003
     11  CZ         7.4400    3.7400    4.2950 C.ar   90  PHE90      -0.0000
     12  N         12.3100    4.0700    4.0380 N.3    92  TYR92      -0.1241
     13  CA        12.4600    3.7850    5.4610 C.3    92  TYR92       0.1605
     14  C         13.8980    3.4310    5.8440 C.2    92  TYR92       0.2264
     15  O         14.6350    2.6890    5.1370 O.2    92  TYR92      -0.2867
     16  CB        11.4490    2.7130    5.9250 C.3    92  TYR92       0.0534
     17  CG        11.5750    2.3980    7.3620 C.ar   92  TYR92      -0.0201
     18  CD1       10.8910    3.1540    8.3390 C.ar   92  TYR92      -0.0009
     19  CD2       12.3910    1.3500    7.7860 C.ar   92  TYR92      -0.0009
     20  CE1       11.0080    2.8720    9.6700 C.ar   92  TYR92       0.0417
     21  CE2       12.5250    1.0600    9.1360 C.ar   92  TYR92       0.0417
     22  CZ        11.8610    1.8410   10.0890 C.ar   92  TYR92       0.1957
     23  OH        11.9930    1.5160   11.4380 O.3    92  TYR92      -0.2866
     24  N         14.8340    5.1700   12.2210 N.3   129  GLY129     -0.1225
     25  CA        13.5070    4.6660   12.2340 C.3   129  GLY129      0.1811
     26  C         12.4710    5.5970   11.6400 C.2   129  GLY129      0.2280
     27  O         11.3170    5.5850   12.0700 O.2   129  GLY129     -0.2866
     28  N          9.9730    6.7890    8.5020 N.3   131  ALA131     -0.1245
     29  CA         9.2430    6.6020    7.2480 C.3   131  ALA131      0.1562
     30  C          8.8900    7.9270    6.5890 C.2   131  ALA131      0.2260
     31  O          8.1060    8.7040    7.1300 O.2   131  ALA131     -0.2867
     32  CB         7.9730    5.7900    7.5070 C.3   131  ALA131      0.0290
     33  N          6.9980    9.8180    9.3240 N.3   151  TYR151     -0.1227
     34  CA         6.6320    9.1060   10.5060 C.3   151  TYR151      0.1736
     35  C          7.8930    8.5570   11.2280 C.2   151  TYR151      0.2595
     36  O          8.7060    7.8460   10.6590 O.2   151  TYR151     -0.2718
     37  CB         5.6080    8.0370   10.1610 C.3   151  TYR151      0.0548
     38  CG         4.3390    8.6290    9.5210 C.ar  151  TYR151     -0.0200
     39  CD1        3.2950    9.1440   10.3020 C.ar  151  TYR151     -0.0009
     40  CD2        4.1980    8.6710    8.1320 C.ar  151  TYR151     -0.0009
     41  CE1        2.1440    9.6800    9.7200 C.ar  151  TYR151      0.0417
     42  CE2        3.0610    9.2150    7.5360 C.ar  151  TYR151      0.0417
     43  CZ         2.0290    9.7140    8.3270 C.ar  151  TYR151      0.1957
     44  OH         0.9130   10.2350    7.6930 O.3   151  TYR151     -0.2866
     45  N          8.0830    9.0670   12.4400 N.am  152  LEU152     -0.1966
     46  CA         9.2080    8.7270   13.3510 C.3   152  LEU152      0.1728
     47  C          8.7650    7.7010   14.3830 C.2   152  LEU152      0.2616
     48  O          7.8910    7.9790   15.2340 O.2   152  LEU152     -0.2715
     49  CB         9.6820    9.9730   14.0700 C.3   152  LEU152      0.0311
     50  CG        10.7970    9.8900   15.1340 C.3   152  LEU152      0.0022
     51  CD1       12.1220    9.4370   14.5520 C.3   152  LEU152      0.0001
     52  CD2       10.9650   11.2660   15.7590 C.3   152  LEU152      0.0001
     53  N          9.3830    6.5390   14.3070 N.am  153  GLY153     -0.1955
     54  CA         9.2030    5.4830   15.2600 C.3   153  GLY153      0.1869
     55  C          9.9870    5.7050   16.5680 C.2   153  GLY153      0.2309
     56  O         11.1210    6.2070   16.5920 O.2   153  GLY153     -0.2863
     57  N          7.3450    8.2680   19.5110 N.3   166  ASP166     -0.1225
     58  CA         6.6540    8.3180   18.2450 C.3   166  ASP166      0.1805
     59  C          6.3090    9.7380   17.8830 C.2   166  ASP166      0.2598
     60  O          5.9800   10.5650   18.7510 O.2   166  ASP166     -0.2718
     61  CB         5.3760    7.5110   18.2810 C.3   166  ASP166      0.1424
     62  CG         5.6020    5.9900   18.3650 C.2   166  ASP166      0.3668
     63  OD1        6.6040    5.4490   17.8830 O.co2 166  ASP166     -0.2456
     64  OD2        4.6980    5.3050   18.8770 O.co2 166  ASP166     -0.2456
     65  N          6.3740   10.0290   16.5930 N.am  167  GLY167     -0.1942
     66  CA         6.1010   11.3470   16.1200 C.3   167  GLY167      0.2014
     67  C          5.7250   11.4560   14.6740 C.2   167  GLY167      0.2638
     68  O          5.8990   10.5130   13.9130 O.2   167  GLY167     -0.2714
     69  N          5.1960   12.6340   14.3050 N.am  168  VAL168     -0.1977
     70  CA         4.8220   12.9450   12.9210 C.3   168  VAL168      0.1596
     71  C          5.3770   14.3270   12.6740 C.2   168  VAL168      0.2287
     72  O          5.3380   15.2100   13.5820 O.2   168  VAL168     -0.2864
     73  CB         3.2750   12.9850   12.6890 C.3   168  VAL168      0.0276
     74  CG1        2.9750   13.1560   11.2150 C.3   168  VAL168      0.0022
     75  CG2        2.6040   11.7340   13.1780 C.3   168  VAL168      0.0022
@<TRIPOS>BOND
     1     1     2    1
     2     4     3    2
     3     2     5    1
     4     2     3    1
     5     5     6    1
     6     6     7   ar
     7     6     8   ar
     8     7     9   ar
     9     8    10   ar
    10     9    11   ar
    11    12    13    1
    12    10    11   ar
    13    15    14    2
    14    13    14    1
    15    13    16    1
    16    16    17    1
    17    30    31    2
    18    30    29    1
    19    29    32    1
    20    29    28    1
    21    17    19   ar
    22    17    18   ar
    23    42    40   ar
    24    42    43   ar
    25    44    43    1
    26    19    21   ar
    27    40    38   ar
    28    43    41   ar
    29    18    20   ar
    30    21    22   ar
    31    33    34    1
    32    38    37    1
    33    38    39   ar
    34    20    22   ar
    35    41    39   ar
    36    22    23    1
    37    37    34    1
    38    34    35    1
    39    36    35    2
    40    74    73    1
    41    35    45   am
    42    26    27    2
    43    26    25    1
    44    24    25    1
    45    45    46    1
    46    71    70    1
    47    71    72    2
    48    73    70    1
    49    73    75    1
    50    70    69    1
    51    46    49    1
    52    46    47    1
    53    68    67    2
    54    49    50    1
    55    69    67   am
    56    53    47   am
    57    53    54    1
    58    47    48    2
    59    51    50    1
    60    67    66    1
    61    50    52    1
    62    54    55    1
    63    66    65    1
    64    55    56    2
    65    65    59   am
    66    63    62   ar
    67    59    58    1
    68    59    60    2
    69    58    61    1
    70    58    57    1
    71    61    62    1
    72    62    64   ar
