@<TRIPOS>MOLECULE
tmp/4lsjA00.pdb
 201 188 0 0 0
SMALL
GASTEIGER

@<TRIPOS>ATOM
      1  N         -5.0520    5.2180  -22.9100 N.3    35  MET35      -0.1245
      2  CA        -5.9190    5.0340  -21.7400 C.3    35  MET35       0.1570
      3  C         -5.0740    4.6720  -20.5200 C.2    35  MET35       0.2261
      4  O         -5.1920    5.3320  -19.4850 O.2    35  MET35      -0.2867
      5  CB        -6.9860    3.9340  -21.9540 C.3    35  MET35       0.0387
      6  CG        -7.5830    3.8890  -23.3290 C.3    35  MET35       0.0595
      7  SD        -9.3020    4.4150  -23.4090 S.3    35  MET35      -0.1393
      8  CE       -10.1260    2.9230  -23.0050 C.3    35  MET35       0.0692
      9  N         -2.8990    7.5550  -19.4040 N.3    38  LEU38      -0.1231
     10  CA        -3.7500    8.5700  -18.7820 C.3    38  LEU38       0.1693
     11  C         -4.1600    8.1980  -17.3640 C.2    38  LEU38       0.2592
     12  O         -4.1000    9.0560  -16.4700 O.2    38  LEU38      -0.2718
     13  CB        -4.9340    8.9840  -19.6590 C.3    38  LEU38       0.0284
     14  CG        -4.5220    9.8230  -20.8900 C.3    38  LEU38       0.0019
     15  CD1       -5.7050   10.0860  -21.8370 C.3    38  LEU38       0.0001
     16  CD2       -3.8020   11.0990  -20.4790 C.3    38  LEU38       0.0001
     17  N         -4.4750    6.9020  -17.1430 N.am   39  ASN39      -0.1974
     18  CA        -4.8090    6.3730  -15.8240 C.3    39  ASN39       0.1688
     19  C         -3.6020    6.4440  -14.9170 C.2    39  ASN39       0.2292
     20  O         -3.7590    6.7580  -13.7350 O.2    39  ASN39      -0.2864
     21  CB        -5.2930    4.9180  -15.9100 C.3    39  ASN39       0.1181
     22  CG        -6.6720    4.7870  -16.5080 C.2    39  ASN39       0.2629
     23  OD1       -7.4090    5.7630  -16.6860 O.2    39  ASN39      -0.2716
     24  ND2       -7.0640    3.5660  -16.8040 N.am   39  ASN39      -0.0877
     25  N         -0.8650    8.5550  -15.1890 N.3    41  LEU41      -0.1231
     26  CA        -0.6550    9.9770  -14.8900 C.3    41  LEU41       0.1693
     27  C         -1.7430   10.4480  -13.9010 C.2    41  LEU41       0.2592
     28  O         -1.4200   11.1070  -12.9030 O.2    41  LEU41      -0.2718
     29  CB        -0.6650   10.8070  -16.1920 C.3    41  LEU41       0.0284
     30  CG        -0.5400   12.3290  -16.0810 C.3    41  LEU41       0.0019
     31  CD1        0.8590   12.7620  -15.5180 C.3    41  LEU41       0.0001
     32  CD2       -0.7890   12.9700  -17.4020 C.3    41  LEU41       0.0001
     33  N         -2.9940   10.0240  -14.1480 N.am   42  GLY42      -0.1957
     34  CA        -4.1510   10.3050  -13.2970 C.3    42  GLY42       0.1869
     35  C         -3.9370    9.8770  -11.8590 C.2    42  GLY42       0.2309
     36  O         -4.2090   10.6440  -10.9420 O.2    42  GLY42      -0.2863
     37  N         -1.4350   12.1440  -10.3020 N.3    45  GLN45      -0.1245
     38  CA        -2.1110   13.3780   -9.9820 C.3    45  GLN45       0.1566
     39  C         -2.9430   13.3790   -8.6990 C.2    45  GLN45       0.2260
     40  O         -2.9770   14.3730   -8.0640 O.2    45  GLN45      -0.2867
     41  CB        -2.9780   13.8900  -11.1250 C.3    45  GLN45       0.0367
     42  CG        -2.3690   13.8900  -12.4410 C.3    45  GLN45       0.0905
     43  CD        -2.1630   15.2320  -12.9740 C.2    45  GLN45       0.2608
     44  OE1       -2.1180   15.4220  -14.1450 O.2    45  GLN45      -0.2717
     45  NE2       -2.0220   16.1780  -12.1160 N.am   45  GLN45      -0.0878
     46  N        -11.4330   14.4220   -6.2840 N.3    75  TRP75      -0.1227
     47  CA       -10.2620   14.1380   -7.1100 C.3    75  TRP75       0.1737
     48  C        -10.4510   14.4220   -8.5780 C.2    75  TRP75       0.2595
     49  O         -9.5440   14.9780   -9.1860 O.2    75  TRP75      -0.2718
     50  CB        -9.6500   12.7450   -6.8600 C.3    75  TRP75       0.0564
     51  CG       -10.5530   11.6210   -7.2720 C.ar   75  TRP75       0.0003
     52  CD1      -11.5810   11.0970   -6.5450 C.ar   75  TRP75       0.0946
     53  CD2      -10.6060   10.9890   -8.5580 C.ar   75  TRP75       0.0152
     54  NE1      -12.2730   10.1790   -7.2970 N.ar   75  TRP75      -0.2442
     55  CE2      -11.6750   10.0650   -8.5260 C.ar   75  TRP75       0.0810
     56  CE3       -9.8510   11.1130   -9.7410 C.ar   75  TRP75       0.0012
     57  CZ2      -11.9670    9.2160   -9.6010 C.ar   75  TRP75       0.0191
     58  CZ3      -10.1770   10.3100  -10.8310 C.ar   75  TRP75       0.0001
     59  CH2      -11.2120    9.3620  -10.7490 C.ar   75  TRP75       0.0015
     60  N        -11.6350   14.1060   -9.1390 N.am   76  MET76      -0.1979
     61  CA       -11.8980   14.3520  -10.5640 C.3    76  MET76       0.1605
     62  C        -12.1230   15.8190  -10.8600 C.2    76  MET76       0.2287
     63  O        -11.8390   16.2570  -11.9770 O.2    76  MET76      -0.2864
     64  CB       -13.0320   13.4610  -11.1200 C.3    76  MET76       0.0413
     65  CG       -13.1330   13.4640  -12.6560 C.3    76  MET76       0.0598
     66  SD       -11.6860   12.7620  -13.5390 S.3    76  MET76      -0.1393
     67  CE       -12.2470   11.1540  -13.7680 C.3    76  MET76       0.0692
     68  N         -8.4960   17.4120  -10.9810 N.3    79  MET79      -0.1230
     69  CA        -7.8220   16.9510  -12.1810 C.3    79  MET79       0.1702
     70  C         -8.3470   17.5740  -13.4380 C.2    79  MET79       0.2592
     71  O         -7.5320   17.9610  -14.2650 O.2    79  MET79      -0.2718
     72  CB        -7.9240   15.4380  -12.2960 C.3    79  MET79       0.0401
     73  CG        -6.7330   14.8280  -12.9920 C.3    79  MET79       0.0596
     74  SD        -6.8120   13.0330  -13.0140 S.3    79  MET79      -0.1393
     75  CE        -6.8320   12.6810  -11.2620 C.3    79  MET79       0.0692
     76  N         -9.6970   17.6320  -13.6100 N.am   80  ALA80      -0.1980
     77  CA       -10.3390   18.2060  -14.8030 C.3    80  ALA80       0.1597
     78  C        -10.1090   19.7120  -14.8930 C.2    80  ALA80       0.2287
     79  O         -9.8180   20.2230  -15.9720 O.2    80  ALA80      -0.2864
     80  CB       -11.8360   17.9180  -14.7970 C.3    80  ALA80       0.0319
     81  N         -6.4670   20.4590  -15.8320 N.3    83  LEU83      -0.1245
     82  CA        -6.3420   20.0940  -17.2420 C.3    83  LEU83       0.1561
     83  C         -6.8900   21.2250  -18.1330 C.2    83  LEU83       0.2260
     84  O         -6.2520   21.5750  -19.1270 O.2    83  LEU83      -0.2867
     85  CB        -7.0850   18.7590  -17.5160 C.3    83  LEU83       0.0270
     86  CG        -7.1710   18.3050  -19.0090 C.3    83  LEU83       0.0019
     87  CD1       -5.7940   17.9810  -19.5750 C.3    83  LEU83       0.0001
     88  CD2       -8.1170   17.1340  -19.1770 C.3    83  LEU83       0.0001
     89  N         -4.2260   24.1310  -17.8240 N.3    86  ARG86      -0.1245
     90  CA        -3.0190   23.8970  -18.6390 C.3    86  ARG86       0.1563
     91  C         -3.3280   23.9720  -20.1310 C.2    86  ARG86       0.2260
     92  O         -2.5000   24.4640  -20.8820 O.2    86  ARG86      -0.2867
     93  CB        -2.3570   22.5570  -18.3210 C.3    86  ARG86       0.0307
     94  CG        -1.8690   22.3920  -16.8760 C.3    86  ARG86       0.0489
     95  CD        -1.0650   21.1010  -16.7120 C.3    86  ARG86       0.2205
     96  NE        -1.8420   19.9040  -17.0590 N.pl3  86  ARG86      -0.0865
     97  CZ        -2.5740   19.2090  -16.1920 C.cat  86  ARG86       0.5346
     98  NH1       -2.6380   19.5780  -14.9150 N.pl3  86  ARG86       0.1354
     99  NH2       -3.2510   18.1430  -16.5940 N.pl3  86  ARG86       0.1354
    100  N         -2.6550   17.2940  -21.0790 N.3    98  PHE98      -0.1241
    101  CA        -2.6610   16.3340  -19.9690 C.3    98  PHE98       0.1605
    102  C         -1.3390   16.4590  -19.2050 C.2    98  PHE98       0.2264
    103  O         -1.3370   16.4820  -17.9650 O.2    98  PHE98      -0.2867
    104  CB        -2.9190   14.8980  -20.4740 C.3    98  PHE98       0.0534
    105  CG        -4.3300   14.6280  -20.9410 C.ar   98  PHE98      -0.0203
    106  CD1       -4.6420   14.6190  -22.2920 C.ar   98  PHE98      -0.0042
    107  CD2       -5.3510   14.4000  -20.0280 C.ar   98  PHE98      -0.0042
    108  CE1       -5.9580   14.4110  -22.7220 C.ar   98  PHE98      -0.0003
    109  CE2       -6.6640   14.1800  -20.4600 C.ar   98  PHE98      -0.0003
    110  CZ        -6.9580   14.1820  -21.8030 C.ar   98  PHE98      -0.0000
    111  N        -13.5630    8.6170  -25.4760 N.3   114  MET114     -0.1245
    112  CA       -12.4480    9.5200  -25.2170 C.3   114  MET114      0.1570
    113  C        -12.6680   10.8310  -25.9700 C.2   114  MET114      0.2261
    114  O        -12.3370   11.9090  -25.4590 O.2   114  MET114     -0.2867
    115  CB       -11.1390    8.8410  -25.6440 C.3   114  MET114      0.0387
    116  CG        -9.9310    9.7420  -25.6390 C.3   114  MET114      0.0595
    117  SD        -9.4230   10.2590  -23.9980 S.3   114  MET114     -0.1393
    118  CE        -7.9450   11.1710  -24.4110 C.3   114  MET114      0.0692
    119  N        -15.2540   12.8600  -23.9460 N.3   117  GLN117     -0.1182
    120  CA       -14.6850   13.4240  -22.7150 C.3   117  GLN117      0.1914
    121  C        -13.8500   14.6460  -22.9780 C.2   117  GLN117      0.2634
    122  O        -13.9620   15.6410  -22.2660 O.2   117  GLN117     -0.2714
    123  CB       -13.8830   12.3670  -21.9370 C.2   117  GLN117      0.0065
    124  CG       -14.7170   11.3940  -21.0910 C.2   117  GLN117      0.0585
    125  CD       -16.2110   11.6000  -21.0960 C.2   117  GLN117      0.2840
    126  OE1      -16.7440   12.5190  -20.4700 O.2   117  GLN117     -0.2667
    127  NE2      -16.9130   10.7420  -21.8100 N.am  117  GLN117     -0.0837
    128  N        -13.0230   14.5570  -24.0200 N.am  118  CYS118     -0.1967
    129  CA       -12.1690   15.6120  -24.4980 C.3   118  CYS118      0.1712
    130  C        -12.9390   16.8490  -24.9280 C.2   118  CYS118      0.2296
    131  O        -12.4950   17.9490  -24.6080 O.2   118  CYS118     -0.2864
    132  CB       -11.2630   15.0900  -25.6000 C.3   118  CYS118      0.0983
    133  SG        -9.9960   13.9490  -24.9970 S.3   118  CYS118     -0.0798
    134  N        -13.9980   18.7980  -21.9230 N.3   121  MET121     -0.1245
    135  CA       -12.8060   19.4430  -21.3910 C.3   121  MET121      0.1570
    136  C        -12.4930   20.6880  -22.1840 C.2   121  MET121      0.2261
    137  O        -12.0410   21.6860  -21.6150 O.2   121  MET121     -0.2867
    138  CB       -11.6010   18.4790  -21.4170 C.3   121  MET121      0.0387
    139  CG       -11.6640   17.3810  -20.3800 C.3   121  MET121      0.0595
    140  SD       -12.0550   17.9680  -18.6980 S.3   121  MET121     -0.1393
    141  CE       -10.9180   19.3840  -18.5410 C.3   121  MET121      0.0692
    142  N        -17.1530   12.6320  -16.8390 N.3   199  LEU199     -0.1245
    143  CA       -15.8130   12.0290  -16.7200 C.3   199  LEU199      0.1561
    144  C        -15.8280   10.7990  -15.7890 C.2   199  LEU199      0.2260
    145  O        -15.2390    9.7690  -16.1360 O.2   199  LEU199     -0.2867
    146  CB       -14.7830   13.0600  -16.2200 C.3   199  LEU199      0.0270
    147  CG       -14.4500   14.2010  -17.1560 C.3   199  LEU199      0.0019
    148  CD1      -13.6350   15.2490  -16.4520 C.3   199  LEU199      0.0001
    149  CD2      -13.6940   13.7130  -18.3980 C.3   199  LEU199      0.0001
    150  N        -17.5080    7.7100  -17.5350 N.3   202  TYR202     -0.1227
    151  CA       -16.6420    7.0530  -18.5050 C.3   202  TYR202      0.1736
    152  C        -15.5880    6.2420  -17.7710 C.2   202  TYR202      0.2595
    153  O        -15.3020    5.1120  -18.1550 O.2   202  TYR202     -0.2718
    154  CB       -15.9900    8.0920  -19.4330 C.3   202  TYR202      0.0548
    155  CG       -15.0250    7.5280  -20.4590 C.ar  202  TYR202     -0.0200
    156  CD1      -13.7000    7.9560  -20.5050 C.ar  202  TYR202     -0.0009
    157  CD2      -15.4450    6.6000  -21.4100 C.ar  202  TYR202     -0.0009
    158  CE1      -12.8190    7.4830  -21.4760 C.ar  202  TYR202      0.0417
    159  CE2      -14.5650    6.1050  -22.3750 C.ar  202  TYR202      0.0417
    160  CZ       -13.2560    6.5580  -22.4080 C.ar  202  TYR202      0.1957
    161  OH       -12.3660    6.0640  -23.3300 O.3   202  TYR202     -0.2866
    162  N        -15.0500    6.8130  -16.6890 N.am  203  CYS203     -0.1970
    163  CA       -14.0540    6.2130  -15.8210 C.3   203  CYS203      0.1712
    164  C        -14.5910    4.9490  -15.1550 C.2   203  CYS203      0.2296
    165  O        -13.9300    3.9180  -15.1910 O.2   203  CYS203     -0.2864
    166  CB       -13.5940    7.2320  -14.7930 C.3   203  CYS203      0.0983
    167  SG       -12.1990    6.6810  -13.8010 S.3   203  CYS203     -0.0798
    168  N        -15.0830    2.1200  -17.8660 N.3   206  THR206     -0.1218
    169  CA       -13.8120    1.4890  -18.1810 C.3   206  THR206      0.1862
    170  C        -13.2990    0.6390  -17.0220 C.2   206  THR206      0.2287
    171  O        -12.9130   -0.5040  -17.2550 O.2   206  THR206     -0.2866
    172  CB       -12.7800    2.5000  -18.6650 C.3   206  THR206      0.1770
    173  OG1      -13.4160    3.4790  -19.4840 O.3   206  THR206     -0.2211
    174  CG2      -11.6530    1.8470  -19.4420 C.3   206  THR206      0.0375
    175  N         -8.1600   -2.2940  -19.2480 N.3   214  ILE214     -0.1245
    176  CA        -7.2770   -1.1480  -19.2480 C.3   214  ILE214      0.1561
    177  C         -6.7260   -1.1190  -17.8130 C.2   214  ILE214      0.2260
    178  O         -7.4830   -1.3610  -16.8570 O.2   214  ILE214     -0.2867
    179  CB        -8.0940    0.1520  -19.5960 C.3   214  ILE214      0.0252
    180  CG1       -8.7060    0.1200  -21.0310 C.3   214  ILE214      0.0019
    181  CG2       -7.3120    1.4500  -19.3240 C.3   214  ILE214      0.0019
    182  CD1       -7.7240    0.0590  -22.2660 C.3   214  ILE214      0.0001
    183  N         -5.2030    0.3510  -14.2790 N.3   216  PHE216     -0.1241
    184  CA        -5.4080    1.4530  -13.3550 C.3   216  PHE216      0.1605
    185  C         -4.3820    1.3230  -12.2390 C.2   216  PHE216      0.2264
    186  O         -4.1680    0.2120  -11.7550 O.2   216  PHE216     -0.2867
    187  CB        -6.8200    1.3990  -12.7490 C.3   216  PHE216      0.0534
    188  CG        -7.9240    1.9100  -13.6390 C.ar  216  PHE216     -0.0203
    189  CD1       -8.4270    1.1270  -14.6720 C.ar  216  PHE216     -0.0042
    190  CD2       -8.5280    3.1350  -13.3880 C.ar  216  PHE216     -0.0042
    191  CE1       -9.4760    1.5900  -15.4760 C.ar  216  PHE216     -0.0003
    192  CE2       -9.5730    3.5930  -14.1900 C.ar  216  PHE216     -0.0003
    193  CZ       -10.0510    2.8120  -15.2150 C.ar  216  PHE216     -0.0000
    194  N         -5.7710    4.9660   -7.5240 N.3   220  LEU220     -0.1245
    195  CA        -6.9170    5.3740   -8.3200 C.3   220  LEU220      0.1561
    196  C         -7.9710    4.2590   -8.1810 C.2   220  LEU220      0.2260
    197  O         -9.1360    4.5440   -7.9050 O.2   220  LEU220     -0.2867
    198  CB        -6.5190    5.5260   -9.8020 C.3   220  LEU220      0.0270
    199  CG        -7.6130    5.8820  -10.8000 C.3   220  LEU220      0.0019
    200  CD1       -8.1920    7.2360  -10.4810 C.3   220  LEU220      0.0001
    201  CD2       -7.1040    5.8760  -12.2400 C.3   220  LEU220      0.0001
@<TRIPOS>BOND
     1   113   114    2
     2   113   112    1
     3   115   116    1
     4   115   112    1
     5   116   117    1
     6   132   133    1
     7   132   129    1
     8   111   112    1
     9   130   131    2
    10   130   129    1
    11   129   128    1
    12   118   117    1
    13   128   121   am
    14   119   120    1
    15     7     6    1
    16     7     8    1
    17   161   160    1
    18     6     5    1
    19   121   120    1
    20   121   122    2
    21     1     2    1
    22   108   106   ar
    23   108   110   ar
    24   120   123    1
    25   160   159   ar
    26   160   158   ar
    27   159   157   ar
    28   106   105   ar
    29   182   180    1
    30   136   137    2
    31   136   135    1
    32     5     2    1
    33   123   124    2
    34   134   135    1
    35    15    14    1
    36   127   125   am
    37   110   109   ar
    38     2     3    1
    39   158   156   ar
    40   138   135    1
    41   138   139    1
    42   157   155   ar
    43   125   124    1
    44   125   126    2
    45   100   101    1
    46   180   179    1
    47   105   104    1
    48   105   107   ar
    49    14    16    1
    50    14    13    1
    51    92    91    2
    52     3     4    2
    53   156   155   ar
    54   104   101    1
    55   109   107   ar
    56   155   154    1
    57   139   140    1
    58    91    90    1
    59   101   102    1
    60    13    10    1
    61   179   181    1
    62   179   176    1
    63    87    86    1
    64   173   172    1
    65   174   172    1
    66   154   151    1
    67     9    10    1
    68   175   176    1
    69   176   177    1
    70   102   103    2
    71    88    86    1
    72    84    83    2
    73    86    85    1
    74    10    11    1
    75   140   141    1
    76   172   169    1
    77    90    93    1
    78    90    89    1
    79   151   152    1
    80   151   150    1
    81   149   147    1
    82    93    94    1
    83   169   168    1
    84   169   170    1
    85   153   152    2
    86    83    82    1
    87   177   178    2
    88   152   162   am
    89    85    82    1
    90    32    30    1
    91    11    17   am
    92    11    12    2
    93   171   170    2
    94    82    81    1
    95   147   148    1
    96   147   146    1
    97    17    18    1
    98    96    95    1
    99    96    97    2
   100    94    95    1
   101   142   143    1
   102    24    22   am
   103   143   146    1
   104   143   144    1
   105   162   163    1
   106    23    22    2
   107    99    97    1
   108    22    21    1
   109    97    98    1
   110    29    30    1
   111    29    26    1
   112   145   144    2
   113    30    31    1
   114    79    78    2
   115    21    18    1
   116    18    19    1
   117   163   164    1
   118   163   166    1
   119   191   193   ar
   120   191   189   ar
   121   193   192   ar
   122   165   164    2
   123    25    26    1
   124    19    20    2
   125    78    77    1
   126    26    27    1
   127    77    80    1
   128    77    76    1
   129   166   167    1
   130   189   188   ar
   131   183   184    1
   132    71    70    2
   133   192   190   ar
   134    33    27   am
   135    33    34    1
   136    44    43    2
   137    27    28    2
   138    67    66    1
   139   188   190   ar
   140   188   187    1
   141    76    70   am
   142    66    65    1
   143    70    69    1
   144   184   187    1
   145   184   185    1
   146    34    35    1
   147    74    73    1
   148    74    75    1
   149    73    72    1
   150    43    42    1
   151    43    45   am
   152    65    64    1
   153    42    41    1
   154    72    69    1
   155   201   199    1
   156   185   186    2
   157    69    68    1
   158    63    62    2
   159    35    36    2
   160    41    38    1
   161    64    61    1
   162    62    61    1
   163    58    59   ar
   164    58    56   ar
   165   199   200    1
   166   199   198    1
   167    59    57   ar
   168    61    60    1
   169    37    38    1
   170    38    39    1
   171   198   195    1
   172    56    53   ar
   173    57    55   ar
   174    49    48    2
   175    60    48   am
   176    39    40    2
   177    48    47    1
   178    53    55   ar
   179    53    51   ar
   180    55    54   ar
   181   195   196    1
   182   195   194    1
   183   196   197    2
   184    54    52   ar
   185    51    50    1
   186    51    52   ar
   187    47    50    1
   188    47    46    1
