@<TRIPOS>MOLECULE
tmp/4lspA10.pdb
 97 93 0 0 0
SMALL
GASTEIGER

@<TRIPOS>ATOM
      1  N         24.6780   10.3070   -0.7450 N.3   140  SER140     -0.1202
      2  CA        23.2530   10.1150   -0.9600 C.3   140  SER140      0.2020
      3  C         22.5820    9.5740    0.2880 C.2   140  SER140      0.2619
      4  O         23.2540    9.1210    1.2210 O.2   140  SER140     -0.2717
      5  CB        23.0040    9.1590   -2.1240 C.3   140  SER140      0.2103
      6  OG        23.4590    7.8600   -1.8030 O.3   140  SER140     -0.2182
      7  N         21.2550    9.6330    0.2960 N.am  141  THR141     -0.1938
      8  CA        20.4580    9.0410    1.3600 C.3   141  THR141      0.2028
      9  C         19.5550    7.9690    0.7670 C.2   141  THR141      0.2642
     10  O         19.2720    7.9760   -0.4330 O.2   141  THR141     -0.2714
     11  CB        19.5890   10.0930    2.0950 C.3   141  THR141      0.1808
     12  OG1       18.7550   10.7760    1.1510 O.3   141  THR141     -0.2208
     13  CG2       20.4640   11.0890    2.8250 C.3   141  THR141      0.0379
     14  N         19.1110    7.0570    1.6250 N.am  142  GLN142     -0.1976
     15  CA        18.1910    5.9740    1.2610 C.3   142  GLN142      0.1601
     16  C         18.8120    4.9490    0.3180 C.2   142  GLN142      0.2287
     17  O         18.9730    3.7830    0.6860 O.2   142  GLN142     -0.2864
     18  CB        16.8880    6.5150    0.6700 C.3   142  GLN142      0.0394
     19  CG        16.1100    7.4190    1.6250 C.3   142  GLN142      0.0908
     20  CD        14.6590    7.5890    1.2210 C.2   142  GLN142      0.2608
     21  OE1       14.2030    6.9980    0.2430 O.2   142  GLN142     -0.2717
     22  NE2       13.9210    8.3970    1.9840 N.am  142  GLN142     -0.0878
     23  N         16.0840   15.6560    3.7190 N.3   231  GLU231     -0.1231
     24  CA        17.2870   14.9790    3.2680 C.3   231  GLU231      0.1699
     25  C         17.2180   13.4760    3.5380 C.2   231  GLU231      0.2592
     26  O         17.8440   12.6930    2.8290 O.2   231  GLU231     -0.2718
     27  CB        18.5330   15.5540    3.9480 C.3   231  GLU231      0.0402
     28  CG        18.9690   16.9410    3.4510 C.3   231  GLU231      0.1161
     29  CD        18.0280   18.0550    3.8740 C.2   231  GLU231      0.3649
     30  OE1       17.4300   17.9580    4.9640 O.co2 231  GLU231     -0.2457
     31  OE2       17.8860   19.0330    3.1130 O.co2 231  GLU231     -0.2457
     32  N         16.4590   13.0740    4.5550 N.am  232  ILE232     -0.1980
     33  CA        16.3670   11.6600    4.9010 C.3   232  ILE232      0.1595
     34  C         15.0000   11.0300    4.5940 C.2   232  ILE232      0.2287
     35  O         14.9220    9.8220    4.3810 O.2   232  ILE232     -0.2864
     36  CB        16.7600   11.3940    6.3790 C.3   232  ILE232      0.0276
     37  CG1       15.7300   11.9660    7.3560 C.3   232  ILE232      0.0022
     38  CG2       18.1480   11.9570    6.6680 C.3   232  ILE232      0.0022
     39  CD1       15.7780   11.2930    8.7060 C.3   232  ILE232      0.0001
     40  N         24.5920   18.0050    4.9760 N.3   282  TRP282     -0.1241
     41  CA        24.8290   16.6730    5.5200 C.3   282  TRP282      0.1605
     42  C         26.0530   16.6790    6.4250 C.2   282  TRP282      0.2264
     43  O         26.2010   15.8100    7.2820 O.2   282  TRP282     -0.2867
     44  CB        25.0030   15.6530    4.3950 C.3   282  TRP282      0.0550
     45  CG        26.2010   15.8830    3.5330 C.ar  282  TRP282      0.0003
     46  CD1       26.2390   16.5530    2.3500 C.ar  282  TRP282      0.0946
     47  CD2       27.5370   15.4250    3.7780 C.ar  282  TRP282      0.0152
     48  NE1       27.5170   16.5510    1.8460 N.ar  282  TRP282     -0.2442
     49  CE2       28.3330   15.8670    2.7060 C.ar  282  TRP282      0.0810
     50  CE3       28.1360   14.6880    4.8010 C.ar  282  TRP282      0.0012
     51  CZ2       29.6900   15.5890    2.6230 C.ar  282  TRP282      0.0191
     52  CZ3       29.4800   14.4210    4.7210 C.ar  282  TRP282      0.0001
     53  CH2       30.2460   14.8710    3.6410 C.ar  282  TRP282      0.0015
     54  N         19.9740    1.6180    2.4080 N.3   308  LEU308     -0.1245
     55  CA        20.0360    1.7960    3.8590 C.3   308  LEU308      0.1561
     56  C         18.6260    1.6760    4.4200 C.2   308  LEU308      0.2260
     57  O         17.6850    2.2440    3.8690 O.2   308  LEU308     -0.2867
     58  CB        20.6310    3.1600    4.2310 C.3   308  LEU308      0.0270
     59  CG        22.0700    3.4360    3.7800 C.3   308  LEU308      0.0019
     60  CD1       22.4890    4.8500    4.1220 C.3   308  LEU308      0.0001
     61  CD2       23.0250    2.4580    4.4070 C.3   308  LEU308      0.0001
     62  N         16.3750    4.5960    4.4810 N.3   326  GLY326     -0.1210
     63  CA        17.1610    5.6170    5.1500 C.3   326  GLY326      0.1956
     64  C         17.6290    5.1640    6.5130 C.2   326  GLY326      0.2612
     65  O         16.9410    4.4050    7.1920 O.2   326  GLY326     -0.2717
     66  N         18.8020    5.6340    6.9210 N.am  327  GLY327     -0.1942
     67  CA        19.4120    5.1650    8.1480 C.3   327  GLY327      0.2014
     68  C         20.7920    5.7300    8.3900 C.2   327  GLY327      0.2639
     69  O         21.5130    6.0390    7.4450 O.2   327  GLY327     -0.2714
     70  N         21.1690    5.8450    9.6600 N.am  328  GLY328     -0.1939
     71  CA        22.5350    6.1830   10.0180 C.3   328  GLY328      0.2014
     72  C         22.9720    7.5450    9.5320 C.2   328  GLY328      0.2639
     73  O         22.2210    8.5190    9.6150 O.2   328  GLY328     -0.2714
     74  N         24.1970    7.6120    9.0230 N.am  329  ASN329     -0.1958
     75  CA        24.7400    8.8610    8.5160 C.3   329  ASN329      0.1819
     76  C         25.6430    8.5960    7.3110 C.2   329  ASN329      0.2621
     77  O         25.8230    7.4440    6.9070 O.2   329  ASN329     -0.2715
     78  CB        25.4670    9.6160    9.6300 C.3   329  ASN329      0.1195
     79  CG        26.6050    8.8270   10.2160 C.2   329  ASN329      0.2630
     80  OD1       27.5540    8.5160    9.5200 O.2   329  ASN329     -0.2716
     81  ND2       26.5250    8.5080   11.5010 N.am  329  ASN329     -0.0877
     82  N         26.1830    9.6580    6.7240 N.am  330  ILE330     -0.1977
     83  CA        26.9480    9.5510    5.4830 C.3   330  ILE330      0.1596
     84  C         28.1820    8.6730    5.6440 C.2   330  ILE330      0.2287
     85  O         28.6480    8.0810    4.6740 O.2   330  ILE330     -0.2864
     86  CB        27.3530   10.9470    4.9380 C.3   330  ILE330      0.0276
     87  CG1       26.1050   11.7950    4.6780 C.3   330  ILE330      0.0022
     88  CG2       28.1660   10.8290    3.6500 C.3   330  ILE330      0.0022
     89  CD1       25.1330   11.2130    3.6510 C.3   330  ILE330      0.0001
     90  N         27.7650    5.3290    4.2130 N.3   333  ASN333     -0.1240
     91  CA        27.9910    5.1930    2.7810 C.3   333  ASN333      0.1653
     92  C         29.4060    4.7060    2.5130 C.2   333  ASN333      0.2266
     93  O         29.6270    3.9140    1.6020 O.2   333  ASN333     -0.2867
     94  CB        27.7850    6.5180    2.0460 C.3   333  ASN333      0.1155
     95  CG        26.3330    6.9390    1.9850 C.2   333  ASN333      0.2627
     96  OD1       25.5790    6.7830    2.9490 O.2   333  ASN333     -0.2716
     97  ND2       25.9290    7.4750    0.8390 N.am  333  ASN333     -0.0877
@<TRIPOS>BOND
     1     5     6    1
     2     5     2    1
     3     2     1    1
     4     2     3    1
     5    10     9    2
     6    21    20    2
     7     3     7   am
     8     3     4    2
     9     7     8    1
    10    16    17    2
    11    16    15    1
    12    18    15    1
    13    18    19    1
    14     9     8    1
    15     9    14   am
    16    97    95   am
    17    12    11    1
    18    20    19    1
    19    20    22   am
    20    15    14    1
    21     8    11    1
    22    93    92    2
    23    48    46   ar
    24    48    49   ar
    25    95    94    1
    26    95    96    2
    27    94    91    1
    28    11    13    1
    29    46    45   ar
    30    54    55    1
    31    92    91    1
    32    51    49   ar
    33    51    53   ar
    34    49    47   ar
    35    91    90    1
    36    26    25    2
    37    31    29   ar
    38    24    25    1
    39    24    23    1
    40    24    27    1
    41    28    29    1
    42    28    27    1
    43    45    47   ar
    44    45    44    1
    45    25    32   am
    46    53    52   ar
    47    88    86    1
    48    89    87    1
    49    47    50   ar
    50    59    60    1
    51    59    58    1
    52    59    61    1
    53    55    58    1
    54    55    56    1
    55    57    56    2
    56    29    30   ar
    57    35    34    2
    58    44    41    1
    59    62    63    1
    60    32    33    1
    61    34    33    1
    62    85    84    2
    63    87    86    1
    64    52    50   ar
    65    33    36    1
    66    86    83    1
    67    40    41    1
    68    63    64    1
    69    83    84    1
    70    83    82    1
    71    41    42    1
    72    36    38    1
    73    36    37    1
    74    42    43    2
    75    64    66   am
    76    64    65    2
    77    82    76   am
    78    77    76    2
    79    66    67    1
    80    76    75    1
    81    37    39    1
    82    69    68    2
    83    67    68    1
    84    68    70   am
    85    75    74    1
    86    75    78    1
    87    74    72   am
    88    80    79    2
    89    72    73    2
    90    72    71    1
    91    78    79    1
    92    70    71    1
    93    79    81   am
