@<TRIPOS>MOLECULE
tmp/4lssA00.pdb
 97 96 0 0 0
SMALL
GASTEIGER

@<TRIPOS>ATOM
      1  N         -6.4350   27.3410   48.7500 N.3     8  THR8       -0.1203
      2  CA        -6.3530   26.7860   50.0890 C.3     8  THR8        0.1994
      3  C         -7.6700   27.0060   50.8240 C.2     8  THR8        0.2618
      4  O         -8.2370   28.0980   50.7940 O.2     8  THR8       -0.2717
      5  CB        -5.2020   27.4250   50.8860 C.3     8  THR8        0.1784
      6  OG1       -3.9510   27.1060   50.2600 O.3     8  THR8       -0.2211
      7  CG2       -5.1910   26.9170   52.3190 C.3     8  THR8        0.0376
      8  N         -8.1600   25.9500   51.4640 N.am    9  LEU9       -0.1965
      9  CA        -9.3480   26.0370   52.2990 C.3     9  LEU9        0.1728
     10  C         -8.9390   26.2740   53.7370 C.2     9  LEU9        0.2616
     11  O         -7.7690   26.1560   54.0850 O.2     9  LEU9       -0.2715
     12  CB       -10.1350   24.7350   52.2290 C.3     9  LEU9        0.0311
     13  CG       -10.5890   24.3300   50.8350 C.3     9  LEU9        0.0022
     14  CD1      -11.6010   23.2180   50.9470 C.3     9  LEU9        0.0001
     15  CD2      -11.1650   25.5250   50.0890 C.3     9  LEU9        0.0001
     16  N         -9.9030   26.6150   54.5780 N.am   10  PHE10      -0.1960
     17  CA        -9.6540   26.6230   56.0050 C.3    10  PHE10       0.1771
     18  C        -10.6450   25.6890   56.6890 C.2    10  PHE10       0.2619
     19  O        -11.6930   25.3710   56.1360 O.2    10  PHE10      -0.2715
     20  CB        -9.6680   28.0460   56.5770 C.3    10  PHE10       0.0574
     21  CG       -11.0230   28.7080   56.6030 C.ar   10  PHE10      -0.0200
     22  CD1      -11.4910   29.4100   55.5050 C.ar   10  PHE10      -0.0042
     23  CD2      -11.8040   28.6740   57.7500 C.ar   10  PHE10      -0.0042
     24  CE1      -12.7230   30.0360   55.5380 C.ar   10  PHE10      -0.0003
     25  CE2      -13.0370   29.3040   57.7880 C.ar   10  PHE10      -0.0003
     26  CZ       -13.4960   29.9840   56.6810 C.ar   10  PHE10      -0.0000
     27  N        -10.2810   25.2100   57.8680 N.am   11  CYS11      -0.1968
     28  CA       -11.1130   24.2600   58.5760 C.3    11  CYS11       0.1712
     29  C        -11.8020   24.9280   59.7610 C.2    11  CYS11       0.2296
     30  O        -11.2590   25.8380   60.3920 O.2    11  CYS11      -0.2864
     31  CB       -10.2760   23.0700   59.0450 C.3    11  CYS11       0.0983
     32  SG        -8.9950   23.5020   60.2410 S.3    11  CYS11      -0.0798
     33  N         -5.9360   19.8930   68.5770 N.3    26  TRP26      -0.1241
     34  CA        -5.4610   20.2910   67.2600 C.3    26  TRP26       0.1605
     35  C         -6.4010   21.2900   66.6030 C.2    26  TRP26       0.2264
     36  O         -5.9610   22.3080   66.0640 O.2    26  TRP26      -0.2867
     37  CB        -5.3210   19.0630   66.3620 C.3    26  TRP26       0.0550
     38  CG        -4.7620   19.3630   64.9930 C.ar   26  TRP26       0.0003
     39  CD1       -3.4420   19.4400   64.6430 C.ar   26  TRP26       0.0946
     40  CD2       -5.5060   19.6210   63.7920 C.ar   26  TRP26       0.0152
     41  NE1       -3.3200   19.7280   63.3070 N.ar   26  TRP26      -0.2442
     42  CE2       -4.5720   19.8440   62.7610 C.ar   26  TRP26       0.0810
     43  CE3       -6.8710   19.6830   63.4920 C.ar   26  TRP26       0.0012
     44  CZ2       -4.9540   20.1270   61.4550 C.ar   26  TRP26       0.0191
     45  CZ3       -7.2470   19.9640   62.1930 C.ar   26  TRP26       0.0001
     46  CH2       -6.2900   20.1830   61.1910 C.ar   26  TRP26       0.0015
     47  N         -6.3050   24.9120   67.6580 N.3    29  HIS29      -0.1226
     48  CA        -5.2070   25.7800   67.2220 C.3    29  HIS29       0.1752
     49  C         -5.0410   25.8250   65.7040 C.2    29  HIS29       0.2595
     50  O         -4.3980   26.7360   65.1770 O.2    29  HIS29      -0.2718
     51  CB        -3.8780   25.3810   67.8950 C.3    29  HIS29       0.0759
     52  CG        -3.2370   24.1510   67.3180 C.ar   29  HIS29       0.0818
     53  ND1       -2.7590   24.0960   66.0270 N.ar   29  HIS29      -0.2268
     54  CD2       -2.9790   22.9380   67.8660 C.ar   29  HIS29       0.1154
     55  CE1       -2.2510   22.8980   65.7970 C.ar   29  HIS29       0.1986
     56  NE2       -2.3700   22.1780   66.8960 N.ar   29  HIS29      -0.2212
     57  N         -5.6170   24.8550   65.0040 N.am   30  ALA30      -0.1980
     58  CA        -5.4630   24.7850   63.5590 C.3    30  ALA30       0.1597
     59  C         -6.7560   25.1330   62.8340 C.2    30  ALA30       0.2287
     60  O         -6.7550   25.3030   61.6140 O.2    30  ALA30      -0.2864
     61  CB        -5.0000   23.4120   63.1530 C.3    30  ALA30       0.0319
     62  N         -5.9710   18.1110   50.2250 N.3    60  GLN60      -0.1245
     63  CA        -5.8370   19.0390   51.3450 C.3    60  GLN60       0.1566
     64  C         -6.2580   18.4060   52.6710 C.2    60  GLN60       0.2260
     65  O         -5.6030   18.6130   53.6920 O.2    60  GLN60      -0.2867
     66  CB        -6.6290   20.3200   51.0820 C.3    60  GLN60       0.0367
     67  CG        -5.9120   21.2860   50.1510 C.3    60  GLN60       0.0905
     68  CD        -6.7490   22.5050   49.8100 C.2    60  GLN60       0.2608
     69  OE1       -6.7560   23.4960   50.5400 O.2    60  GLN60      -0.2717
     70  NE2       -7.4580   22.4360   48.6920 N.am   60  GLN60      -0.0878
     71  N         -3.4960   16.0270   53.7730 N.3    63  THR63      -0.1203
     72  CA        -2.3360   16.6720   54.3940 C.3    63  THR63       0.1994
     73  C         -2.6260   17.1810   55.8160 C.2    63  THR63       0.2617
     74  O         -1.7560   17.1130   56.6840 O.2    63  THR63      -0.2717
     75  CB        -1.7540   17.8140   53.5270 C.3    63  THR63       0.1784
     76  OG1       -2.8120   18.6500   53.0460 O.3    63  THR63      -0.2211
     77  CG2       -0.9970   17.2450   52.3470 C.3    63  THR63       0.0376
     78  N         -3.8390   17.6770   56.0560 N.am   64  ASP64      -0.1973
     79  CA        -4.2250   18.1240   57.3920 C.3    64  ASP64       0.1709
     80  C         -4.2050   16.9660   58.3730 C.2    64  ASP64       0.2293
     81  O         -3.6740   17.0740   59.4750 O.2    64  ASP64      -0.2864
     82  CB        -5.6350   18.7210   57.3990 C.3    64  ASP64       0.1436
     83  CG        -5.7000   20.0950   56.7700 C.2    64  ASP64       0.3671
     84  OD1       -4.6820   20.8210   56.7590 O.co2  64  ASP64      -0.2456
     85  OD2       -6.7890   20.4510   56.2880 O.co2  64  ASP64      -0.2456
     86  N        -14.7750   21.8860   56.1270 N.3   101  TYR101     -0.1241
     87  CA       -13.8660   22.6230   55.2670 C.3   101  TYR101      0.1605
     88  C        -14.5810   23.7800   54.5910 C.2   101  TYR101      0.2264
     89  O        -15.6740   23.6200   54.0450 O.2   101  TYR101     -0.2867
     90  CB       -13.2350   21.6940   54.2480 C.3   101  TYR101      0.0534
     91  CG       -12.1630   20.8590   54.8720 C.ar  101  TYR101     -0.0201
     92  CD1      -10.8960   21.3830   55.0940 C.ar  101  TYR101     -0.0009
     93  CD2      -12.4190   19.5590   55.2780 C.ar  101  TYR101     -0.0009
     94  CE1       -9.9130   20.6300   55.6790 C.ar  101  TYR101      0.0417
     95  CE2      -11.4370   18.7970   55.8670 C.ar  101  TYR101      0.0417
     96  CZ       -10.1890   19.3330   56.0620 C.ar  101  TYR101      0.1957
     97  OH        -9.2130   18.5690   56.6470 O.3   101  TYR101     -0.2866
@<TRIPOS>BOND
     1    70    68   am
     2     1     2    1
     3    68    67    1
     4    68    69    2
     5     2     3    1
     6     2     5    1
     7    15    13    1
     8    67    66    1
     9    62    63    1
    10     6     5    1
    11     4     3    2
    12     3     8   am
    13    13    14    1
    14    13    12    1
    15     5     7    1
    16    66    63    1
    17    63    64    1
    18     8     9    1
    19    12     9    1
    20     9    10    1
    21    77    75    1
    22    64    65    2
    23    76    75    1
    24    75    72    1
    25    10    11    2
    26    10    16   am
    27    71    72    1
    28    89    88    2
    29    90    91    1
    30    90    87    1
    31    72    73    1
    32    16    17    1
    33    88    87    1
    34    91    92   ar
    35    91    93   ar
    36    92    94   ar
    37    87    86    1
    38    93    95   ar
    39    22    24   ar
    40    22    21   ar
    41    24    26   ar
    42    94    96   ar
    43    73    78   am
    44    73    74    2
    45    95    96   ar
    46    17    20    1
    47    17    18    1
    48    78    79    1
    49    96    97    1
    50    19    18    2
    51    85    83   ar
    52    20    21    1
    53    21    23   ar
    54    26    25   ar
    55    18    27   am
    56    84    83   ar
    57    83    82    1
    58    79    82    1
    59    79    80    1
    60    23    25   ar
    61    27    28    1
    62    80    81    2
    63    28    31    1
    64    28    29    1
    65    31    32    1
    66    29    30    2
    67    46    44   ar
    68    46    45   ar
    69    44    42   ar
    70    60    59    2
    71    45    43   ar
    72    42    41   ar
    73    42    40   ar
    74    59    58    1
    75    61    58    1
    76    41    39   ar
    77    43    40   ar
    78    58    57    1
    79    40    38   ar
    80    39    38   ar
    81    38    37    1
    82    57    49   am
    83    50    49    2
    84    49    48    1
    85    55    53   ar
    86    55    56   ar
    87    53    52   ar
    88    36    35    2
    89    37    34    1
    90    35    34    1
    91    56    54   ar
    92    48    47    1
    93    48    51    1
    94    34    33    1
    95    52    54   ar
    96    52    51    1
