@<TRIPOS>MOLECULE
tmp/4lsxA04.pdb
 98 94 0 0 0
SMALL
GASTEIGER

@<TRIPOS>ATOM
      1  N         41.2630   83.0460  -45.4690 N.3   491  ASN491     -0.1240
      2  CA        42.1320   82.2410  -44.6160 C.3   491  ASN491      0.1653
      3  C         43.5980   82.3730  -44.9970 C.2   491  ASN491      0.2266
      4  O         44.3490   81.3980  -44.9800 O.2   491  ASN491     -0.2867
      5  CB        41.7030   80.7740  -44.6580 C.3   491  ASN491      0.1155
      6  CG        40.4000   80.5310  -43.9260 C.2   491  ASN491      0.2627
      7  OD1       40.3870   79.9940  -42.8180 O.2   491  ASN491     -0.2716
      8  ND2       39.2940   80.9470  -44.5320 N.am  491  ASN491     -0.0877
      9  N         47.3240   85.0730  -44.9850 N.3   493  ARG493     -0.1245
     10  CA        48.1090   85.9590  -44.1390 C.3   493  ARG493      0.1563
     11  C         48.2820   87.3480  -44.7480 C.2   493  ARG493      0.2260
     12  O         49.0400   88.1640  -44.2250 O.2   493  ARG493     -0.2867
     13  CB        49.4570   85.3140  -43.8250 C.3   493  ARG493      0.0307
     14  CG        49.4020   84.4800  -42.5540 C.3   493  ARG493      0.0489
     15  CD        50.2770   83.2460  -42.6180 C.3   493  ARG493      0.2205
     16  NE        49.4970   82.0380  -42.8640 N.pl3 493  ARG493     -0.0865
     17  CZ        49.9870   80.8050  -42.7810 C.cat 493  ARG493      0.5346
     18  NH1       51.2560   80.6160  -42.4460 N.pl3 493  ARG493      0.1354
     19  NH2       49.2050   79.7620  -43.0220 N.pl3 493  ARG493      0.1354
     20  N         39.0710   86.1400  -42.8380 N.3   515  ASN515     -0.1240
     21  CA        40.2010   85.5710  -42.0990 C.3   515  ASN515      0.1653
     22  C         41.5480   86.0550  -42.6280 C.2   515  ASN515      0.2266
     23  O         42.3190   85.2800  -43.1940 O.2   515  ASN515     -0.2867
     24  CB        40.1480   84.0380  -42.1150 C.3   515  ASN515      0.1155
     25  CG        41.0790   83.4060  -41.0840 C.2   515  ASN515      0.2627
     26  OD1       41.7730   84.1050  -40.3430 O.2   515  ASN515     -0.2716
     27  ND2       41.0810   82.0750  -41.0260 N.am  515  ASN515     -0.0877
     28  N         36.9020   88.4410  -40.5140 N.3   539  THR539     -0.1218
     29  CA        38.0370   88.4990  -39.5950 C.3   539  THR539      0.1862
     30  C         39.1900   89.3170  -40.1620 C.2   539  THR539      0.2287
     31  O         39.9660   88.8340  -40.9850 O.2   539  THR539     -0.2866
     32  CB        38.5490   87.0910  -39.2410 C.3   539  THR539      0.1770
     33  OG1       37.4490   86.2680  -38.8360 O.3   539  THR539     -0.2211
     34  CG2       39.5650   87.1640  -38.1110 C.3   539  THR539      0.0375
     35  N         35.4730   79.8600  -32.1870 N.3   578  GLU578     -0.1231
     36  CA        36.6880   79.9210  -32.9970 C.3   578  GLU578      0.1699
     37  C         36.3990   79.9830  -34.4950 C.2   578  GLU578      0.2592
     38  O         37.2490   80.4000  -35.2820 O.2   578  GLU578     -0.2718
     39  CB        37.5850   78.7220  -32.6830 C.3   578  GLU578      0.0402
     40  CG        38.2680   78.8030  -31.3230 C.3   578  GLU578      0.1161
     41  CD        37.3410   78.4520  -30.1710 C.2   578  GLU578      0.3649
     42  OE1       36.1300   78.2600  -30.4080 O.co2 578  GLU578     -0.2457
     43  OE2       37.8240   78.3760  -29.0220 O.co2 578  GLU578     -0.2457
     44  N         35.2000   79.5650  -34.8850 N.am  579  CYS579     -0.1956
     45  CA        34.7630   79.6750  -36.2720 C.3   579  CYS579      0.1843
     46  C         33.9960   80.9880  -36.4100 C.2   579  CYS579      0.2625
     47  O         32.9680   81.1770  -35.7600 O.2   579  CYS579     -0.2714
     48  CB        33.9030   78.4740  -36.6740 C.3   579  CYS579      0.0997
     49  SG        33.6080   78.3040  -38.4520 S.3   579  CYS579     -0.0797
     50  N         34.4870   81.8900  -37.2550 N.am  580  HIS580     -0.1973
     51  CA        33.9990   83.2690  -37.2530 C.3   580  HIS580      0.1656
     52  C         33.2480   83.6410  -38.5250 C.2   580  HIS580      0.2291
     53  O         33.4390   83.0320  -39.5770 O.2   580  HIS580     -0.2864
     54  CB        35.1600   84.2500  -37.0610 C.3   580  HIS580      0.0771
     55  CG        35.9250   84.0500  -35.7900 C.ar  580  HIS580      0.0820
     56  ND1       36.9870   84.8500  -35.4260 N.ar  580  HIS580     -0.2267
     57  CD2       35.7880   83.1370  -34.8010 C.ar  580  HIS580      0.1154
     58  CE1       37.4680   84.4400  -34.2670 C.ar  580  HIS580      0.1986
     59  NE2       36.7580   83.4010  -33.8660 N.ar  580  HIS580     -0.2212
     60  N         39.8980   70.1860  -42.4580 N.3   600  SER600     -0.1202
     61  CA        39.9660   69.8980  -41.0230 C.3   600  SER600      0.2020
     62  C         41.1620   70.5760  -40.3710 C.2   600  SER600      0.2619
     63  O         41.0760   71.0720  -39.2480 O.2   600  SER600     -0.2717
     64  CB        40.0330   68.3910  -40.7730 C.3   600  SER600      0.2103
     65  OG        41.1230   67.8080  -41.4670 O.3   600  SER600     -0.2182
     66  N         42.2800   70.5850  -41.0850 N.am  601  THR601     -0.1938
     67  CA        43.4970   71.1950  -40.5830 C.3   601  THR601      0.2028
     68  C         43.3990   72.7140  -40.6460 C.2   601  THR601      0.2642
     69  O         43.9710   73.4110  -39.8110 O.2   601  THR601     -0.2714
     70  CB        44.7340   70.7360  -41.3810 C.3   601  THR601      0.1808
     71  OG1       44.5420   71.0220  -42.7720 O.3   601  THR601     -0.2208
     72  CG2       44.9630   69.2420  -41.2020 C.3   601  THR601      0.0379
     73  N         42.6880   73.2260  -41.6470 N.am  602  ARG602     -0.1963
     74  CA        42.6100   74.6690  -41.8430 C.3   602  ARG602      0.1729
     75  C         41.4280   75.3710  -41.1590 C.2   602  ARG602      0.2616
     76  O         41.4300   76.5960  -41.0440 O.2   602  ARG602     -0.2715
     77  CB        42.5670   74.9680  -43.3430 C.3   602  ARG602      0.0348
     78  CG        43.5670   74.1550  -44.1510 C.3   602  ARG602      0.0492
     79  CD        44.9880   74.6520  -43.9590 C.3   602  ARG602      0.2205
     80  NE        45.2110   75.9550  -44.5750 N.pl3 602  ARG602     -0.0865
     81  CZ        45.7350   76.1250  -45.7840 C.cat 602  ARG602      0.5346
     82  NH1       46.0870   75.0740  -46.5110 N.pl3 602  ARG602      0.1354
     83  NH2       45.9070   77.3460  -46.2650 N.pl3 602  ARG602      0.1354
     84  N         40.4240   74.6220  -40.7050 N.am  603  ASN603     -0.1959
     85  CA        39.2750   75.2590  -40.0560 C.3   603  ASN603      0.1804
     86  C         38.6560   74.4360  -38.9220 C.2   603  ASN603      0.2463
     87  O         38.5520   73.2130  -39.0230 O.2   603  ASN603     -0.2730
     88  CB        38.2030   75.5770  -41.1030 C.3   603  ASN603      0.1195
     89  CG        37.2370   76.6520  -40.6430 C.2   603  ASN603      0.2630
     90  OD1       37.4070   77.8310  -40.9560 O.2   603  ASN603     -0.2716
     91  ND2       36.2180   76.2520  -39.8940 N.am  603  ASN603     -0.0877
     92  N         38.2410   75.1140  -37.8370 N.am  604  PRO604     -0.2727
     93  CA        37.5940   74.5090  -36.6640 C.3   604  PRO604      0.1402
     94  C         36.0810   74.2930  -36.7750 C.2   604  PRO604      0.2269
     95  O         35.3850   74.7200  -35.8560 O.2   604  PRO604     -0.2865
     96  CB        37.8730   75.5270  -35.5450 C.3   604  PRO604      0.0296
     97  CG        38.8820   76.4810  -36.0950 C.3   604  PRO604      0.0237
     98  CD        38.6450   76.5020  -37.5650 C.3   604  PRO604      0.0939
@<TRIPOS>BOND
     1    82    81    1
     2    83    81    1
     3    81    80    2
     4     1     2    1
     5     3     4    2
     6     3     2    1
     7     9    10    1
     8    11    12    2
     9    11    10    1
    10     5     2    1
    11     5     6    1
    12    80    79    1
    13     8     6   am
    14    78    79    1
    15    78    77    1
    16    10    13    1
    17     6     7    2
    18    13    14    1
    19    77    74    1
    20    23    22    2
    21    19    17    1
    22    16    17    2
    23    16    15    1
    24    20    21    1
    25    17    18    1
    26    71    70    1
    27    22    21    1
    28    15    14    1
    29    60    61    1
    30    24    21    1
    31    24    25    1
    32    74    73    1
    33    74    75    1
    34    73    68   am
    35    65    64    1
    36    70    72    1
    37    70    67    1
    38    75    76    2
    39    75    84   am
    40    88    89    1
    41    88    85    1
    42    66    67    1
    43    66    62   am
    44    25    27   am
    45    25    26    2
    46    61    64    1
    47    61    62    1
    48    31    30    2
    49    90    89    2
    50    84    85    1
    51    68    67    1
    52    68    69    2
    53    89    91   am
    54    28    29    1
    55    62    63    2
    56    30    29    1
    57    85    86    1
    58    29    32    1
    59    53    52    2
    60    32    33    1
    61    32    34    1
    62    87    86    2
    63    86    92   am
    64    52    51    1
    65    49    48    1
    66    92    98    1
    67    92    93    1
    68    98    97    1
    69    50    51    1
    70    50    46   am
    71    51    54    1
    72    54    55    1
    73    94    93    1
    74    94    95    2
    75    48    45    1
    76    93    96    1
    77    46    45    1
    78    46    47    2
    79    45    44    1
    80    97    96    1
    81    55    56   ar
    82    55    57   ar
    83    56    58   ar
    84    38    37    2
    85    44    37   am
    86    57    59   ar
    87    37    36    1
    88    58    59   ar
    89    36    39    1
    90    36    35    1
    91    39    40    1
    92    40    41    1
    93    42    41   ar
    94    41    43   ar
