@<TRIPOS>MOLECULE
tmp/4lsxB04.pdb
 120 117 0 0 0
SMALL
GASTEIGER

@<TRIPOS>ATOM
      1  N         13.5320   65.7180 -135.4920 N.3   460  ASN460     -0.1240
      2  CA        13.7820   64.5950 -136.3930 C.3   460  ASN460      0.1653
      3  C         12.9200   63.3860 -136.0580 C.2   460  ASN460      0.2266
      4  O         13.3670   62.2420 -136.1380 O.2   460  ASN460     -0.2867
      5  CB        15.2640   64.2210 -136.3730 C.3   460  ASN460      0.1155
      6  CG        16.1290   65.2490 -137.0760 C.2   460  ASN460      0.2627
      7  OD1       16.5920   65.0270 -138.1950 O.2   460  ASN460     -0.2716
      8  ND2       16.3300   66.3930 -136.4330 N.am  460  ASN460     -0.0877
      9  N          8.6050   61.6840 -136.0210 N.3   462  ARG462     -0.1245
     10  CA         7.4090   61.5070 -136.8330 C.3   462  ARG462      0.1563
     11  C          6.1560   62.1220 -136.2160 C.2   462  ARG462      0.2260
     12  O          5.0540   61.9170 -136.7240 O.2   462  ARG462     -0.2867
     13  CB         7.1910   60.0210 -137.0970 C.3   462  ARG462      0.0307
     14  CG         7.8880   59.5310 -138.3510 C.3   462  ARG462      0.0489
     15  CD         8.3890   58.1150 -138.1790 C.3   462  ARG462      0.2205
     16  NE         9.8260   58.0660 -137.9370 N.pl3 462  ARG462     -0.0865
     17  CZ        10.5360   56.9430 -137.9170 C.cat 462  ARG462      0.5346
     18  NH1        9.9360   55.7770 -138.1150 N.pl3 462  ARG462      0.1354
     19  NH2       11.8410   56.9850 -137.6940 N.pl3 462  ARG462      0.1354
     20  N         11.9590   69.1410 -138.1100 N.3   484  ASN484     -0.1240
     21  CA        11.8990   67.8890 -138.8660 C.3   484  ASN484      0.1653
     22  C         10.7670   66.9730 -138.4060 C.2   484  ASN484      0.2266
     23  O         11.0080   65.9040 -137.8440 O.2   484  ASN484     -0.2867
     24  CB        13.2420   67.1570 -138.7790 C.3   484  ASN484      0.1155
     25  CG        13.3700   66.0330 -139.7950 C.2   484  ASN484      0.2627
     26  OD1       12.4600   65.7870 -140.5880 O.2   484  ASN484     -0.2716
     27  ND2       14.5090   65.3450 -139.7720 N.am  484  ASN484     -0.0877
     28  N         11.7510   74.2210 -138.0630 N.3   507  ASN507     -0.1225
     29  CA        12.1690   73.9560 -139.4430 C.3   507  ASN507      0.1785
     30  C         11.7710   72.5730 -139.9530 C.2   507  ASN507      0.2597
     31  O         11.6940   71.6170 -139.1820 O.2   507  ASN507     -0.2718
     32  CB        13.6850   74.1290 -139.6050 C.3   507  ASN507      0.1169
     33  CG        14.4850   73.0540 -138.8920 C.2   507  ASN507      0.2627
     34  OD1       14.5670   71.9140 -139.3510 O.2   507  ASN507     -0.2716
     35  ND2       15.1100   73.4230 -137.7850 N.am  507  ASN507     -0.0877
     36  N         11.5090   72.4920 -141.2550 N.am  508  THR508     -0.1953
     37  CA        11.0590   71.2640 -141.9060 C.3   508  THR508      0.1897
     38  C          9.7750   70.7220 -141.2840 C.2   508  THR508      0.2313
     39  O          9.8020   69.7790 -140.4940 O.2   508  THR508     -0.2863
     40  CB        12.1500   70.1700 -141.8640 C.3   508  THR508      0.1794
     41  OG1       13.4020   70.7210 -142.2900 O.3   508  THR508     -0.2208
     42  CG2       11.7790   68.9980 -142.7650 C.3   508  THR508      0.0378
     43  N         20.0160   68.5480 -148.2560 N.3   547  GLU547     -0.1231
     44  CA        19.3260   67.6380 -147.3530 C.3   547  GLU547      0.1699
     45  C         19.4430   68.1410 -145.9210 C.2   547  GLU547      0.2592
     46  O         18.6990   67.7150 -145.0410 O.2   547  GLU547     -0.2718
     47  CB        19.8820   66.2160 -147.4750 C.3   547  GLU547      0.0402
     48  CG        19.4730   65.4850 -148.7520 C.3   547  GLU547      0.1161
     49  CD        20.2680   65.9150 -149.9720 C.2   547  GLU547      0.3649
     50  OE1       21.0610   66.8730 -149.8700 O.co2 547  GLU547     -0.2457
     51  OE2       20.0970   65.2910 -151.0410 O.co2 547  GLU547     -0.2457
     52  N         20.3870   69.0490 -145.6980 N.am  548  CYS548     -0.1956
     53  CA        20.5580   69.6740 -144.3930 C.3   548  CYS548      0.1843
     54  C         19.7360   70.9540 -144.3080 C.2   548  CYS548      0.2625
     55  O         19.9750   71.9070 -145.0500 O.2   548  CYS548     -0.2714
     56  CB        22.0350   69.9730 -144.1360 C.3   548  CYS548      0.0997
     57  SG        22.4190   70.4440 -142.4410 S.3   548  CYS548     -0.0797
     58  N         18.7670   70.9710 -143.3980 N.am  549  HIS549     -0.1973
     59  CA        17.7590   72.0270 -143.3720 C.3   549  HIS549      0.1656
     60  C         17.8250   72.8780 -142.1100 C.2   549  HIS549      0.2291
     61  O         18.3300   72.4430 -141.0740 O.2   549  HIS549     -0.2864
     62  CB        16.3550   71.4320 -143.5070 C.3   549  HIS549      0.0771
     63  CG        16.1410   70.6570 -144.7700 C.ar  549  HIS549      0.0820
     64  ND1       14.9380   70.0630 -145.0830 N.ar  549  HIS549     -0.2267
     65  CD2       16.9740   70.3840 -145.8020 C.ar  549  HIS549      0.1154
     66  CE1       15.0400   69.4540 -146.2510 C.ar  549  HIS549      0.1986
     67  NE2       16.2650   69.6330 -146.7080 N.ar  549  HIS549     -0.2212
     68  N         25.2660   60.8630 -138.2230 N.3   569  SER569     -0.1202
     69  CA        25.4890   60.6850 -139.6590 C.3   569  SER569      0.2020
     70  C         24.3750   59.9030 -140.3480 C.2   569  SER569      0.2619
     71  O         23.9470   60.2570 -141.4470 O.2   569  SER569     -0.2717
     72  CB        26.8260   59.9840 -139.9050 C.3   569  SER569      0.2103
     73  OG        26.8920   58.7510 -139.2100 O.3   569  SER569     -0.2182
     74  N         23.9080   58.8400 -139.7010 N.am  570  THR570     -0.1938
     75  CA        22.8550   58.0120 -140.2740 C.3   570  THR570      0.2028
     76  C         21.4850   58.6690 -140.1360 C.2   570  THR570      0.2642
     77  O         20.6300   58.5190 -141.0040 O.2   570  THR570     -0.2714
     78  CB        22.8170   56.6180 -139.6220 C.3   570  THR570      0.1808
     79  OG1       22.6720   56.7550 -138.2030 O.3   570  THR570     -0.2208
     80  CG2       24.0980   55.8550 -139.9250 C.3   570  THR570      0.0379
     81  N         21.2750   59.3830 -139.0350 N.am  571  ARG571     -0.1963
     82  CA        19.9860   60.0170 -138.7760 C.3   571  ARG571      0.1729
     83  C         19.9090   61.4580 -139.2840 C.2   571  ARG571      0.2616
     84  O         18.8230   62.0330 -139.3620 O.2   571  ARG571     -0.2715
     85  CB        19.6800   59.9870 -137.2760 C.3   571  ARG571      0.0348
     86  CG        19.9260   58.6420 -136.6100 C.3   571  ARG571      0.0492
     87  CD        18.8240   57.6490 -136.9430 C.3   571  ARG571      0.2205
     88  NE        17.5610   58.0080 -136.3030 N.pl3 571  ARG571     -0.0865
     89  CZ        17.1380   57.5020 -135.1490 C.cat 571  ARG571      0.5346
     90  NH1       17.8760   56.6120 -134.5010 N.pl3 571  ARG571      0.1354
     91  NH2       15.9750   57.8870 -134.6410 N.pl3 571  ARG571      0.1354
     92  N         21.0550   62.0390 -139.6290 N.am  572  ASN572     -0.1959
     93  CA        21.0950   63.4300 -140.0750 C.3   572  ASN572      0.1804
     94  C         22.1540   63.6730 -141.1560 C.2   572  ASN572      0.2463
     95  O         23.2360   63.0880 -141.1090 O.2   572  ASN572     -0.2730
     96  CB        21.3430   64.3420 -138.8690 C.3   572  ASN572      0.1195
     97  CG        20.9100   65.7710 -139.1150 C.2   572  ASN572      0.2630
     98  OD1       21.7240   66.6250 -139.4570 O.2   572  ASN572     -0.2716
     99  ND2       19.6200   66.0370 -138.9450 N.am  572  ASN572     -0.0877
    100  N         21.8430   64.5410 -142.1350 N.am  573  PRO573     -0.2716
    101  CA        22.7490   64.8840 -143.2410 C.3   573  PRO573      0.1536
    102  C         23.9000   65.8280 -142.8740 C.2   573  PRO573      0.2599
    103  O         24.8700   65.9080 -143.6290 O.2   573  PRO573     -0.2715
    104  CB        21.8190   65.5600 -144.2630 C.3   573  PRO573      0.0310
    105  CG        20.4250   65.2580 -143.8060 C.3   573  PRO573      0.0237
    106  CD        20.5080   65.1280 -142.3300 C.3   573  PRO573      0.0939
    107  N         23.7970   66.5310 -141.7500 N.am  574  CYS574     -0.1954
    108  CA        24.8060   67.5230 -141.3760 C.3   574  CYS574      0.1843
    109  C         25.2730   67.3550 -139.9240 C.2   574  CYS574      0.2625
    110  O         24.4570   67.5100 -139.0150 O.2   574  CYS574     -0.2714
    111  CB        24.2610   68.9370 -141.5910 C.3   574  CYS574      0.0997
    112  SG        22.6520   69.2460 -140.8240 S.3   574  CYS574     -0.0797
    113  N         26.5520   67.0460 -139.6600 N.am  575  ASN575     -0.1972
    114  CA        27.6750   66.8960 -140.6070 C.3   575  ASN575      0.1688
    115  C         27.9440   68.1000 -141.5140 C.2   575  ASN575      0.2292
    116  O         27.8120   69.2500 -141.0920 O.2   575  ASN575     -0.2864
    117  CB        27.4910   65.6350 -141.4690 C.3   575  ASN575      0.1181
    118  CG        27.1430   64.3700 -140.7170 C.2   575  ASN575      0.2629
    119  OD1       27.8530   63.9620 -139.8070 O.2   575  ASN575     -0.2716
    120  ND2       26.0620   63.7340 -141.1320 N.am  575  ASN575     -0.0877
@<TRIPOS>BOND
     1    51    49   ar
     2    49    50   ar
     3    49    48    1
     4    48    47    1
     5    43    44    1
     6    47    44    1
     7    44    45    1
     8    67    66   ar
     9    67    65   ar
    10    66    64   ar
    11    45    52   am
    12    45    46    2
    13    65    63   ar
    14    52    53    1
    15    64    63   ar
    16    55    54    2
    17    63    62    1
    18    53    54    1
    19    53    56    1
    20    54    58   am
    21   104   105    1
    22   104   101    1
    23    56    57    1
    24   105   106    1
    25   103   102    2
    26    62    59    1
    27    58    59    1
    28    59    60    1
    29   101   102    1
    30   101   100    1
    31   102   107   am
    32    42    40    1
    33    57   112    1
    34   106   100    1
    35    41    40    1
    36   100    94   am
    37    60    61    2
    38    37    40    1
    39    37    38    1
    40    37    36    1
    41   107   108    1
    42   111   108    1
    43   111   112    1
    44   115   116    2
    45   115   114    1
    46   117   118    1
    47   117   114    1
    48    71    70    2
    49   108   109    1
    50    38    39    2
    51    36    30   am
    52    94    95    2
    53    94    93    1
    54   120   118   am
    55    77    76    2
    56   118   119    2
    57   114   113    1
    58    26    25    2
    59    70    74   am
    60    70    69    1
    61    75    76    1
    62    75    74    1
    63    75    78    1
    64    76    81   am
    65    93    92    1
    66    93    96    1
    67    30    29    1
    68    30    31    2
    69    80    78    1
    70   109   113   am
    71   109   110    2
    72    72    69    1
    73    72    73    1
    74    25    27   am
    75    25    24    1
    76    69    68    1
    77    92    83   am
    78    78    79    1
    79    32    29    1
    80    32    33    1
    81    98    97    2
    82    29    28    1
    83    84    83    2
    84    34    33    2
    85    83    82    1
    86    97    99   am
    87    97    96    1
    88    81    82    1
    89    33    35   am
    90    21    24    1
    91    21    22    1
    92    21    20    1
    93    82    85    1
    94    22    23    2
    95    14    15    1
    96    14    13    1
    97     7     6    2
    98    15    16    1
    99    18    17    1
   100    16    17    2
   101    17    19    1
   102    85    86    1
   103    13    10    1
   104     6     8   am
   105     6     5    1
   106    87    86    1
   107    87    88    1
   108    10    11    1
   109    10     9    1
   110    12    11    2
   111     2     5    1
   112     2     3    1
   113     2     1    1
   114    88    89    2
   115     4     3    2
   116    89    91    1
   117    89    90    1
