@<TRIPOS>MOLECULE
tmp/4lsxB03.pdb
 76 69 0 0 0
SMALL
GASTEIGER

@<TRIPOS>ATOM
      1  N         43.3140   81.3560 -103.7750 N.3   169  SER169     -0.1202
      2  CA        42.6760   80.8630 -104.9920 C.3   169  SER169      0.2020
      3  C         42.0980   81.9820 -105.8450 C.2   169  SER169      0.2619
      4  O         41.8720   83.0850 -105.3610 O.2   169  SER169     -0.2717
      5  CB        41.5680   79.8630 -104.6600 C.3   169  SER169      0.2103
      6  OG        40.5500   80.4680 -103.8830 O.3   169  SER169     -0.2182
      7  N         41.9010   81.6890 -107.1270 N.am  170  SER170     -0.1951
      8  CA        41.3560   82.6470 -108.0830 C.3   170  SER170      0.1924
      9  C         42.2020   83.9110 -108.1250 C.2   170  SER170      0.2314
     10  O         41.7480   84.9920 -107.7470 O.2   170  SER170     -0.2863
     11  CB        39.9040   82.9920 -107.7400 C.3   170  SER170      0.2116
     12  OG        39.0940   81.8300 -107.7190 O.3   170  SER170     -0.2180
     13  N         43.8350   76.5030 -100.2650 N.3   190  ASP190     -0.1239
     14  CA        43.2970   76.5850 -101.6130 C.3   190  ASP190      0.1674
     15  C         44.1900   77.4710 -102.4780 C.2   190  ASP190      0.2266
     16  O         44.2000   78.6930 -102.3340 O.2   190  ASP190     -0.2867
     17  CB        41.8650   77.1280 -101.5780 C.3   190  ASP190      0.1410
     18  CG        41.1220   76.9070 -102.8790 C.2   190  ASP190      0.3668
     19  OD1       41.7830   76.7750 -103.9250 O.co2 190  ASP190     -0.2456
     20  OD2       39.8740   76.8650 -102.8550 O.co2 190  ASP190     -0.2456
     21  N         43.8820   77.0570 -105.8080 N.3   192  SER192     -0.1202
     22  CA        43.2360   76.7700 -107.0870 C.3   192  SER192      0.2020
     23  C         42.9920   78.0030 -107.9500 C.2   192  SER192      0.2619
     24  O         42.9780   79.1260 -107.4610 O.2   192  SER192     -0.2717
     25  CB        41.9030   76.0520 -106.8590 C.3   192  SER192      0.2103
     26  OG        41.0480   76.8180 -106.0290 O.3   192  SER192     -0.2182
     27  N         42.8190   77.7790 -109.2470 N.am  193  GLY193     -0.1956
     28  CA        42.5330   78.8600 -110.1700 C.3   193  GLY193      0.1869
     29  C         43.7470   79.7180 -110.4580 C.2   193  GLY193      0.2309
     30  O         43.6600   80.9460 -110.4860 O.2   193  GLY193     -0.2863
     31  N         41.7970   70.1170  -96.0420 N.3   212  LEU212     -0.1245
     32  CA        41.3470   70.3860  -97.4010 C.3   212  LEU212      0.1561
     33  C         42.4850   70.9290  -98.2580 C.2   212  LEU212      0.2260
     34  O         43.1360   71.9090  -97.8960 O.2   212  LEU212     -0.2867
     35  CB        40.1730   71.3720  -97.3930 C.3   212  LEU212      0.0270
     36  CG        39.4170   71.6070  -98.7050 C.3   212  LEU212      0.0019
     37  CD1       37.9420   71.8360  -98.4230 C.3   212  LEU212      0.0001
     38  CD2       39.9910   72.7860  -99.4780 C.3   212  LEU212      0.0001
     39  N         43.0520   72.1870 -102.1590 N.3   214  ASN214     -0.1240
     40  CA        42.5190   72.4950 -103.4760 C.3   214  ASN214      0.1653
     41  C         43.6170   73.0710 -104.3660 C.2   214  ASN214      0.2266
     42  O         43.9740   74.2420 -104.2400 O.2   214  ASN214     -0.2867
     43  CB        41.3700   73.4950 -103.3170 C.3   214  ASN214      0.1155
     44  CG        40.3890   73.4770 -104.4690 C.2   214  ASN214      0.2627
     45  OD1       40.7270   73.1260 -105.6000 O.2   214  ASN214     -0.2716
     46  ND2       39.1520   73.8760 -104.1750 N.am  214  ASN214     -0.0877
     47  N         43.2530   72.7710 -107.7450 N.3   216  SER216     -0.1202
     48  CA        42.5990   72.6310 -109.0450 C.3   216  SER216      0.2020
     49  C         42.7860   73.8310 -109.9700 C.2   216  SER216      0.2619
     50  O         43.0950   74.9300 -109.5230 O.2   216  SER216     -0.2717
     51  CB        41.1040   72.3710 -108.8480 C.3   216  SER216      0.2103
     52  OG        40.4690   73.4880 -108.2520 O.3   216  SER216     -0.2182
     53  N         42.6250   73.5870 -111.2690 N.am  217  SER217     -0.1951
     54  CA        42.8030   74.6100 -112.2980 C.3   217  SER217      0.1924
     55  C         44.2040   75.2140 -112.2770 C.2   217  SER217      0.2314
     56  O         44.3740   76.3900 -111.9610 O.2   217  SER217     -0.2863
     57  CB        41.7560   75.7180 -112.1470 C.3   217  SER217      0.2116
     58  OG        40.4460   75.2080 -112.3180 O.3   217  SER217     -0.2180
     59  N         39.3140   66.5750  -97.5870 N.3   234  TYR234     -0.1241
     60  CA        38.8950   66.8380  -98.9600 C.3   234  TYR234      0.1605
     61  C         40.1070   67.0810  -99.8550 C.2   234  TYR234      0.2264
     62  O         41.0090   67.8370  -99.4960 O.2   234  TYR234     -0.2867
     63  CB        37.9430   68.0350  -99.0120 C.3   234  TYR234      0.0534
     64  CG        37.3140   68.2530 -100.3680 C.ar  234  TYR234     -0.0201
     65  CD1       36.1290   67.6150 -100.7110 C.ar  234  TYR234     -0.0009
     66  CD2       37.9000   69.0940 -101.3040 C.ar  234  TYR234     -0.0009
     67  CE1       35.5470   67.8060 -101.9470 C.ar  234  TYR234      0.0417
     68  CE2       37.3260   69.2890 -102.5450 C.ar  234  TYR234      0.0417
     69  CZ        36.1480   68.6450 -102.8600 C.ar  234  TYR234      0.1957
     70  OH        35.5690   68.8370 -104.0930 O.3   234  TYR234     -0.2866
     71  N         41.3710   67.8220 -103.9770 N.3   236  SER236     -0.1217
     72  CA        41.1060   68.0980 -105.3870 C.3   236  SER236      0.1889
     73  C         42.3810   68.3810 -106.1860 C.2   236  SER236      0.2288
     74  O         43.0410   69.4020 -105.9910 O.2   236  SER236     -0.2866
     75  CB        40.1410   69.2780 -105.5180 C.3   236  SER236      0.2089
     76  OG        39.8120   69.5250 -106.8740 O.3   236  SER236     -0.2183
@<TRIPOS>BOND
     1    58    57    1
     2    54    55    1
     3    54    57    1
     4    54    53    1
     5    55    56    2
     6    53    49   am
     7    30    29    2
     8    29    28    1
     9    28    27    1
    10    49    50    2
    11    49    48    1
    12    27    23   am
    13    48    51    1
    14    48    47    1
    15    51    52    1
    16     9     8    1
    17     9    10    2
    18     8    11    1
    19     8     7    1
    20    23    24    2
    21    23    22    1
    22    11    12    1
    23     7     3   am
    24    22    25    1
    25    22    21    1
    26    76    75    1
    27    25    26    1
    28    73    74    2
    29    73    72    1
    30     3     4    2
    31     3     2    1
    32    45    44    2
    33    75    72    1
    34    72    71    1
    35     2     5    1
    36     2     1    1
    37     5     6    1
    38    44    46   am
    39    44    43    1
    40    41    42    2
    41    41    40    1
    42    70    69    1
    43    19    18   ar
    44    40    43    1
    45    40    39    1
    46    18    20   ar
    47    18    17    1
    48    69    68   ar
    49    69    67   ar
    50    68    66   ar
    51    15    16    2
    52    15    14    1
    53    67    65   ar
    54    14    17    1
    55    14    13    1
    56    66    64   ar
    57    65    64   ar
    58    64    63    1
    59    61    62    2
    60    61    60    1
    61    38    36    1
    62    63    60    1
    63    60    59    1
    64    36    37    1
    65    36    35    1
    66    33    34    2
    67    33    32    1
    68    32    35    1
    69    32    31    1
