@<TRIPOS>MOLECULE
tmp/4lsxB02.pdb
 87 80 0 0 0
SMALL
GASTEIGER

@<TRIPOS>ATOM
      1  N         26.9220   94.0200  -94.7620 N.3    46  SER46      -0.1217
      2  CA        26.8780   93.2450  -96.0080 C.3    46  SER46       0.1889
      3  C         25.7160   93.6200  -96.9370 C.2    46  SER46       0.2288
      4  O         24.5590   93.6690  -96.5210 O.2    46  SER46      -0.2866
      5  CB        26.8070   91.7490  -95.6940 C.3    46  SER46       0.2089
      6  OG        25.5010   91.2440  -95.9060 O.3    46  SER46      -0.2183
      7  N         31.8080   93.5510  -90.8830 N.3    67  ASP67      -0.1239
      8  CA        31.4180   93.0250  -92.1850 C.3    67  ASP67       0.1674
      9  C         31.1330   94.1810  -93.1430 C.2    67  ASP67       0.2266
     10  O         30.0980   94.8380  -93.0490 O.2    67  ASP67      -0.2867
     11  CB        30.1880   92.1210  -92.0380 C.3    67  ASP67       0.1410
     12  CG        29.8920   91.3080  -93.2870 C.2    67  ASP67       0.3668
     13  OD1       30.1900   91.7740  -94.4050 O.co2  67  ASP67      -0.2456
     14  OD2       29.3490   90.1920  -93.1460 O.co2  67  ASP67      -0.2456
     15  N         31.2660   93.5130  -96.4620 N.3    69  SER69      -0.1202
     16  CA        31.1690   92.7520  -97.7050 C.3    69  SER69       0.2020
     17  C         30.0460   93.1950  -98.6380 C.2    69  SER69       0.2618
     18  O         29.0520   93.7740  -98.2040 O.2    69  SER69      -0.2717
     19  CB        31.0010   91.2660  -97.3930 C.3    69  SER69       0.2103
     20  OG        29.8830   91.0420  -96.5540 O.3    69  SER69      -0.2182
     21  N         30.2380   92.9250  -99.9280 N.am   70  ARG70      -0.1979
     22  CA        29.2630   93.2400 -100.9700 C.3    70  ARG70       0.1597
     23  C         28.8980   94.7200 -101.0000 C.2    70  ARG70       0.2287
     24  O         27.7220   95.0760 -100.9630 O.2    70  ARG70      -0.2864
     25  CB        27.9950   92.3970 -100.7980 C.3    70  ARG70       0.0334
     26  CG        28.2350   90.8970 -100.8370 C.3    70  ARG70       0.0492
     27  CD        26.9700   90.1280 -100.4940 C.3    70  ARG70       0.2205
     28  NE        25.9680   90.2360 -101.5510 N.pl3  70  ARG70      -0.0865
     29  CZ        24.7480   89.7140 -101.4820 C.cat  70  ARG70       0.5346
     30  NH1       24.3720   89.0410 -100.4030 N.pl3  70  ARG70       0.1354
     31  NH2       23.9030   89.8640 -102.4930 N.pl3  70  ARG70       0.1354
     32  N         38.5760   90.7720  -86.5620 N.3    91  PHE91      -0.1241
     33  CA        37.8630   90.2490  -87.7290 C.3    91  PHE91       0.1605
     34  C         37.5040   91.3220  -88.7590 C.2    91  PHE91       0.2264
     35  O         36.7970   92.2770  -88.4430 O.2    91  PHE91      -0.2867
     36  CB        36.5880   89.5330  -87.2690 C.3    91  PHE91       0.0534
     37  CG        35.7260   89.0330  -88.3960 C.ar   91  PHE91      -0.0203
     38  CD1       35.9840   87.8110  -88.9890 C.ar   91  PHE91      -0.0042
     39  CD2       34.6550   89.7820  -88.8580 C.ar   91  PHE91      -0.0042
     40  CE1       35.1980   87.3460  -90.0230 C.ar   91  PHE91      -0.0003
     41  CE2       33.8640   89.3230  -89.8920 C.ar   91  PHE91      -0.0003
     42  CZ        34.1360   88.1020  -90.4760 C.ar   91  PHE91      -0.0000
     43  N         36.0260   91.7710  -92.7720 N.3    93  ASN93      -0.1240
     44  CA        35.5010   91.3020  -94.0530 C.3    93  ASN93       0.1653
     45  C         35.2490   92.4720  -95.0080 C.2    93  ASN93       0.2266
     46  O         34.2640   93.1930  -94.8610 O.2    93  ASN93      -0.2867
     47  CB        34.1970   90.5300  -93.8120 C.3    93  ASN93       0.1155
     48  CG        33.8500   89.5660  -94.9340 C.2    93  ASN93       0.2627
     49  OD1       34.2240   89.7650  -96.0900 O.2    93  ASN93      -0.2716
     50  ND2       33.1020   88.5170  -94.5880 N.am   93  ASN93      -0.0877
     51  N         35.1740   91.8130  -98.3850 N.3    95  SER95      -0.1202
     52  CA        34.9770   91.0830  -99.6390 C.3    95  SER95       0.2020
     53  C         33.9280   91.6880 -100.5710 C.2    95  SER95       0.2619
     54  O         32.9830   92.3330 -100.1270 O.2    95  SER95      -0.2717
     55  CB        34.6080   89.6260  -99.3430 C.3    95  SER95       0.2103
     56  OG        33.4040   89.5420  -98.6040 O.3    95  SER95      -0.2182
     57  N         34.1350   91.4870 -101.8700 N.am   96  SER96      -0.1951
     58  CA        33.2590   92.0110 -102.9170 C.3    96  SER96       0.1924
     59  C         33.1590   93.5350 -102.8880 C.2    96  SER96       0.2314
     60  O         32.0640   94.0950 -102.8550 O.2    96  SER96      -0.2863
     61  CB        31.8610   91.3940 -102.8110 C.3    96  SER96       0.2116
     62  OG        31.9060   89.9890 -102.9900 O.3    96  SER96      -0.2180
     63  N         41.7180   87.2960  -88.2710 N.3   116  VAL116     -0.1245
     64  CA        40.9670   86.8790  -89.4540 C.3   116  VAL116      0.1561
     65  C         40.8670   88.0120  -90.4750 C.2   116  VAL116      0.2260
     66  O         40.3990   89.1060  -90.1560 O.2   116  VAL116     -0.2867
     67  CB        39.5390   86.4110  -89.0890 C.3   116  VAL116      0.0252
     68  CG1       38.7300   86.1520  -90.3500 C.3   116  VAL116      0.0019
     69  CG2       39.5820   85.1630  -88.2160 C.3   116  VAL116      0.0019
     70  N         39.6650   88.8240  -94.6010 N.3   118  ASP118     -0.1239
     71  CA        39.1280   88.4500  -95.9040 C.3   118  ASP118      0.1674
     72  C         39.1510   89.6420  -96.8630 C.2   118  ASP118      0.2266
     73  O         38.3610   90.5750  -96.7280 O.2   118  ASP118     -0.2867
     74  CB        37.6990   87.9200  -95.7480 C.3   118  ASP118      0.1410
     75  CG        37.2170   87.1610  -96.9670 C.2   118  ASP118      0.3668
     76  OD1       37.7140   87.4310  -98.0760 O.co2 118  ASP118     -0.2456
     77  OD2       36.3310   86.2940  -96.8150 O.co2 118  ASP118     -0.2456
     78  N         43.4360   83.2160  -90.1510 N.3   143  HIS143     -0.1241
     79  CA        42.6050   83.1170  -91.3520 C.3   143  HIS143      0.1621
     80  C         42.9560   84.1780  -92.3970 C.2   143  HIS143      0.2264
     81  O         42.9600   85.3730  -92.0980 O.2   143  HIS143     -0.2867
     82  CB        41.1260   83.2280  -90.9660 C.3   143  HIS143      0.0745
     83  CG        40.1790   82.8470  -92.0620 C.ar  143  HIS143      0.0817
     84  ND1       40.0900   83.5420  -93.2480 N.ar  143  HIS143     -0.2268
     85  CD2       39.2710   81.8460  -92.1440 C.ar  143  HIS143      0.1154
     86  CE1       39.1710   82.9830  -94.0170 C.ar  143  HIS143      0.1986
     87  NE2       38.6600   81.9520  -93.3700 N.ar  143  HIS143     -0.2212
@<TRIPOS>BOND
     1    62    61    1
     2    58    59    1
     3    58    61    1
     4    58    57    1
     5    59    60    2
     6    31    29    1
     7    57    53   am
     8    28    29    2
     9    28    27    1
    10    29    30    1
    11    23    22    1
    12    23    24    2
    13    22    25    1
    14    22    21    1
    15    26    25    1
    16    26    27    1
    17    53    54    2
    18    53    52    1
    19    21    17   am
    20    52    55    1
    21    52    51    1
    22    55    56    1
    23    17    18    2
    24    17    16    1
    25    76    75   ar
    26    16    19    1
    27    16    15    1
    28    19    20    1
    29    75    77   ar
    30    75    74    1
    31     3     4    2
    32     3     2    1
    33    72    73    2
    34    72    71    1
    35    49    48    2
    36     2     5    1
    37     2     1    1
    38     6     5    1
    39    71    74    1
    40    71    70    1
    41    45    46    2
    42    45    44    1
    43    48    50   am
    44    48    47    1
    45    13    12   ar
    46    44    47    1
    47    44    43    1
    48    86    87   ar
    49    86    84   ar
    50    87    85   ar
    51    12    14   ar
    52    12    11    1
    53    84    83   ar
    54     9    10    2
    55     9     8    1
    56    80    81    2
    57    80    79    1
    58     8    11    1
    59     8     7    1
    60    85    83   ar
    61    83    82    1
    62    79    82    1
    63    79    78    1
    64    42    40   ar
    65    42    41   ar
    66    65    66    2
    67    65    64    1
    68    68    67    1
    69    40    38   ar
    70    41    39   ar
    71    64    67    1
    72    64    63    1
    73    67    69    1
    74    38    37   ar
    75    39    37   ar
    76    34    35    2
    77    34    33    1
    78    37    36    1
    79    33    36    1
    80    33    32    1
