@<TRIPOS>MOLECULE
tmp/4lt0A01.pdb
 95 93 0 0 0
SMALL
GASTEIGER

@<TRIPOS>ATOM
      1  N        -24.0420    2.3250  -15.6160 N.3    34  PHE34      -0.1227
      2  CA       -24.7390    3.5680  -15.3560 C.3    34  PHE34       0.1736
      3  C        -24.0720    4.2410  -14.1870 C.2    34  PHE34       0.2595
      4  O        -24.4550    5.3470  -13.8050 O.2    34  PHE34      -0.2718
      5  CB       -26.2560    3.3270  -15.1130 C.3    34  PHE34       0.0547
      6  CG       -27.0410    2.9530  -16.3600 C.ar   34  PHE34      -0.0202
      7  CD1      -26.8940    3.6510  -17.5450 C.ar   34  PHE34      -0.0042
      8  CD2      -27.9480    1.9240  -16.3280 C.ar   34  PHE34      -0.0042
      9  CE1      -27.6020    3.3160  -18.6760 C.ar   34  PHE34      -0.0003
     10  CE2      -28.6700    1.5800  -17.4740 C.ar   34  PHE34      -0.0003
     11  CZ       -28.4940    2.2690  -18.6350 C.ar   34  PHE34      -0.0000
     12  N        -23.1000    3.5700  -13.5820 N.am   35  GLU35      -0.1979
     13  CA       -22.2900    4.2300  -12.5590 C.3    35  GLU35       0.1602
     14  C        -20.9880    4.8280  -13.1520 C.2    35  GLU35       0.2287
     15  O        -20.7560    5.9790  -12.9920 O.2    35  GLU35      -0.2864
     16  CB       -21.9420    3.2700  -11.4430 C.3    35  GLU35       0.0415
     17  CG       -23.1440    2.8340  -10.5980 C.3    35  GLU35       0.1163
     18  CD       -23.5460    3.9120   -9.6250 C.2    35  GLU35       0.3649
     19  OE1      -23.0160    5.0380   -9.7110 O.co2  35  GLU35      -0.2457
     20  OE2      -24.4130    3.6280   -8.8010 O.co2  35  GLU35      -0.2457
     21  N        -16.3160   10.8450   -9.1610 N.3    44  ASN44      -0.1225
     22  CA       -17.4340   11.7430   -9.0790 C.3    44  ASN44       0.1785
     23  C        -17.6340   12.1500   -7.6130 C.2    44  ASN44       0.2597
     24  O        -17.7680   11.3290   -6.7430 O.2    44  ASN44      -0.2718
     25  CB       -18.6770   11.0730   -9.6110 C.3    44  ASN44       0.1169
     26  CG       -18.6740   10.9490  -11.1290 C.2    44  ASN44       0.2627
     27  OD1      -18.7420   11.9530  -11.8170 O.2    44  ASN44      -0.2716
     28  ND2      -18.6380    9.7330  -11.6430 N.am   44  ASN44      -0.0877
     29  N        -17.6330   13.4630   -7.3990 N.am   45  ARG45      -0.1966
     30  CA       -17.9780   14.0670   -6.1670 C.3    45  ARG45       0.1729
     31  C        -19.4470   13.9140   -5.8330 C.2    45  ARG45       0.2616
     32  O        -20.3290   14.0880   -6.6650 O.2    45  ARG45      -0.2715
     33  CB       -17.7040   15.5420   -6.2800 C.3    45  ARG45       0.0348
     34  CG       -17.9250   16.2720   -4.9560 C.3    45  ARG45       0.0492
     35  CD       -16.7010   16.1230   -4.0960 C.3    45  ARG45       0.2205
     36  NE       -15.5920   16.6500   -4.8830 N.pl3  45  ARG45      -0.0865
     37  CZ       -14.4560   17.0900   -4.3740 C.cat  45  ARG45       0.5346
     38  NH1      -14.2310   17.0740   -3.0580 N.pl3  45  ARG45       0.1354
     39  NH2      -13.5520   17.5750   -5.2060 N.pl3  45  ARG45       0.1354
     40  N        -19.7040   13.5820   -4.5880 N.am   46  ASN46      -0.1972
     41  CA       -21.0810   13.5660   -4.1040 C.3    46  ASN46       0.1688
     42  C        -21.3540   14.9250   -3.4700 C.2    46  ASN46       0.2292
     43  O        -20.4060   15.6060   -3.0530 O.2    46  ASN46      -0.2864
     44  CB       -21.2620   12.4470   -3.0720 C.3    46  ASN46       0.1181
     45  CG       -21.0100   11.0670   -3.6430 C.2    46  ASN46       0.2629
     46  OD1      -20.2900   10.2570   -3.0360 O.2    46  ASN46      -0.2716
     47  ND2      -21.6320   10.7640   -4.7840 N.am   46  ASN46      -0.0877
     48  N        -16.9120    9.0650   -5.2500 N.3    52  ASP52      -0.1239
     49  CA       -17.1620    7.7120   -5.7130 C.3    52  ASP52       0.1674
     50  C        -16.0670    7.3880   -6.6940 C.2    52  ASP52       0.2266
     51  O        -15.6810    8.2240   -7.5450 O.2    52  ASP52      -0.2867
     52  CB       -18.5120    7.6390   -6.4440 C.3    52  ASP52       0.1410
     53  CG       -19.7160    8.0360   -5.5260 C.2    52  ASP52       0.3668
     54  OD1      -19.7280    7.7250   -4.3030 O.co2  52  ASP52      -0.2456
     55  OD2      -20.6290    8.6830   -6.0580 O.co2  52  ASP52      -0.2456
     56  N        -18.1930    2.8420   -8.5850 N.3    57  GLN57      -0.1245
     57  CA       -18.4810    4.1340   -8.0010 C.3    57  GLN57       0.1566
     58  C        -18.6050    4.0310   -6.4820 C.2    57  GLN57       0.2260
     59  O        -19.4860    4.5840   -5.8920 O.2    57  GLN57      -0.2867
     60  CB       -19.6780    4.7860   -8.6810 C.3    57  GLN57       0.0367
     61  CG       -19.3530    5.3370  -10.0850 C.3    57  GLN57       0.0905
     62  CD       -18.3110    6.4790  -10.0350 C.2    57  GLN57       0.2608
     63  OE1      -18.6130    7.6140   -9.7190 O.2    57  GLN57      -0.2717
     64  NE2      -17.0680    6.1380  -10.3350 N.am   57  GLN57      -0.0878
     65  N        -27.8540   -0.0110   -2.5300 N.3   107  ALA107     -0.1231
     66  CA       -26.7470    0.8690   -2.2000 C.3   107  ALA107      0.1694
     67  C        -26.2360    1.5740   -3.4370 C.2   107  ALA107      0.2592
     68  O        -25.6690    2.6310   -3.3140 O.2   107  ALA107     -0.2718
     69  CB       -25.6120    0.0980   -1.5510 C.3   107  ALA107      0.0304
     70  N        -26.4590    1.0120   -4.6290 N.am  108  TRP108     -0.1962
     71  CA       -26.1350    1.6820   -5.8560 C.3   108  TRP108      0.1771
     72  C        -27.3930    2.3710   -6.4300 C.2   108  TRP108      0.2619
     73  O        -28.3500    1.7310   -6.8400 O.2   108  TRP108     -0.2715
     74  CB       -25.5660    0.6770   -6.8240 C.3   108  TRP108      0.0590
     75  CG       -24.1840    0.2800   -6.5070 C.ar  108  TRP108      0.0006
     76  CD1      -23.0110    0.9140   -6.9190 C.ar  108  TRP108      0.0946
     77  CD2      -23.7800   -0.8950   -5.8170 C.ar  108  TRP108      0.0152
     78  NE1      -21.9270    0.1830   -6.4960 N.ar  108  TRP108     -0.2442
     79  CE2      -22.3620   -0.8980   -5.7830 C.ar  108  TRP108      0.0810
     80  CE3      -24.4660   -1.9320   -5.1960 C.ar  108  TRP108      0.0012
     81  CZ2      -21.6480   -1.9010   -5.1780 C.ar  108  TRP108      0.0191
     82  CZ3      -23.7440   -2.9200   -4.5560 C.ar  108  TRP108      0.0001
     83  CH2      -22.3540   -2.9020   -4.5540 C.ar  108  TRP108      0.0015
     84  N        -27.3660    3.6980   -6.4460 N.am  109  VAL109     -0.1963
     85  CA       -28.5310    4.5010   -6.8340 C.3   109  VAL109      0.1727
     86  C        -28.7840    4.3600   -8.3050 C.2   109  VAL109      0.2616
     87  O        -29.9170    4.3880   -8.7420 O.2   109  VAL109     -0.2715
     88  CB       -28.3260    6.0020   -6.5960 C.3   109  VAL109      0.0290
     89  CG1      -29.6780    6.6790   -6.6490 C.3   109  VAL109      0.0023
     90  CG2      -27.6690    6.2640   -5.2570 C.3   109  VAL109      0.0023
     91  N        -27.7210    4.1860   -9.0760 N.am  110  ALA110     -0.1977
     92  CA       -27.9170    3.9560  -10.5020 C.3   110  ALA110      0.1597
     93  C        -28.5970    2.6240  -10.7230 C.2   110  ALA110      0.2287
     94  O        -29.4910    2.5010  -11.5400 O.2   110  ALA110     -0.2864
     95  CB       -26.6230    3.9970  -11.2240 C.3   110  ALA110      0.0319
@<TRIPOS>BOND
     1     9    11   ar
     2     9     7   ar
     3    11    10   ar
     4     7     6   ar
     5    10     8   ar
     6     6     8   ar
     7     6     5    1
     8     1     2    1
     9     2     5    1
    10     2     3    1
    11     3     4    2
    12     3    12   am
    13    12    13    1
    14    14    15    2
    15    14    13    1
    16    13    16    1
    17    27    26    2
    18    28    26   am
    19    94    93    2
    20    16    17    1
    21    95    92    1
    22    26    25    1
    23    93    92    1
    24    17    18    1
    25    92    91    1
    26    64    62   am
    27    61    62    1
    28    61    60    1
    29    62    63    2
    30    19    18   ar
    31    18    20   ar
    32    25    22    1
    33    21    22    1
    34    22    23    1
    35    91    86   am
    36    87    86    2
    37    60    57    1
    38    56    57    1
    39    86    85    1
    40    57    58    1
    41    23    29   am
    42    23    24    2
    43    51    50    2
    44    29    30    1
    45    76    75   ar
    46    76    78   ar
    47    73    72    2
    48    85    88    1
    49    85    84    1
    50    74    75    1
    51    74    71    1
    52    50    49    1
    53    32    31    2
    54    89    88    1
    55    88    90    1
    56    75    77   ar
    57    78    79   ar
    58    58    59    2
    59    84    72   am
    60    52    49    1
    61    52    53    1
    62    72    71    1
    63    33    30    1
    64    33    34    1
    65    30    31    1
    66    55    53   ar
    67    71    70    1
    68    31    40   am
    69    77    79   ar
    70    77    80   ar
    71    79    81   ar
    72    49    48    1
    73    53    54   ar
    74    39    37    1
    75    80    82   ar
    76    81    83   ar
    77    34    35    1
    78    36    37    2
    79    36    35    1
    80    47    45   am
    81    70    67   am
    82    40    41    1
    83    82    83   ar
    84    37    38    1
    85    41    42    1
    86    41    44    1
    87    45    44    1
    88    45    46    2
    89    42    43    2
    90    67    68    2
    91    67    66    1
    92    65    66    1
    93    66    69    1
