@<TRIPOS>MOLECULE
tmp/4lt4A01.pdb
 105 99 0 0 0
SMALL
GASTEIGER

@<TRIPOS>ATOM
      1  N        -21.7700  -19.5160  -14.0240 N.3    69  VAL69      -0.1231
      2  CA       -21.3850  -18.2000  -14.5620 C.3    69  VAL69       0.1692
      3  C        -19.9870  -17.7580  -14.1030 C.2    69  VAL69       0.2592
      4  O        -19.7110  -16.5570  -13.9840 O.2    69  VAL69      -0.2718
      5  CB       -22.4230  -17.0870  -14.2510 C.3    69  VAL69       0.0266
      6  CG1      -22.4820  -16.0900  -15.4020 C.3    69  VAL69       0.0020
      7  CG2      -23.8140  -17.6640  -14.0130 C.3    69  VAL69       0.0020
      8  N        -19.1050  -18.7230  -13.8570 N.am   70  TYR70      -0.1962
      9  CA       -17.7260  -18.4140  -13.4950 C.3    70  TYR70       0.1771
     10  C        -16.8990  -18.2640  -14.7520 C.2    70  TYR70       0.2619
     11  O        -16.9730  -19.0860  -15.6540 O.2    70  TYR70      -0.2715
     12  CB       -17.1110  -19.5200  -12.6440 C.3    70  TYR70       0.0574
     13  CG       -17.6730  -19.6670  -11.2520 C.ar   70  TYR70      -0.0198
     14  CD1      -17.2920  -20.7400  -10.4600 C.ar   70  TYR70      -0.0009
     15  CD2      -18.5990  -18.7630  -10.7300 C.ar   70  TYR70      -0.0009
     16  CE1      -17.8040  -20.9090   -9.1870 C.ar   70  TYR70       0.0417
     17  CE2      -19.1180  -18.9230   -9.4560 C.ar   70  TYR70       0.0417
     18  CZ       -18.7160  -19.9970   -8.6900 C.ar   70  TYR70       0.1957
     19  OH       -19.2210  -20.1710   -7.4210 O.3    70  TYR70      -0.2866
     20  N        -16.1090  -17.2030  -14.8060 N.am   71  ILE71      -0.1963
     21  CA       -15.1730  -17.0030  -15.8920 C.3    71  ILE71       0.1727
     22  C        -13.9210  -17.8610  -15.7290 C.2    71  ILE71       0.2616
     23  O        -13.2160  -17.7530  -14.7290 O.2    71  ILE71      -0.2715
     24  CB       -14.6940  -15.5350  -15.9460 C.3    71  ILE71       0.0290
     25  CG1      -15.8140  -14.6440  -16.4980 C.3    71  ILE71       0.0022
     26  CG2      -13.4600  -15.4000  -16.8250 C.3    71  ILE71       0.0023
     27  CD1      -15.5660  -13.1570  -16.3400 C.3    71  ILE71       0.0001
     28  N        -13.6650  -18.7250  -16.7050 N.am   72  MET72      -0.1977
     29  CA       -12.5970  -19.7230  -16.6230 C.3    72  MET72       0.1605
     30  C        -11.2790  -19.1960  -17.1800 C.2    72  MET72       0.2287
     31  O        -10.1960  -19.5330  -16.6960 O.2    72  MET72      -0.2864
     32  CB       -12.9950  -20.9650  -17.4220 C.3    72  MET72       0.0413
     33  CG       -14.1860  -21.7300  -16.8670 C.3    72  MET72       0.0598
     34  SD       -13.7900  -22.5620  -15.3210 S.3    72  MET72      -0.1393
     35  CE       -14.4860  -21.4260  -14.1390 C.3    72  MET72       0.0692
     36  N         -7.3420  -19.2080  -15.3200 N.3    83  PHE83      -0.1241
     37  CA        -7.1170  -19.1530  -13.8820 C.3    83  PHE83       0.1605
     38  C         -6.4050  -20.4130  -13.4090 C.2    83  PHE83       0.2264
     39  O         -6.5380  -21.4830  -14.0050 O.2    83  PHE83      -0.2867
     40  CB        -8.4280  -18.9910  -13.1040 C.3    83  PHE83       0.0534
     41  CG        -9.0240  -17.6100  -13.1830 C.ar   83  PHE83      -0.0203
     42  CD1       -8.3050  -16.5010  -12.7520 C.ar   83  PHE83      -0.0042
     43  CD2      -10.3190  -17.4210  -13.6530 C.ar   83  PHE83      -0.0042
     44  CE1       -8.8570  -15.2330  -12.8140 C.ar   83  PHE83      -0.0003
     45  CE2      -10.8790  -16.1560  -13.7080 C.ar   83  PHE83      -0.0003
     46  CZ       -10.1470  -15.0590  -13.2890 C.ar   83  PHE83      -0.0000
     47  N         -6.6520  -22.9600  -11.3850 N.3    85  GLU85      -0.1245
     48  CA        -7.7920  -23.5870  -10.7400 C.3    85  GLU85       0.1567
     49  C         -8.0690  -24.8940  -11.4570 C.2    85  GLU85       0.2260
     50  O         -7.9930  -24.9130  -12.6410 O.2    85  GLU85      -0.2867
     51  CB        -8.9780  -22.7450  -11.0870 C.3    85  GLU85       0.0388
     52  CG        -9.6630  -22.0900   -9.9800 C.3    85  GLU85       0.1160
     53  CD       -10.5310  -20.9810  -10.4860 C.2    85  GLU85       0.3649
     54  OE1      -11.0060  -21.0330  -11.5930 O.co2  85  GLU85      -0.2457
     55  OE2      -10.7330  -20.0480   -9.7890 O.co2  85  GLU85      -0.2457
     56  N        -10.9020  -26.2730  -12.2530 N.3    87  ALA87      -0.1245
     57  CA       -12.0160  -26.0810  -13.1800 C.3    87  ALA87       0.1562
     58  C        -11.5920  -25.3440  -14.4530 C.2    87  ALA87       0.2260
     59  O        -12.1010  -25.6230  -15.5350 O.2    87  ALA87      -0.2867
     60  CB       -13.1550  -25.3490  -12.4950 C.3    87  ALA87       0.0290
     61  N         -9.5820  -17.7030   -9.6270 N.3   109  GLY109     -0.1210
     62  CA       -10.5340  -16.6740  -10.0040 C.3   109  GLY109      0.1956
     63  C        -11.4460  -16.1870   -8.8990 C.2   109  GLY109      0.2611
     64  O        -12.3520  -15.3990   -9.1510 O.2   109  GLY109     -0.2717
     65  N        -11.2350  -16.6190   -7.6650 N.am  110  ASN110     -0.1974
     66  CA       -12.1190  -16.1230   -6.6190 C.3   110  ASN110      0.1688
     67  C        -11.7150  -14.7400   -6.1400 C.2   110  ASN110      0.2292
     68  O        -10.5520  -14.3300   -6.2300 O.2   110  ASN110     -0.2864
     69  CB       -12.2430  -17.0820   -5.4500 C.3   110  ASN110      0.1181
     70  CG       -10.9600  -17.2260   -4.6830 C.2   110  ASN110      0.2629
     71  OD1      -10.7190  -16.5080   -3.7130 O.2   110  ASN110     -0.2716
     72  ND2      -10.1220  -18.1530   -5.1140 N.am  110  ASN110     -0.0877
     73  N        -15.6200   -9.4690  -14.1830 N.3   155  ILE155     -0.1245
     74  CA       -16.5280  -10.3680  -13.4720 C.3   155  ILE155      0.1561
     75  C        -17.7780   -9.6200  -13.0300 C.2   155  ILE155      0.2260
     76  O        -18.8950  -10.0960  -13.2350 O.2   155  ILE155     -0.2867
     77  CB       -15.8310  -11.0330  -12.2680 C.3   155  ILE155      0.0252
     78  CG1      -14.8000  -12.0350  -12.7900 C.3   155  ILE155      0.0019
     79  CG2      -16.8450  -11.7180  -11.3490 C.3   155  ILE155      0.0019
     80  CD1      -13.7500  -12.4140  -11.7700 C.3   155  ILE155      0.0001
     81  N        -20.7340  -11.2690  -15.3470 N.3   159  ALA159     -0.1231
     82  CA       -21.3380  -12.2880  -14.5070 C.3   159  ALA159      0.1694
     83  C        -22.2730  -11.7800  -13.4290 C.2   159  ALA159      0.2591
     84  O        -23.3530  -12.2360  -13.3240 O.2   159  ALA159     -0.2718
     85  CB       -20.2970  -13.1690  -13.8800 C.3   159  ALA159      0.0304
     86  N        -21.8270  -10.8420  -12.6270 N.am  160  GLU160     -0.1979
     87  CA       -22.6150  -10.3740  -11.5160 C.3   160  GLU160      0.1602
     88  C        -23.8620   -9.6360  -11.9810 C.2   160  GLU160      0.2287
     89  O        -24.8790   -9.7960  -11.4270 O.2   160  GLU160     -0.2864
     90  CB       -21.7870   -9.5580  -10.5220 C.3   160  GLU160      0.0415
     91  CG       -20.5840  -10.3020   -9.9880 C.3   160  GLU160      0.1163
     92  CD       -20.8860  -11.3610   -8.9500 C.2   160  GLU160      0.3649
     93  OE1      -22.0380  -11.7770   -8.8400 O.co2 160  GLU160     -0.2457
     94  OE2      -19.9510  -11.7780   -8.2560 O.co2 160  GLU160     -0.2457
     95  N        -26.4600  -12.1120  -12.9400 N.3   163  ARG163     -0.1245
     96  CA       -27.1140  -12.7250  -11.7800 C.3   163  ARG163      0.1563
     97  C        -28.1390  -11.8510  -11.0650 C.2   163  ARG163      0.2260
     98  O        -29.0850  -12.3800  -10.4740 O.2   163  ARG163     -0.2867
     99  CB       -26.0670  -13.1480  -10.7580 C.3   163  ARG163      0.0307
    100  CG       -25.1750  -14.2740  -11.2290 C.3   163  ARG163      0.0489
    101  CD       -23.9780  -14.3590  -10.3110 C.3   163  ARG163      0.2205
    102  NE       -23.0790  -15.4610  -10.6390 N.pl3 163  ARG163     -0.0865
    103  CZ       -21.7730  -15.4580  -10.3820 C.cat 163  ARG163      0.5346
    104  NH1      -21.2080  -14.3960   -9.8170 N.pl3 163  ARG163      0.1354
    105  NH2      -21.0280  -16.5070  -10.7060 N.pl3 163  ARG163      0.1354
@<TRIPOS>BOND
     1    32    33    1
     2    32    29    1
     3    30    31    2
     4    30    29    1
     5    33    34    1
     6    26    24    1
     7    28    29    1
     8    28    22   am
     9    25    27    1
    10    25    24    1
    11    24    21    1
    12    21    22    1
    13    21    20    1
    14    22    23    2
    15    11    10    2
    16    59    58    2
    17     6     5    1
    18    81    82    1
    19    34    35    1
    20    36    37    1
    21    20    10   am
    22    10     9    1
    23     2     5    1
    24     2     3    1
    25     2     1    1
    26    82    85    1
    27    82    83    1
    28    58    57    1
    29     5     7    1
    30    73    74    1
    31     3     4    2
    32     3     8   am
    33    39    38    2
    34    37    38    1
    35    37    40    1
    36     8     9    1
    37    45    43   ar
    38    45    46   ar
    39    43    41   ar
    40     9    12    1
    41    74    75    1
    42    74    77    1
    43    83    84    2
    44    83    86   am
    45    46    44   ar
    46    76    75    2
    47    41    40    1
    48    41    42   ar
    49    57    60    1
    50    57    56    1
    51    95    96    1
    52    44    42   ar
    53    78    77    1
    54    78    80    1
    55    12    13    1
    56    50    49    2
    57    86    87    1
    58    77    79    1
    59    88    87    1
    60    88    89    2
    61    96    97    1
    62    96    99    1
    63    54    53   ar
    64    87    90    1
    65    49    48    1
    66    47    48    1
    67    13    15   ar
    68    13    14   ar
    69   100    99    1
    70   100   101    1
    71    51    48    1
    72    51    52    1
    73    97    98    2
    74    15    17   ar
    75   105   103    1
    76   102   103    2
    77   102   101    1
    78    90    91    1
    79    53    52    1
    80    53    55   ar
    81    14    16   ar
    82   103   104    1
    83    62    61    1
    84    62    63    1
    85    91    92    1
    86    17    18   ar
    87    16    18   ar
    88    64    63    2
    89    92    93   ar
    90    92    94   ar
    91    63    65   am
    92    18    19    1
    93    65    66    1
    94    66    67    1
    95    66    69    1
    96    68    67    2
    97    69    70    1
    98    72    70   am
    99    70    71    2
