@<TRIPOS>MOLECULE
tmp/4lt5A00.pdb
 128 118 0 0 0
SMALL
GASTEIGER

@<TRIPOS>ATOM
      1  N          5.6730   -6.0310   25.8830 N.3   156  ALA156     -0.1245
      2  CA         5.1840   -6.8030   24.7460 C.3   156  ALA156      0.1562
      3  C          4.5690   -8.1230   25.1990 C.2   156  ALA156      0.2260
      4  O          5.0970   -8.7930   26.0850 O.2   156  ALA156     -0.2867
      5  CB         6.3080   -7.0540   23.7520 C.3   156  ALA156      0.0290
      6  N          3.5360  -11.7470   23.7730 N.3   158  ASN158     -0.1240
      7  CA         3.6560  -12.6850   22.6620 C.3   158  ASN158      0.1653
      8  C          2.9320  -14.0050   22.9150 C.2   158  ASN158      0.2266
      9  O          3.3000  -14.7650   23.8110 O.2   158  ASN158     -0.2867
     10  CB         5.1290  -12.9470   22.3410 C.3   158  ASN158      0.1155
     11  CG         5.8570  -11.6970   21.8870 C.2   158  ASN158      0.2627
     12  OD1        5.3290  -10.9060   21.1050 O.2   158  ASN158     -0.2716
     13  ND2        7.0760  -11.5080   22.3820 N.am  158  ASN158     -0.0877
     14  N          6.0860  -12.8190   14.6010 N.3   168  ARG168     -0.1231
     15  CA         7.2510  -11.9570   14.4260 C.3   168  ARG168      0.1694
     16  C          8.4760  -12.4460   15.1970 C.2   168  ARG168      0.2591
     17  O          9.6100  -12.1800   14.8000 O.2   168  ARG168     -0.2718
     18  CB         6.9220  -10.5150   14.8220 C.3   168  ARG168      0.0321
     19  CG         6.4600  -10.3510   16.2590 C.3   168  ARG168      0.0489
     20  CD         6.4780   -8.8900   16.6700 C.3   168  ARG168      0.2205
     21  NE         7.8160   -8.3160   16.5600 N.pl3 168  ARG168     -0.0865
     22  CZ         8.7230   -8.3400   17.5320 C.cat 168  ARG168      0.5346
     23  NH1        8.4380   -8.9120   18.6940 N.pl3 168  ARG168      0.1354
     24  NH2        9.9170   -7.7930   17.3420 N.pl3 168  ARG168      0.1354
     25  N          8.2470  -13.1580   16.2960 N.am  169  ILE169     -0.1980
     26  CA         9.3480  -13.6710   17.1040 C.3   169  ILE169      0.1595
     27  C          9.8920  -14.9700   16.5200 C.2   169  ILE169      0.2287
     28  O         10.9470  -15.4520   16.9310 O.2   169  ILE169     -0.2864
     29  CB         8.9310  -13.8960   18.5730 C.3   169  ILE169      0.0276
     30  CG1        8.0310  -15.1270   18.6970 C.3   169  ILE169      0.0022
     31  CG2        8.2470  -12.6550   19.1300 C.3   169  ILE169      0.0022
     32  CD1        7.5890  -15.4160   20.1160 C.3   169  ILE169      0.0001
     33  N         15.7010  -11.6150   13.9390 N.3   173  HIS173     -0.1241
     34  CA        15.6030  -10.1630   13.8990 C.3   173  HIS173      0.1621
     35  C         16.4260   -9.4890   14.9900 C.2   173  HIS173      0.2264
     36  O         17.0340  -10.1480   15.8330 O.2   173  HIS173     -0.2867
     37  CB        14.1420   -9.7380   14.0550 C.3   173  HIS173      0.0745
     38  CG        13.5770  -10.0200   15.4130 C.ar  173  HIS173      0.0817
     39  ND1       13.0110  -11.2310   15.7470 N.ar  173  HIS173     -0.2268
     40  CD2       13.5030   -9.2500   16.5240 C.ar  173  HIS173      0.1154
     41  CE1       12.6070  -11.1930   17.0040 C.ar  173  HIS173      0.1986
     42  NE2       12.8940  -10.0030   17.4990 N.ar  173  HIS173     -0.2212
     43  N         15.6950   -6.0320   17.6000 N.3   175  ASP175     -0.1239
     44  CA        14.8540   -4.9100   17.9910 C.3   175  ASP175      0.1674
     45  C         15.6940   -3.6400   17.9960 C.2   175  ASP175      0.2266
     46  O         16.1640   -3.1920   19.0410 O.2   175  ASP175     -0.2867
     47  CB        14.2140   -5.1590   19.3560 C.3   175  ASP175      0.1410
     48  CG        13.2760   -6.3510   19.3450 C.2   175  ASP175      0.3668
     49  OD1       12.1180   -6.1930   18.9040 O.co2 175  ASP175     -0.2456
     50  OD2       13.6980   -7.4460   19.7700 O.co2 175  ASP175     -0.2456
     51  N         12.8540  -10.3000   29.8410 N.3   184  LEU184     -0.1245
     52  CA        11.8690  -11.2270   29.2950 C.3   184  LEU184      0.1561
     53  C         11.3830  -12.2470   30.3190 C.2   184  LEU184      0.2260
     54  O         12.1790  -12.9050   30.9880 O.2   184  LEU184     -0.2867
     55  CB        12.4240  -11.9410   28.0580 C.3   184  LEU184      0.0270
     56  CG        12.5880  -11.1120   26.7780 C.3   184  LEU184      0.0019
     57  CD1       13.8590  -10.2720   26.8010 C.3   184  LEU184      0.0001
     58  CD2       12.5640  -12.0140   25.5590 C.3   184  LEU184      0.0001
     59  N          8.4670  -15.5320   30.9480 N.3   186  TYR186     -0.1241
     60  CA         7.7700  -16.5470   30.1640 C.3   186  TYR186      0.1605
     61  C          6.6490  -17.2340   30.9350 C.2   186  TYR186      0.2264
     62  O          6.7450  -17.4400   32.1440 O.2   186  TYR186     -0.2867
     63  CB         8.7640  -17.5750   29.6220 C.3   186  TYR186      0.0534
     64  CG         9.8420  -16.9530   28.7680 C.ar  186  TYR186     -0.0201
     65  CD1        9.6190  -16.6820   27.4240 C.ar  186  TYR186     -0.0009
     66  CD2       11.0770  -16.6200   29.3080 C.ar  186  TYR186     -0.0009
     67  CE1       10.5980  -16.1040   26.6400 C.ar  186  TYR186      0.0417
     68  CE2       12.0630  -16.0420   28.5320 C.ar  186  TYR186      0.0417
     69  CZ        11.8180  -15.7870   27.1980 C.ar  186  TYR186      0.1957
     70  OH        12.7970  -15.2130   26.4200 O.3   186  TYR186     -0.2866
     71  N         15.0200  -19.6500   22.8250 N.3   197  LEU197     -0.1245
     72  CA        15.5220  -18.4610   22.1490 C.3   197  LEU197      0.1561
     73  C         16.9420  -18.7020   21.6600 C.2   197  LEU197      0.2260
     74  O         17.8460  -18.9600   22.4540 O.2   197  LEU197     -0.2867
     75  CB        15.4910  -17.2390   23.0670 C.3   197  LEU197      0.0270
     76  CG        15.8610  -15.9390   22.3470 C.3   197  LEU197      0.0019
     77  CD1       14.7670  -15.5410   21.3660 C.3   197  LEU197      0.0001
     78  CD2       16.1380  -14.8150   23.3260 C.3   197  LEU197      0.0001
     79  N         18.7310   -9.4170   28.0000 N.3   216  PHE216     -0.1241
     80  CA        19.7480   -9.2540   26.9650 C.3   216  PHE216      0.1605
     81  C         19.4420   -8.0910   26.0260 C.2   216  PHE216      0.2264
     82  O         18.3200   -7.5840   25.9930 O.2   216  PHE216     -0.2867
     83  CB        19.9090  -10.5480   26.1620 C.3   216  PHE216      0.0534
     84  CG        18.8880  -10.7210   25.0730 C.ar  216  PHE216     -0.0203
     85  CD1       17.5690  -11.0110   25.3790 C.ar  216  PHE216     -0.0042
     86  CD2       19.2500  -10.6010   23.7410 C.ar  216  PHE216     -0.0042
     87  CE1       16.6290  -11.1720   24.3770 C.ar  216  PHE216     -0.0003
     88  CE2       18.3160  -10.7620   22.7340 C.ar  216  PHE216     -0.0003
     89  CZ        17.0040  -11.0470   23.0530 C.ar  216  PHE216     -0.0000
     90  N         18.4010  -12.5510   17.2560 N.3   223  HIS223     -0.1241
     91  CA        17.7740  -13.6630   17.9600 C.3   223  HIS223      0.1621
     92  C         16.5210  -14.1650   17.2490 C.2   223  HIS223      0.2264
     93  O         16.0050  -13.5110   16.3420 O.2   223  HIS223     -0.2867
     94  CB        17.4240  -13.2440   19.3880 C.3   223  HIS223      0.0745
     95  CG        16.5550  -12.0270   19.4590 C.ar  223  HIS223      0.0817
     96  ND1       17.0510  -10.7490   19.3180 N.ar  223  HIS223     -0.2268
     97  CD2       15.2210  -11.8940   19.6500 C.ar  223  HIS223      0.1154
     98  CE1       16.0610   -9.8810   19.4220 C.ar  223  HIS223      0.1986
     99  NE2       14.9400  -10.5490   19.6230 N.ar  223  HIS223     -0.2212
    100  N         12.9450  -17.1680   17.9780 N.3   225  VAL225     -0.1245
    101  CA        12.2680  -18.1700   18.7920 C.3   225  VAL225      0.1561
    102  C         11.9690  -19.4180   17.9690 C.2   225  VAL225      0.2260
    103  O         11.4760  -19.3270   16.8450 O.2   225  VAL225     -0.2867
    104  CB        10.9520  -17.6210   19.3780 C.3   225  VAL225      0.0252
    105  CG1       10.2270  -18.6960   20.1760 C.3   225  VAL225      0.0019
    106  CG2       11.2280  -16.4030   20.2430 C.3   225  VAL225      0.0019
    107  N          3.1890  -21.2050   24.2240 N.3   233  ARG233     -0.1245
    108  CA         4.2880  -20.3520   24.6560 C.3   233  ARG233      0.1563
    109  C          3.8450  -18.9000   24.7840 C.2   233  ARG233      0.2260
    110  O          3.5230  -18.2470   23.7910 O.2   233  ARG233     -0.2867
    111  CB         5.4600  -20.4630   23.6790 C.3   233  ARG233      0.0307
    112  CG         6.7500  -19.8240   24.1650 C.3   233  ARG233      0.0489
    113  CD         7.8340  -19.9320   23.1040 C.3   233  ARG233      0.2205
    114  NE         9.1310  -19.4590   23.5780 N.pl3 233  ARG233     -0.0865
    115  CZ         9.5240  -18.1900   23.5400 C.cat 233  ARG233      0.5346
    116  NH1        8.7170  -17.2560   23.0550 N.pl3 233  ARG233      0.1354
    117  NH2       10.7250  -17.8540   23.9880 N.pl3 233  ARG233      0.1354
    118  N          5.0480  -15.2030   26.2780 N.3   235  GLY235     -0.1225
    119  CA         6.1700  -14.4360   26.7810 C.3   235  GLY235      0.1811
    120  C          5.8770  -12.9570   26.9420 C.2   235  GLY235      0.2280
    121  O          5.1330  -12.3680   26.1570 O.2   235  GLY235     -0.2866
    122  N          7.7980   -9.2740   27.1540 N.3   237  VAL237     -0.1245
    123  CA         9.0510   -8.5630   26.9370 C.3   237  VAL237      0.1561
    124  C          8.9550   -7.1190   27.4170 C.2   237  VAL237      0.2260
    125  O          8.2390   -6.3050   26.8360 O.2   237  VAL237     -0.2867
    126  CB         9.4720   -8.5780   25.4580 C.3   237  VAL237      0.0252
    127  CG1       10.8640   -7.9870   25.3070 C.3   237  VAL237      0.0019
    128  CG2        9.4340   -9.9960   24.9120 C.3   237  VAL237      0.0019
@<TRIPOS>BOND
     1    34    33    1
     2    34    37    1
     3    34    35    1
     4    37    38    1
     5    15    14    1
     6    15    18    1
     7    15    16    1
     8    17    16    2
     9    18    19    1
    10    35    36    2
    11    16    25   am
    12    38    39   ar
    13    38    40   ar
    14    39    41   ar
    15    19    20    1
    16    25    26    1
    17    93    92    2
    18    27    28    2
    19    27    26    1
    20    40    42   ar
    21    21    20    1
    22    21    22    2
    23   103   102    2
    24    41    42   ar
    25    26    29    1
    26    92    91    1
    27    90    91    1
    28    24    22    1
    29    22    23    1
    30    43    44    1
    31    91    94    1
    32   102   101    1
    33   100   101    1
    34    44    45    1
    35    44    47    1
    36    45    46    2
    37    29    30    1
    38    29    31    1
    39    30    32    1
    40   101   104    1
    41    49    48   ar
    42    96    98   ar
    43    96    95   ar
    44    48    47    1
    45    48    50   ar
    46   104   105    1
    47   104   106    1
    48    94    95    1
    49    98    99   ar
    50    95    97   ar
    51    99    97   ar
    52    12    11    2
    53    77    76    1
    54    73    72    1
    55    73    74    2
    56    11    10    1
    57    11    13   am
    58    72    71    1
    59    72    75    1
    60    10     7    1
    61    76    75    1
    62    76    78    1
    63     7     8    1
    64     7     6    1
    65    88    89   ar
    66    88    86   ar
    67     8     9    2
    68    89    87   ar
    69   116   115    1
    70   113   114    1
    71   113   112    1
    72   115   114    2
    73   115   117    1
    74   111   112    1
    75   111   108    1
    76    86    84   ar
    77     5     2    1
    78   110   109    2
    79   107   108    1
    80    87    85   ar
    81   108   109    1
    82     2     3    1
    83     2     1    1
    84   128   126    1
    85    84    85   ar
    86    84    83    1
    87     3     4    2
    88   127   126    1
    89   126   123    1
    90    58    56    1
    91    82    81    2
    92    81    80    1
    93   121   120    2
    94    83    80    1
    95   118   119    1
    96    70    69    1
    97    67    69   ar
    98    67    65   ar
    99    56    57    1
   100    56    55    1
   101   119   120    1
   102   125   124    2
   103   123   122    1
   104   123   124    1
   105    80    79    1
   106    69    68   ar
   107    65    64   ar
   108    55    52    1
   109    68    66   ar
   110    64    66   ar
   111    64    63    1
   112    52    51    1
   113    52    53    1
   114    63    60    1
   115    60    61    1
   116    60    59    1
   117    53    54    2
   118    61    62    2
