@<TRIPOS>MOLECULE
tmp/4lt6A00.pdb
 176 165 0 0 0
SMALL
GASTEIGER

@<TRIPOS>ATOM
      1  N         10.3600   -7.1190  -45.7610 N.3    83  PHE83      -0.1227
      2  CA         9.8050   -5.9410  -45.1240 C.3    83  PHE83       0.1736
      3  C          8.3010   -5.9850  -45.2710 C.2    83  PHE83       0.2596
      4  O          7.7600   -6.9840  -45.7330 O.2    83  PHE83      -0.2718
      5  CB        10.4360   -4.6290  -45.6300 C.3    83  PHE83       0.0547
      6  CG        10.3680   -4.4410  -47.1110 C.ar   83  PHE83      -0.0202
      7  CD1       11.2240   -5.1340  -47.9580 C.ar   83  PHE83      -0.0042
      8  CD2        9.4620   -3.5500  -47.6670 C.ar   83  PHE83      -0.0042
      9  CE1       11.1550   -4.9580  -49.3280 C.ar   83  PHE83      -0.0003
     10  CE2        9.3940   -3.3670  -49.0260 C.ar   83  PHE83      -0.0003
     11  CZ        10.2440   -4.0730  -49.8610 C.ar   83  PHE83      -0.0000
     12  N          7.6170   -4.9350  -44.8470 N.am   84  GLY84      -0.1942
     13  CA         6.1680   -4.9320  -44.9020 C.3    84  GLY84       0.2014
     14  C          5.5290   -5.9050  -43.9260 C.2    84  GLY84       0.2639
     15  O          6.1790   -6.3730  -42.9860 O.2    84  GLY84      -0.2714
     16  N          4.2440   -6.1710  -44.1540 N.am   85  SER85      -0.1949
     17  CA         3.4300   -7.1230  -43.3970 C.3    85  SER85       0.1924
     18  C          4.2010   -8.3020  -42.8070 C.2    85  SER85       0.2314
     19  O          4.2350   -8.5010  -41.5840 O.2    85  SER85      -0.2863
     20  CB         2.3360   -7.6910  -44.3050 C.3    85  SER85       0.2116
     21  OG         1.1990   -6.8490  -44.3500 O.3    85  SER85      -0.2180
     22  N          6.8430   -7.4630  -40.3390 N.3    88  LEU88      -0.1245
     23  CA         6.2110   -6.9280  -39.1460 C.3    88  LEU88       0.1561
     24  C          5.5560   -8.0540  -38.3570 C.2    88  LEU88       0.2260
     25  O          5.2490   -7.8950  -37.1870 O.2    88  LEU88      -0.2867
     26  CB         5.1950   -5.8430  -39.5070 C.3    88  LEU88       0.0270
     27  CG         5.8360   -4.5180  -39.9550 C.3    88  LEU88       0.0019
     28  CD1        4.8030   -3.5470  -40.4940 C.3    88  LEU88       0.0001
     29  CD2        6.6090   -3.8770  -38.8150 C.3    88  LEU88       0.0001
     30  N          1.1500  -10.1430  -41.0820 N.3    91  HIS91      -0.1226
     31  CA         0.5510  -10.4950  -42.3750 C.3    91  HIS91       0.1752
     32  C         -0.5980  -11.4820  -42.1910 C.2    91  HIS91       0.2596
     33  O         -0.6500  -12.2140  -41.1960 O.2    91  HIS91      -0.2718
     34  CB         1.6060  -11.1440  -43.2500 C.3    91  HIS91       0.0759
     35  CG         2.1200  -12.4290  -42.6870 C.ar   91  HIS91       0.0818
     36  ND1        3.0500  -12.4760  -41.6690 N.ar   91  HIS91      -0.2268
     37  CD2        1.8110  -13.7160  -42.9760 C.ar   91  HIS91       0.1154
     38  CE1        3.3050  -13.7370  -41.3700 C.ar   91  HIS91       0.1986
     39  NE2        2.5600  -14.5090  -42.1430 N.ar   91  HIS91      -0.2212
     40  N         -1.5130  -11.5200  -43.1520 N.am   92  THR92      -0.1953
     41  CA        -2.6770  -12.3990  -43.0300 C.3    92  THR92       0.1897
     42  C         -2.5990  -13.6080  -43.9670 C.2    92  THR92       0.2313
     43  O         -1.6480  -13.7510  -44.7400 O.2    92  THR92      -0.2863
     44  CB        -3.9890  -11.6470  -43.2880 C.3    92  THR92       0.1794
     45  OG1       -4.0680  -11.2880  -44.6650 O.3    92  THR92      -0.2208
     46  CG2       -4.0440  -10.3900  -42.4670 C.3    92  THR92       0.0378
     47  N         -1.0860  -13.5740  -47.8260 N.3    95  ALA95      -0.1231
     48  CA        -0.4000  -12.3100  -47.9830 C.3    95  ALA95       0.1694
     49  C          0.8050  -12.4670  -48.8790 C.2    95  ALA95       0.2592
     50  O          1.5160  -13.4670  -48.7930 O.2    95  ALA95      -0.2718
     51  CB         0.0360  -11.7910  -46.6290 C.3    95  ALA95       0.0304
     52  N          1.0600  -11.4780  -49.7280 N.am   96  ASP96      -0.1974
     53  CA         2.3170  -11.4800  -50.4530 C.3    96  ASP96       0.1709
     54  C          3.4770  -11.2230  -49.5060 C.2    96  ASP96       0.2293
     55  O          3.2790  -10.8320  -48.3530 O.2    96  ASP96      -0.2864
     56  CB         2.3100  -10.4980  -51.6230 C.3    96  ASP96       0.1436
     57  CG         2.1330   -9.0500  -51.1990 C.2    96  ASP96       0.3671
     58  OD1        2.4860   -8.7040  -50.0520 O.co2  96  ASP96      -0.2456
     59  OD2        1.6550   -8.2440  -52.0410 O.co2  96  ASP96      -0.2456
     60  N          7.0460   -9.0150  -49.2660 N.3    98  ASP98      -0.1239
     61  CA         7.9120   -8.0140  -49.8750 C.3    98  ASP98       0.1674
     62  C          9.3560   -8.2920  -49.5080 C.2    98  ASP98       0.2266
     63  O          9.7150   -8.2900  -48.3430 O.2    98  ASP98      -0.2867
     64  CB         7.4990   -6.6050  -49.4540 C.3    98  ASP98       0.1410
     65  CG         6.0910   -6.2480  -49.9130 C.2    98  ASP98       0.3668
     66  OD1        5.8620   -6.0440  -51.1350 O.co2  98  ASP98      -0.2456
     67  OD2        5.2090   -6.1620  -49.0350 O.co2  98  ASP98      -0.2456
     68  N         14.8070    1.5690  -48.9380 N.3   185  ASN185     -0.1225
     69  CA        13.8600    2.2850  -48.0900 C.3   185  ASN185      0.1785
     70  C         12.8650    1.3860  -47.3820 C.2   185  ASN185      0.2597
     71  O         12.5950    1.5730  -46.1890 O.2   185  ASN185     -0.2718
     72  CB        13.1070    3.3280  -48.9020 C.3   185  ASN185      0.1169
     73  CG        12.3890    4.3260  -48.0310 C.2   185  ASN185      0.2627
     74  OD1       12.9690    4.8700  -47.0820 O.2   185  ASN185     -0.2716
     75  ND2       11.1110    4.5690  -48.3340 N.am  185  ASN185     -0.0877
     76  N         12.3240    0.4210  -48.1270 N.am  186  GLY186     -0.1957
     77  CA        11.4170   -0.5890  -47.5930 C.3   186  GLY186      0.1869
     78  C         11.8840   -1.2550  -46.3030 C.2   186  GLY186      0.2309
     79  O         11.2530   -1.1280  -45.2530 O.2   186  GLY186     -0.2863
     80  N         12.5500    1.3860  -43.3790 N.3   189  VAL189     -0.1231
     81  CA        11.3650    1.8720  -42.6830 C.3   189  VAL189      0.1692
     82  C         10.8220    0.8100  -41.7710 C.2   189  VAL189      0.2592
     83  O         10.5970    1.0520  -40.5780 O.2   189  VAL189     -0.2718
     84  CB        10.2460    2.2560  -43.6580 C.3   189  VAL189      0.0266
     85  CG1        8.9340    2.4770  -42.9070 C.3   189  VAL189      0.0020
     86  CG2       10.6390    3.4820  -44.4590 C.3   189  VAL189      0.0020
     87  N         10.6000   -0.3690  -42.3430 N.am  190  THR190     -0.1953
     88  CA        10.0550   -1.4900  -41.5860 C.3   190  THR190      0.1897
     89  C         10.8890   -1.7580  -40.3270 C.2   190  THR190      0.2313
     90  O         10.3650   -1.7550  -39.2370 O.2   190  THR190     -0.2863
     91  CB         9.9060   -2.7520  -42.4600 C.3   190  THR190      0.1794
     92  OG1        8.9340   -2.5150  -43.4870 O.3   190  THR190     -0.2208
     93  CG2        9.4130   -3.8670  -41.6340 C.3   190  THR190      0.0378
     94  N         -5.5640   -3.1790  -38.7520 N.3   211  LYS211     -0.1245
     95  CA        -5.6140   -3.4400  -40.1760 C.3   211  LYS211      0.1561
     96  C         -6.9120   -4.1570  -40.5450 C.2   211  LYS211      0.2260
     97  O         -7.5450   -3.8150  -41.5350 O.2   211  LYS211     -0.2867
     98  CB        -4.3790   -4.2070  -40.6460 C.3   211  LYS211      0.0271
     99  CG        -3.1370   -3.3390  -40.7070 C.3   211  LYS211      0.0035
    100  CD        -1.9020   -4.1160  -41.1200 C.3   211  LYS211      0.0206
    101  CE        -1.8970   -4.3870  -42.6300 C.3   211  LYS211      0.1093
    102  NZ        -0.7250   -5.2020  -43.1030 N.3   211  LYS211     -0.1314
    103  N         -9.7220   -2.7200  -43.1850 N.3   215  LYS215     -0.1245
    104  CA       -10.2030   -3.4920  -44.3230 C.3   215  LYS215      0.1561
    105  C        -11.7110   -3.6400  -44.2390 C.2   215  LYS215      0.2260
    106  O        -12.4240   -3.3030  -45.1780 O.2   215  LYS215     -0.2867
    107  CB        -9.5360   -4.8820  -44.4110 C.3   215  LYS215      0.0271
    108  CG        -8.0180   -4.8680  -44.6450 C.3   215  LYS215      0.0035
    109  CD        -7.4880   -6.2430  -45.0690 C.3   215  LYS215      0.0206
    110  CE        -5.9670   -6.2600  -45.3820 C.3   215  LYS215      0.1093
    111  NZ        -5.0970   -6.3870  -44.1520 N.3   215  LYS215     -0.1314
    112  N         -8.9570    0.6190  -46.2470 N.3   220  TYR220     -0.1241
    113  CA        -7.6360    0.0570  -46.5220 C.3   220  TYR220      0.1605
    114  C         -7.3780    0.0320  -48.0270 C.2   220  TYR220      0.2264
    115  O         -7.8900   -0.8480  -48.7250 O.2   220  TYR220     -0.2867
    116  CB        -7.5440   -1.3590  -45.9680 C.3   220  TYR220      0.0534
    117  CG        -6.1330   -1.9090  -45.8600 C.ar  220  TYR220     -0.0201
    118  CD1       -5.4440   -2.2990  -46.9870 C.ar  220  TYR220     -0.0009
    119  CD2       -5.5020   -2.0610  -44.6170 C.ar  220  TYR220     -0.0009
    120  CE1       -4.1670   -2.8040  -46.9050 C.ar  220  TYR220      0.0417
    121  CE2       -4.2180   -2.5710  -44.5220 C.ar  220  TYR220      0.0417
    122  CZ        -3.5560   -2.9450  -45.6840 C.ar  220  TYR220      0.1957
    123  OH        -2.2760   -3.4650  -45.6640 O.3   220  TYR220     -0.2866
    124  N         -4.0440    2.2300  -50.3050 N.3   222  ASN222     -0.1240
    125  CA        -3.2710    3.4140  -50.6160 C.3   222  ASN222      0.1653
    126  C         -3.6020    3.9630  -51.9910 C.2   222  ASN222      0.2266
    127  O         -3.5780    5.1670  -52.2170 O.2   222  ASN222     -0.2867
    128  CB        -1.7840    3.1440  -50.5470 C.3   222  ASN222      0.1155
    129  CG        -0.9880    4.2660  -51.1410 C.2   222  ASN222      0.2627
    130  OD1       -0.7690    5.2830  -50.5010 O.2   222  ASN222     -0.2716
    131  ND2       -0.5800    4.1090  -52.3840 N.am  222  ASN222     -0.0877
    132  N         -2.5170    2.5480  -46.6840 N.3   228  GLY228     -0.1210
    133  CA        -2.0530    1.1820  -46.7790 C.3   228  GLY228      0.1956
    134  C         -1.2570    0.7490  -45.5700 C.2   228  GLY228      0.2612
    135  O         -1.1120    1.4860  -44.5910 O.2   228  GLY228     -0.2717
    136  N         -0.7300   -0.4630  -45.6610 N.am  229  GLY229     -0.1942
    137  CA         0.0340   -1.0900  -44.6030 C.3   229  GLY229      0.2014
    138  C          1.0240   -0.2350  -43.8410 C.2   229  GLY229      0.2638
    139  O          0.9730   -0.2200  -42.6240 O.2   229  GLY229     -0.2714
    140  N          1.9270    0.4670  -44.5180 N.am  230  VAL230     -0.1977
    141  CA         2.9660    1.2250  -43.8070 C.3   230  VAL230      0.1596
    142  C          2.3690    2.3790  -43.0210 C.2   230  VAL230      0.2287
    143  O          2.8420    2.7220  -41.9380 O.2   230  VAL230     -0.2864
    144  CB         4.0530    1.7810  -44.7410 C.3   230  VAL230      0.0276
    145  CG1        5.3200    2.0110  -43.9630 C.3   230  VAL230      0.0022
    146  CG2        4.3360    0.8060  -45.8240 C.3   230  VAL230      0.0022
    147  N          7.4730    8.7060  -42.7410 N.3   300  THR300     -0.1218
    148  CA         8.4440    7.6400  -42.6570 C.3   300  THR300      0.1862
    149  C          9.6590    8.0590  -41.8440 C.2   300  THR300      0.2287
    150  O         10.1890    9.1380  -42.0430 O.2   300  THR300     -0.2866
    151  CB         8.8260    7.2640  -44.0850 C.3   300  THR300      0.1770
    152  OG1        7.9870    6.1780  -44.5040 O.3   300  THR300     -0.2211
    153  CG2       10.3270    6.9010  -44.2230 C.3   300  THR300      0.0375
    154  N          9.8830   10.6690  -45.8410 N.3   306  GLN306     -0.1231
    155  CA         8.8430   11.1010  -46.7680 C.3   306  GLN306      0.1698
    156  C          7.4480   10.8740  -46.1880 C.2   306  GLN306      0.2592
    157  O          7.2690   10.0780  -45.2680 O.2   306  GLN306     -0.2718
    158  CB         8.9610   10.2960  -48.0470 C.3   306  GLN306      0.0381
    159  CG        10.3150   10.3740  -48.6630 C.3   306  GLN306      0.0905
    160  CD        10.5240   11.7030  -49.2990 C.2   306  GLN306      0.2608
    161  OE1        9.5690   12.4460  -49.5240 O.2   306  GLN306     -0.2717
    162  NE2       11.7710   12.0300  -49.5910 N.am  306  GLN306     -0.0878
    163  N          6.4570   11.5650  -46.7260 N.am  307  ASN307     -0.1960
    164  CA         5.0800   11.2720  -46.3810 C.3   307  ASN307      0.1819
    165  C          4.6150   10.0390  -47.1390 C.2   307  ASN307      0.2622
    166  O          4.9840    9.8260  -48.2900 O.2   307  ASN307     -0.2715
    167  CB         4.1790   12.4550  -46.7130 C.3   307  ASN307      0.1195
    168  CG         2.7550   12.2680  -46.2170 C.2   307  ASN307      0.2630
    169  OD1        2.4990   11.4790  -45.3000 O.2   307  ASN307     -0.2716
    170  ND2        1.8190   13.0080  -46.8120 N.am  307  ASN307     -0.0877
    171  N          3.7970    9.2250  -46.4860 N.am  308  SER308     -0.1950
    172  CA         3.3190    8.0020  -47.0900 C.3   308  SER308      0.1924
    173  C          1.8850    8.1330  -47.5490 C.2   308  SER308      0.2314
    174  O          1.3580    7.2050  -48.1160 O.2   308  SER308     -0.2863
    175  CB         3.3900    6.8830  -46.0780 C.3   308  SER308      0.2116
    176  OG         2.6570    7.2550  -44.9280 O.3   308  SER308     -0.2180
@<TRIPOS>BOND
     1   131   129   am
     2   127   126    2
     3    59    57   ar
     4   126   125    1
     5    56    57    1
     6    56    53    1
     7    57    58   ar
     8   129   128    1
     9   129   130    2
    10    66    65   ar
    11   125   128    1
    12   125   124    1
    13    53    52    1
    14    53    54    1
    15    65    64    1
    16    65    67   ar
    17    61    62    1
    18    61    64    1
    19    61    60    1
    20    11     9   ar
    21    11    10   ar
    22    52    49   am
    23   162   160   am
    24   161   160    2
    25    62    63    2
    26    54    55    2
    27     9     7   ar
    28   160   159    1
    29    10     8   ar
    30    68    69    1
    31    72    69    1
    32    72    73    1
    33    49    50    2
    34    49    48    1
    35   115   114    2
    36   159   158    1
    37    75    73   am
    38   166   165    2
    39    76    77    1
    40    76    70   am
    41   174   173    2
    42    69    70    1
    43   158   155    1
    44    73    74    2
    45   114   113    1
    46    48    47    1
    47    48    51    1
    48     7     6   ar
    49     8     6   ar
    50    77    78    1
    51   173   172    1
    52    70    71    2
    53   165   171   am
    54   165   164    1
    55     6     5    1
    56   172   171    1
    57   172   175    1
    58   118   120   ar
    59   118   117   ar
    60   120   122   ar
    61   170   168   am
    62   133   132    1
    63   133   134    1
    64   155   156    1
    65   155   154    1
    66   163   164    1
    67   163   156   am
    68   167   164    1
    69   167   168    1
    70   113   112    1
    71   113   116    1
    72    78    79    2
    73   168   169    2
    74   156   157    2
    75   175   176    1
    76   116   117    1
    77   117   119   ar
    78   146   144    1
    79     1     2    1
    80     4     3    2
    81   122   123    1
    82   122   121   ar
    83   136   134   am
    84   136   137    1
    85     5     2    1
    86   134   135    2
    87   110   109    1
    88   110   111    1
    89     3     2    1
    90     3    12   am
    91   106   105    2
    92   109   108    1
    93    13    12    1
    94    13    14    1
    95   144   145    1
    96   144   141    1
    97    43    42    2
    98    45    44    1
    99   108   107    1
   100   119   121   ar
   101   137   138    1
   102   140   138   am
   103   140   141    1
   104   152   151    1
   105    86    84    1
   106   107   104    1
   107    21    20    1
   108   104   105    1
   109   104   103    1
   110    20    17    1
   111   153   151    1
   112    16    14   am
   113    16    17    1
   114   151   148    1
   115    42    41    1
   116    14    15    2
   117   138   139    2
   118   141   142    1
   119    84    85    1
   120    84    81    1
   121    92    91    1
   122    17    18    1
   123    80    81    1
   124    44    41    1
   125    44    46    1
   126    34    35    1
   127    34    31    1
   128    40    41    1
   129    40    32   am
   130   102   101    1
   131   142   143    2
   132    37    35   ar
   133    37    39   ar
   134    18    19    2
   135   147   148    1
   136    35    36   ar
   137    81    82    1
   138   148   149    1
   139   101   100    1
   140    91    93    1
   141    91    88    1
   142    31    32    1
   143    31    30    1
   144    87    82   am
   145    87    88    1
   146    32    33    2
   147    39    38   ar
   148   150   149    2
   149    82    83    2
   150    36    38   ar
   151    88    89    1
   152    97    96    2
   153   100    99    1
   154    99    98    1
   155    98    95    1
   156    96    95    1
   157    28    27    1
   158    22    23    1
   159    89    90    2
   160    95    94    1
   161    27    26    1
   162    27    29    1
   163    26    23    1
   164    23    24    1
   165    24    25    2
