@<TRIPOS>MOLECULE
tmp/4lteB00.pdb
 181 173 0 0 0
SMALL
GASTEIGER

@<TRIPOS>ATOM
      1  N       -116.1410   -8.4130  -24.8440 N.3   153  ASN153     -0.1240
      2  CA      -115.8140   -7.9310  -23.5010 C.3   153  ASN153      0.1653
      3  C       -116.8920   -7.0010  -22.9210 C.2   153  ASN153      0.2266
      4  O       -117.1710   -5.9380  -23.4880 O.2   153  ASN153     -0.2867
      5  CB      -114.4850   -7.1820  -23.5540 C.3   153  ASN153      0.1155
      6  CG      -114.1220   -6.5240  -22.2330 C.2   153  ASN153      0.2627
      7  OD1     -114.6760   -5.4770  -21.8750 O.2   153  ASN153     -0.2716
      8  ND2     -113.1110   -7.0590  -21.5680 N.am  153  ASN153     -0.0877
      9  N       -117.1380   -4.7660  -20.5450 N.3   155  ALA155     -0.1231
     10  CA      -116.8120   -3.3790  -20.2620 C.3   155  ALA155      0.1694
     11  C       -116.8260   -2.5420  -21.5590 C.2   155  ALA155      0.2592
     12  O       -117.3660   -1.4470  -21.5620 O.2   155  ALA155     -0.2718
     13  CB      -115.4530   -3.2890  -19.5680 C.3   155  ALA155      0.0304
     14  N       -116.2170   -3.0400  -22.6410 N.am  156  TRP156     -0.1976
     15  CA      -116.2360   -2.3180  -23.9280 C.3   156  TRP156      0.1640
     16  C       -117.6380   -2.1990  -24.4990 C.2   156  TRP156      0.2290
     17  O       -118.0210   -1.1390  -24.9910 O.2   156  TRP156     -0.2864
     18  CB      -115.3100   -2.9750  -24.9660 C.3   156  TRP156      0.0576
     19  CG      -113.8570   -2.6580  -24.6780 C.ar  156  TRP156      0.0006
     20  CD1     -112.9820   -3.4220  -23.9780 C.ar  156  TRP156      0.0946
     21  CD2     -113.1360   -1.4760  -25.0590 C.ar  156  TRP156      0.0152
     22  NE1     -111.7680   -2.8040  -23.8930 N.ar  156  TRP156     -0.2442
     23  CE2     -111.8320   -1.6050  -24.5470 C.ar  156  TRP156      0.0810
     24  CE3     -113.4720   -0.3160  -25.7750 C.ar  156  TRP156      0.0012
     25  CZ2     -110.8500   -0.6200  -24.7290 C.ar  156  TRP156      0.0191
     26  CZ3     -112.5060    0.6660  -25.9420 C.ar  156  TRP156      0.0001
     27  CH2     -111.2060    0.5050  -25.4230 C.ar  156  TRP156      0.0015
     28  N       -120.4560   -2.0720  -22.8960 N.3   158  LEU158     -0.1231
     29  CA      -121.1550   -1.0410  -22.1420 C.3   158  LEU158      0.1693
     30  C       -120.6670    0.3520  -22.5000 C.2   158  LEU158      0.2592
     31  O       -121.4730    1.2780  -22.6670 O.2   158  LEU158     -0.2718
     32  CB      -121.0030   -1.2860  -20.6390 C.3   158  LEU158      0.0284
     33  CG      -121.7920   -2.5000  -20.1410 C.3   158  LEU158      0.0019
     34  CD1     -121.6820   -2.6940  -18.6220 C.3   158  LEU158      0.0001
     35  CD2     -123.2720   -2.3220  -20.5630 C.3   158  LEU158      0.0001
     36  N       -119.3560    0.4810  -22.6490 N.am  159  PHE159     -0.1976
     37  CA      -118.7350    1.7310  -23.0430 C.3   159  PHE159      0.1639
     38  C       -119.3880    2.2790  -24.2920 C.2   159  PHE159      0.2290
     39  O       -119.8050    3.4330  -24.3330 O.2   159  PHE159     -0.2864
     40  CB      -117.2540    1.4930  -23.2900 C.3   159  PHE159      0.0560
     41  CG      -116.5140    2.6620  -23.8800 C.ar  159  PHE159     -0.0200
     42  CD1     -116.1810    3.7560  -23.1070 C.ar  159  PHE159     -0.0042
     43  CD2     -116.0750    2.6300  -25.2060 C.ar  159  PHE159     -0.0042
     44  CE1     -115.4470    4.8080  -23.6350 C.ar  159  PHE159     -0.0003
     45  CE2     -115.3440    3.6900  -25.7510 C.ar  159  PHE159     -0.0003
     46  CZ      -115.0380    4.7820  -24.9560 C.ar  159  PHE159     -0.0000
     47  N       -122.1950    1.1540  -25.7660 N.3   161  LEU161     -0.1231
     48  CA      -123.6450    1.2250  -25.6540 C.3   161  LEU161      0.1693
     49  C       -124.1120    2.5790  -25.1200 C.2   161  LEU161      0.2591
     50  O       -125.1270    3.1120  -25.5840 O.2   161  LEU161     -0.2718
     51  CB      -124.1660    0.1190  -24.7610 C.3   161  LEU161      0.0284
     52  CG      -125.6900    0.0900  -24.6890 C.3   161  LEU161      0.0019
     53  CD1     -126.2600   -0.0720  -26.0700 C.3   161  LEU161      0.0001
     54  CD2     -126.1760   -1.0130  -23.7570 C.3   161  LEU161      0.0001
     55  N       -123.3780    3.1420  -24.1520 N.am  162  GLU162     -0.1979
     56  CA      -123.7310    4.4600  -23.6060 C.3   162  GLU162      0.1602
     57  C       -123.6830    5.5090  -24.7410 C.2   162  GLU162      0.2287
     58  O       -124.6270    6.2900  -24.9410 O.2   162  GLU162     -0.2864
     59  CB      -122.7950    4.8650  -22.4650 C.3   162  GLU162      0.0415
     60  CG      -123.2970    6.0330  -21.6230 C.3   162  GLU162      0.1163
     61  CD      -122.2970    6.5010  -20.5680 C.2   162  GLU162      0.3649
     62  OE1     -121.0770    6.3680  -20.7890 O.co2 162  GLU162     -0.2457
     63  OE2     -122.7280    6.9680  -19.4910 O.co2 162  GLU162     -0.2457
     64  N       -126.6320    5.5310  -27.0590 N.3   165  THR165     -0.1218
     65  CA      -127.9570    5.8260  -26.5170 C.3   165  THR165      0.1862
     66  C       -128.1500    7.2970  -26.2300 C.2   165  THR165      0.2287
     67  O       -129.1990    7.7110  -25.7170 O.2   165  THR165     -0.2866
     68  CB      -128.2300    5.0260  -25.2150 C.3   165  THR165      0.1770
     69  OG1     -127.2220    5.3090  -24.2330 O.3   165  THR165     -0.2211
     70  CG2     -128.2470    3.5520  -25.5110 C.3   165  THR165      0.0375
     71  N       -132.2580    1.2590  -19.3210 N.3   259  TYR259     -0.1241
     72  CA      -131.6870    0.3350  -20.2950 C.3   259  TYR259      0.1605
     73  C       -131.4920   -1.0300  -19.6620 C.2   259  TYR259      0.2264
     74  O       -130.8850   -1.1570  -18.6050 O.2   259  TYR259     -0.2867
     75  CB      -130.3680    0.8980  -20.8540 C.3   259  TYR259      0.0534
     76  CG      -130.5300    2.2630  -21.4990 C.ar  259  TYR259     -0.0201
     77  CD1     -130.8620    2.3720  -22.8510 C.ar  259  TYR259     -0.0009
     78  CD2     -130.4270    3.4370  -20.7510 C.ar  259  TYR259     -0.0009
     79  CE1     -131.0470    3.6010  -23.4610 C.ar  259  TYR259      0.0417
     80  CE2     -130.6180    4.6910  -21.3530 C.ar  259  TYR259      0.0417
     81  CZ      -130.9320    4.7680  -22.7120 C.ar  259  TYR259      0.1957
     82  OH      -131.1190    6.0050  -23.3270 O.3   259  TYR259     -0.2866
     83  N       -129.8380   -4.6160  -20.2190 N.3   261  ILE261     -0.1245
     84  CA      -128.7640   -5.1000  -21.0410 C.3   261  ILE261      0.1561
     85  C       -128.3700   -6.5310  -20.7170 C.2   261  ILE261      0.2260
     86  O       -128.2360   -6.8790  -19.5480 O.2   261  ILE261     -0.2867
     87  CB      -127.5480   -4.1910  -20.9010 C.3   261  ILE261      0.0252
     88  CG1     -127.9640   -2.7540  -21.2500 C.3   261  ILE261      0.0019
     89  CG2     -126.4130   -4.7050  -21.7790 C.3   261  ILE261      0.0019
     90  CD1     -127.3150   -1.6890  -20.4200 C.3   261  ILE261      0.0001
     91  N       -126.1550    0.6730  -13.2630 N.3   271  TYR271     -0.1241
     92  CA      -125.4150    1.8910  -13.5020 C.3   271  TYR271      0.1605
     93  C       -126.3690    3.0570  -13.4700 C.2   271  TYR271      0.2264
     94  O       -127.2810    3.1390  -14.3110 O.2   271  TYR271     -0.2867
     95  CB      -124.6660    1.8380  -14.8320 C.3   271  TYR271      0.0534
     96  CG      -123.6920    0.6810  -14.9460 C.ar  271  TYR271     -0.0201
     97  CD1     -124.1100   -0.5660  -15.3970 C.ar  271  TYR271     -0.0009
     98  CD2     -122.3650    0.8090  -14.5290 C.ar  271  TYR271     -0.0009
     99  CE1     -123.2090   -1.6460  -15.5040 C.ar  271  TYR271      0.0417
    100  CE2     -121.4610   -0.2630  -14.6200 C.ar  271  TYR271      0.0417
    101  CZ      -121.8920   -1.4870  -15.1060 C.ar  271  TYR271      0.1957
    102  OH      -121.0190   -2.5500  -15.1890 O.3   271  TYR271     -0.2866
    103  N       -126.5770    7.1300  -13.8200 N.3   273  THR273     -0.1218
    104  CA      -125.7880    8.1850  -14.4420 C.3   273  THR273      0.1862
    105  C       -126.5620    9.4990  -14.4870 C.2   273  THR273      0.2287
    106  O       -127.7350    9.5270  -14.8650 O.2   273  THR273     -0.2866
    107  CB      -125.3910    7.7950  -15.8880 C.3   273  THR273      0.1770
    108  OG1     -124.7730    6.5110  -15.8940 O.3   273  THR273     -0.2211
    109  CG2     -124.4380    8.8040  -16.4870 C.3   273  THR273      0.0375
    110  N       -119.4440    2.1890   -6.5290 N.3   317  VAL317     -0.1231
    111  CA      -118.5570    3.2270   -6.9970 C.3   317  VAL317      0.1692
    112  C       -119.3660    4.4780   -7.2550 C.2   317  VAL317      0.2593
    113  O       -120.4030    4.4410   -7.9360 O.2   317  VAL317     -0.2718
    114  CB      -117.8510    2.8290   -8.2640 C.3   317  VAL317      0.0266
    115  CG1     -116.9810    3.9350   -8.6710 C.3   317  VAL317      0.0020
    116  CG2     -117.0280    1.6160   -8.0190 C.3   317  VAL317      0.0020
    117  N       -118.8960    5.5990   -6.7430 N.am  318  GLY318     -0.1942
    118  CA      -119.6180    6.8340   -6.9730 C.3   318  GLY318      0.2014
    119  C       -118.7010    8.0110   -7.2150 C.2   318  GLY318      0.2639
    120  O       -117.5860    8.0330   -6.7060 O.2   318  GLY318     -0.2714
    121  N       -119.1420    8.9620   -8.0350 N.am  319  GLY319     -0.1939
    122  CA      -118.3430   10.1510   -8.2460 C.3   319  GLY319      0.2014
    123  C       -118.3490   10.6760   -9.6680 C.2   319  GLY319      0.2639
    124  O       -119.1490   10.2730  -10.5100 O.2   319  GLY319     -0.2714
    125  N       -117.4630   11.6160   -9.9400 N.am  320  GLN320     -0.1963
    126  CA      -117.4750   12.2530  -11.2380 C.3   320  GLN320      0.1733
    127  C       -116.7210   11.4330  -12.2560 C.2   320  GLN320      0.2616
    128  O       -115.6930   10.8420  -11.9590 O.2   320  GLN320     -0.2715
    129  CB      -116.8930   13.6430  -11.1020 C.3   320  GLN320      0.0408
    130  CG      -115.4160   13.6400  -10.7800 C.3   320  GLN320      0.0908
    131  CD      -114.8920   15.0370  -10.5060 C.2   320  GLN320      0.2608
    132  OE1     -115.5480   16.0350  -10.8020 O.2   320  GLN320     -0.2717
    133  NE2     -113.7540   15.1090   -9.8320 N.am  320  GLN320     -0.0878
    134  N       -117.2500   11.4120  -13.4660 N.am  321  LYS321     -0.1977
    135  CA      -116.6800   10.6440  -14.5490 C.3   321  LYS321      0.1596
    136  C       -116.4060   11.5920  -15.7360 C.2   321  LYS321      0.2287
    137  O       -117.2330   12.4430  -16.0870 O.2   321  LYS321     -0.2864
    138  CB      -117.6220    9.5050  -14.9350 C.3   321  LYS321      0.0298
    139  CG      -117.3150    8.8550  -16.2720 C.3   321  LYS321      0.0038
    140  CD      -117.9600    7.4920  -16.3940 C.3   321  LYS321      0.0206
    141  CE      -118.8330    7.3970  -17.6260 C.3   321  LYS321      0.1093
    142  NZ      -118.9640    5.9950  -18.0950 N.3   321  LYS321     -0.1314
    143  N       -121.7180    9.4770  -11.6360 N.3   331  ILE331     -0.1245
    144  CA      -122.2290    8.1110  -11.6530 C.3   331  ILE331      0.1561
    145  C       -122.3130    7.4810  -10.2640 C.2   331  ILE331      0.2260
    146  O       -121.5290    7.7980   -9.3630 O.2   331  ILE331     -0.2867
    147  CB      -121.4030    7.2120  -12.5720 C.3   331  ILE331      0.0252
    148  CG1     -119.9490    7.1660  -12.1060 C.3   331  ILE331      0.0019
    149  CG2     -121.4730    7.7530  -13.9670 C.3   331  ILE331      0.0019
    150  CD1     -119.6390    5.9690  -11.2290 C.3   331  ILE331      0.0001
    151  N       -122.5660    3.4180   -9.3020 N.3   333  ASN333     -0.1240
    152  CA      -122.5930    2.0650   -9.8410 C.3   333  ASN333      0.1653
    153  C       -122.4490    1.0270   -8.7570 C.2   333  ASN333      0.2266
    154  O       -121.5580    1.1170   -7.9190 O.2   333  ASN333     -0.2867
    155  CB      -121.4770    1.8800  -10.8800 C.3   333  ASN333      0.1155
    156  CG      -121.5940    2.8620  -12.0530 C.2   333  ASN333      0.2627
    157  OD1     -122.6440    3.4770  -12.2710 O.2   333  ASN333     -0.2716
    158  ND2     -120.5180    3.0060  -12.8100 N.am  333  ASN333     -0.0877
    159  N       -130.3500    8.6150  -15.5840 N.3   434  ARG434     -0.1231
    160  CA      -130.2910    7.5360  -16.5660 C.3   434  ARG434      0.1694
    161  C       -129.9620    6.2470  -15.8300 C.2   434  ARG434      0.2592
    162  O       -129.0770    6.2220  -14.9790 O.2   434  ARG434     -0.2718
    163  CB      -129.2720    7.8520  -17.6620 C.3   434  ARG434      0.0321
    164  CG      -129.7820    8.8850  -18.6650 C.3   434  ARG434      0.0489
    165  CD      -128.6730    9.3880  -19.5670 C.3   434  ARG434      0.2205
    166  NE      -127.9540    8.2920  -20.1950 N.pl3 434  ARG434     -0.0865
    167  CZ      -128.3130    7.7160  -21.3280 C.cat 434  ARG434      0.5346
    168  NH1     -129.4090    8.1100  -21.9440 N.pl3 434  ARG434      0.1354
    169  NH2     -127.5870    6.7280  -21.8210 N.pl3 434  ARG434      0.1354
    170  N       -130.6860    5.1810  -16.1420 N.am  435  VAL435     -0.1966
    171  CA      -130.5350    3.9310  -15.4140 C.3   435  VAL435      0.1727
    172  C       -130.2370    2.7580  -16.3370 C.2   435  VAL435      0.2616
    173  O       -130.9640    2.5100  -17.3030 O.2   435  VAL435     -0.2715
    174  CB      -131.8100    3.6200  -14.6280 C.3   435  VAL435      0.0290
    175  CG1     -131.6680    2.2860  -13.9100 C.3   435  VAL435      0.0023
    176  CG2     -132.0850    4.7190  -13.6160 C.3   435  VAL435      0.0023
    177  N       -129.1660    2.0330  -16.0630 N.am  436  ALA436     -0.1977
    178  CA      -128.8900    0.8310  -16.8520 C.3   436  ALA436      0.1597
    179  C       -128.7700   -0.4070  -15.9460 C.2   436  ALA436      0.2287
    180  O       -128.0540   -0.3950  -14.9400 O.2   436  ALA436     -0.2864
    181  CB      -127.6260    1.0160  -17.7010 C.3   436  ALA436      0.0319
@<TRIPOS>BOND
     1    64    65    1
     2    65    66    1
     3    65    68    1
     4    66    67    2
     5    53    52    1
     6    26    24   ar
     7    26    27   ar
     8    24    21   ar
     9    47    48    1
    10    45    43   ar
    11    45    46   ar
    12    48    49    1
    13    48    51    1
    14    50    49    2
    15    70    68    1
    16    27    25   ar
    17    68    69    1
    18    43    41   ar
    19    49    55   am
    20    21    19   ar
    21    21    23   ar
    22    17    16    2
    23    18    19    1
    24    18    15    1
    25    46    44   ar
    26    58    57    2
    27     1     2    1
    28    51    52    1
    29    57    56    1
    30    25    23   ar
    31    52    54    1
    32    19    20   ar
    33    23    22   ar
    34    16    15    1
    35    39    38    2
    36    38    37    1
    37    55    56    1
    38    20    22   ar
    39    15    14    1
    40    41    40    1
    41    41    42   ar
    42    44    42   ar
    43    56    59    1
    44     5     2    1
    45     5     6    1
    46     2     3    1
    47     4     3    2
    48    79    77   ar
    49    79    81   ar
    50    82    81    1
    51    40    37    1
    52    37    36    1
    53    28    29    1
    54    77    76   ar
    55    81    80   ar
    56    31    30    2
    57    36    30   am
    58    14    11   am
    59    30    29    1
    60    59    60    1
    61     6     7    2
    62     6     8   am
    63    29    32    1
    64   168   167    1
    65   169   167    1
    66    89    87    1
    67    60    61    1
    68    12    11    2
    69    11    10    1
    70    76    75    1
    71    76    78   ar
    72    80    78   ar
    73   167   166    2
    74    88    87    1
    75    88    90    1
    76    84    87    1
    77    84    85    1
    78    84    83    1
    79    75    72    1
    80    62    61   ar
    81    85    86    2
    82    32    33    1
    83    61    63   ar
    84    35    33    1
    85     9    10    1
    86    72    73    1
    87    72    71    1
    88    10    13    1
    89   166   165    1
    90    33    34    1
    91    73    74    2
    92   165   164    1
    93   164   163    1
    94   142   141    1
    95   181   178    1
    96   163   160    1
    97   141   140    1
    98   173   172    2
    99   178   177    1
   100   178   179    1
   101   160   161    1
   102   160   159    1
   103   109   107    1
   104   140   139    1
   105   172   177   am
   106   172   171    1
   107   139   138    1
   108   170   161   am
   109   170   171    1
   110   137   136    2
   111   179   180    2
   112   108   107    1
   113   107   104    1
   114   161   162    2
   115   136   135    1
   116    99    97   ar
   117    99   101   ar
   118   171   174    1
   119    97    96   ar
   120   102   101    1
   121   101   100   ar
   122    96    95    1
   123    96    98   ar
   124   138   135    1
   125   106   105    2
   126    95    92    1
   127   174   175    1
   128   174   176    1
   129   100    98   ar
   130   135   134    1
   131   105   104    1
   132   104   103    1
   133    94    93    2
   134   149   147    1
   135    92    93    1
   136    92    91    1
   137   134   127   am
   138   158   156   am
   139   147   148    1
   140   147   144    1
   141   157   156    2
   142   127   128    2
   143   127   126    1
   144   148   150    1
   145   156   155    1
   146   144   143    1
   147   144   145    1
   148   126   129    1
   149   126   125    1
   150   129   130    1
   151   155   152    1
   152   132   131    2
   153   130   131    1
   154   124   123    2
   155   131   133   am
   156   145   146    2
   157   125   123   am
   158   152   151    1
   159   152   153    1
   160   123   122    1
   161   153   154    2
   162   115   114    1
   163   114   116    1
   164   114   111    1
   165   122   121    1
   166   121   119   am
   167   113   112    2
   168   112   111    1
   169   112   117   am
   170   119   118    1
   171   119   120    2
   172   111   110    1
   173   118   117    1
