@<TRIPOS>MOLECULE
tmp/4ltnA01.pdb
 121 117 0 0 0
SMALL
GASTEIGER

@<TRIPOS>ATOM
      1  N         16.0080   38.7970   67.8450 N.3    10  SER10      -0.1217
      2  CA        16.6150   37.5170   67.5290 C.3    10  SER10       0.1889
      3  C         17.1530   37.5620   66.0990 C.2    10  SER10       0.2288
      4  O         16.4990   38.0930   65.2060 O.2    10  SER10      -0.2866
      5  CB        15.6150   36.3770   67.6780 C.3    10  SER10       0.2089
      6  OG        16.2090   35.1530   67.2730 O.3    10  SER10      -0.2183
      7  N         17.5010   34.9210   64.5560 N.3    12  SER12      -0.1217
      8  CA        17.0420   33.6370   64.0590 C.3    12  SER12       0.1889
      9  C         15.7020   33.7750   63.3470 C.2    12  SER12       0.2288
     10  O         14.8490   34.5590   63.7550 O.2    12  SER12      -0.2866
     11  CB        16.9420   32.6420   65.2140 C.3    12  SER12       0.2089
     12  OG        16.2350   31.4800   64.8280 O.3    12  SER12      -0.2183
     13  N         11.9910   32.4810   62.3210 N.3    14  ASN14      -0.1225
     14  CA        10.9930   31.8070   63.1400 C.3    14  ASN14       0.1785
     15  C         11.2560   32.0180   64.6420 C.2    14  ASN14       0.2598
     16  O         11.3270   31.0690   65.4150 O.2    14  ASN14      -0.2718
     17  CB        10.9540   30.3170   62.8120 C.3    14  ASN14       0.1169
     18  CG         9.7340   29.6410   63.3830 C.2    14  ASN14       0.2627
     19  OD1        8.6740   30.2630   63.5100 O.2    14  ASN14      -0.2716
     20  ND2        9.8710   28.3710   63.7470 N.am   14  ASN14      -0.0877
     21  N         11.3990   33.2760   65.0290 N.am   15  SER15      -0.1938
     22  CA        11.7530   33.6630   66.3980 C.3    15  SER15       0.2055
     23  C         10.5990   33.4950   67.3900 C.2    15  SER15       0.2644
     24  O          9.5360   34.0970   67.2260 O.2    15  SER15      -0.2714
     25  CB        12.2010   35.1300   66.3790 C.3    15  SER15       0.2130
     26  OG        12.4330   35.6520   67.6790 O.3    15  SER15      -0.2179
     27  N         10.8110   32.6960   68.4300 N.am   16  THR16      -0.1936
     28  CA         9.8680   32.6400   69.5470 C.3    16  THR16       0.2028
     29  C          9.7910   33.9930   70.2510 C.2    16  THR16       0.2642
     30  O          8.7250   34.4300   70.6760 O.2    16  THR16      -0.2714
     31  CB        10.2800   31.5690   70.5740 C.3    16  THR16       0.1808
     32  OG1       10.2220   30.2810   69.9550 O.3    16  THR16      -0.2208
     33  CG2        9.3380   31.5810   71.7770 C.3    16  THR16       0.0379
     34  N         10.9320   34.6580   70.3740 N.am   17  THR17      -0.1950
     35  CA        10.9840   35.9840   70.9840 C.3    17  THR17       0.1897
     36  C         10.1020   36.9780   70.2260 C.2    17  THR17       0.2313
     37  O          9.4210   37.8090   70.8350 O.2    17  THR17      -0.2863
     38  CB        12.4260   36.5300   71.0030 C.3    17  THR17       0.1794
     39  OG1       13.3040   35.5660   71.5980 O.3    17  THR17      -0.2208
     40  CG2       12.4960   37.8310   71.7890 C.3    17  THR17       0.0378
     41  N         16.1000   37.2690   72.6530 N.3    77  PRO77      -0.2102
     42  CA        16.4850   35.9850   73.2290 C.3    77  PRO77       0.1504
     43  C         17.7210   36.2170   74.0810 C.2    77  PRO77       0.2576
     44  O         18.4080   37.2320   73.8900 O.2    77  PRO77      -0.2718
     45  CB        16.8580   35.1510   72.0000 C.3    77  PRO77       0.0282
     46  CG        17.3090   36.1360   71.0350 C.3    77  PRO77       0.0208
     47  CD        16.4380   37.3450   71.2240 C.3    77  PRO77       0.0893
     48  N         17.9970   35.3250   75.0220 N.am   78  ILE78      -0.1966
     49  CA        19.2390   35.4280   75.7650 C.3    78  ILE78       0.1727
     50  C         20.3520   34.7450   74.9730 C.2    78  ILE78       0.2616
     51  O         20.2560   33.5570   74.6680 O.2    78  ILE78      -0.2715
     52  CB        19.1200   34.8030   77.1700 C.3    78  ILE78       0.0290
     53  CG1       18.0330   35.5200   77.9920 C.3    78  ILE78       0.0022
     54  CG2       20.4550   34.8490   77.8830 C.3    78  ILE78       0.0023
     55  CD1       18.1470   37.0550   77.9960 C.3    78  ILE78       0.0001
     56  N         21.3760   35.5170   74.6060 N.am   79  TYR79      -0.1960
     57  CA        22.5680   35.0010   73.9280 C.3    79  TYR79       0.1771
     58  C         23.7850   35.2980   74.8190 C.2    79  TYR79       0.2619
     59  O         24.0330   36.4620   75.1570 O.2    79  TYR79      -0.2715
     60  CB        22.7790   35.7170   72.5840 C.3    79  TYR79       0.0574
     61  CG        22.0550   35.1280   71.3760 C.ar   79  TYR79      -0.0198
     62  CD1       20.9280   34.3310   71.5230 C.ar   79  TYR79      -0.0009
     63  CD2       22.5150   35.3740   70.0840 C.ar   79  TYR79      -0.0009
     64  CE1       20.2740   33.7960   70.4190 C.ar   79  TYR79       0.0417
     65  CE2       21.8670   34.8380   68.9620 C.ar   79  TYR79       0.0417
     66  CZ        20.7470   34.0480   69.1440 C.ar   79  TYR79       0.1957
     67  OH        20.0850   33.5090   68.0700 O.3    79  TYR79      -0.2866
     68  N         24.5510   34.2710   75.1720 N.am   80  LYS80      -0.1963
     69  CA        25.7580   34.4720   75.9850 C.3    80  LYS80       0.1728
     70  C         25.4260   35.2600   77.2530 C.2    80  LYS80       0.2616
     71  O         26.1300   36.1980   77.6020 O.2    80  LYS80      -0.2715
     72  CB        26.8390   35.2150   75.1760 C.3    80  LYS80       0.0311
     73  CG        27.7070   34.3220   74.2740 C.3    80  LYS80       0.0038
     74  CD        26.8630   33.4700   73.3620 C.3    80  LYS80       0.0206
     75  CE        27.6690   32.9280   72.1740 C.3    80  LYS80       0.1093
     76  NZ        28.5360   31.8020   72.5600 N.3    80  LYS80      -0.1314
     77  N         24.3280   34.8970   77.9120 N.am   81  ALA81      -0.1977
     78  CA        23.9530   35.4870   79.1990 C.3    81  ALA81       0.1597
     79  C         23.6040   36.9700   79.1350 C.2    81  ALA81       0.2287
     80  O         23.7260   37.6660   80.1350 O.2    81  ALA81      -0.2864
     81  CB        25.0600   35.2520   80.2430 C.3    81  ALA81       0.0319
     82  N         13.2230   35.4320   75.9670 N.3   109  THR109     -0.1203
     83  CA        13.1210   33.9890   76.0510 C.3   109  THR109      0.1994
     84  C         14.5400   33.4500   76.1390 C.2   109  THR109      0.2618
     85  O         15.4780   34.0780   75.6470 O.2   109  THR109     -0.2717
     86  CB        12.3750   33.3850   74.8260 C.3   109  THR109      0.1784
     87  OG1       13.2140   33.4290   73.6680 O.3   109  THR109     -0.2211
     88  CG2       11.1250   34.1770   74.5390 C.3   109  THR109      0.0376
     89  N         14.7050   32.2970   76.7700 N.am  110  GLY110     -0.1942
     90  CA        16.0100   31.6690   76.8540 C.3   110  GLY110      0.2014
     91  C         15.8590   30.1670   76.9080 C.2   110  GLY110      0.2639
     92  O         14.7540   29.6590   77.0890 O.2   110  GLY110     -0.2714
     93  N         16.9690   29.4550   76.7620 N.am  111  GLY111     -0.1939
     94  CA        16.9460   28.0090   76.7910 C.3   111  GLY111      0.2014
     95  C         16.9040   27.4820   78.2090 C.2   111  GLY111      0.2639
     96  O         16.4930   26.3500   78.4440 O.2   111  GLY111     -0.2714
     97  N         17.3280   28.3130   79.1560 N.am  112  SER112     -0.1949
     98  CA        17.4860   27.8940   80.5490 C.3   112  SER112      0.1924
     99  C         16.9630   28.9400   81.5300 C.2   112  SER112      0.2314
    100  O         17.1700   30.1450   81.3360 O.2   112  SER112     -0.2863
    101  CB        18.9670   27.6470   80.8480 C.3   112  SER112      0.2116
    102  OG        19.2110   27.6590   82.2430 O.3   112  SER112     -0.2180
    103  N         19.2130   32.0400   83.3330 N.3   115  HIS115     -0.1241
    104  CA        19.5850   33.3840   82.8780 C.3   115  HIS115      0.1621
    105  C         18.4860   34.4420   82.9620 C.2   115  HIS115      0.2264
    106  O         18.5610   35.4820   82.2890 O.2   115  HIS115     -0.2867
    107  CB        20.2160   33.3330   81.4830 C.3   115  HIS115      0.0745
    108  CG        21.5820   32.7290   81.4850 C.ar  115  HIS115      0.0817
    109  ND1       22.2120   32.2910   80.3460 N.ar  115  HIS115     -0.2268
    110  CD2       22.4310   32.4690   82.5080 C.ar  115  HIS115      0.1154
    111  CE1       23.3980   31.8030   80.6600 C.ar  115  HIS115      0.1986
    112  NE2       23.5550   31.8990   81.9680 N.ar  115  HIS115     -0.2212
    113  N         12.2560   28.6270   76.7040 N.3   141  GLN141     -0.1245
    114  CA        11.8420   28.2830   75.3350 C.3   141  GLN141      0.1566
    115  C         10.7020   27.2740   75.2990 C.2   141  GLN141      0.2260
    116  O          9.7070   27.4630   74.5890 O.2   141  GLN141     -0.2867
    117  CB        13.0380   27.7340   74.5370 C.3   141  GLN141      0.0367
    118  CG        12.7630   27.4830   73.0500 C.3   141  GLN141      0.0905
    119  CD        12.6310   28.7760   72.2570 C.2   141  GLN141      0.2608
    120  OE1       12.2130   29.8010   72.7990 O.2   141  GLN141     -0.2717
    121  NE2       13.0070   28.7420   70.9720 N.am  141  GLN141     -0.0878
@<TRIPOS>BOND
     1    13    14    1
     2    17    14    1
     3    17    18    1
     4    14    15    1
     5     9    10    2
     6     9     8    1
     7    18    19    2
     8    18    20   am
     9     8     7    1
    10     8    11    1
    11    15    21   am
    12    15    16    2
    13    12    11    1
    14    21    22    1
    15     4     3    2
    16     3     2    1
    17    25    22    1
    18    25    26    1
    19    22    23    1
    20    24    23    2
    21     6     5    1
    22    23    27   am
    23     2     5    1
    24     2     1    1
    25    67    66    1
    26    27    28    1
    27    65    66   ar
    28    65    63   ar
    29    66    64   ar
    30    28    29    1
    31    28    31    1
    32    32    31    1
    33    63    61   ar
    34    36    37    2
    35    36    35    1
    36    29    34   am
    37    29    30    2
    38    34    35    1
    39    64    62   ar
    40    31    33    1
    41   121   119   am
    42    35    38    1
    43    38    39    1
    44    38    40    1
    45    46    47    1
    46    46    45    1
    47    47    41    1
    48    61    62   ar
    49    61    60    1
    50    45    42    1
    51    75    76    1
    52    75    74    1
    53   119   120    2
    54   119   118    1
    55    60    57    1
    56    41    42    1
    57   118   117    1
    58    42    43    1
    59    74    73    1
    60    87    86    1
    61    44    43    2
    62    57    56    1
    63    57    58    1
    64    43    48   am
    65    73    72    1
    66   117   114    1
    67    88    86    1
    68   116   115    2
    69    56    50   am
    70    51    50    2
    71    58    59    2
    72    58    68   am
    73    86    83    1
    74    50    49    1
    75    48    49    1
    76    68    69    1
    77    72    69    1
    78   115   114    1
    79   114   113    1
    80    85    84    2
    81    49    52    1
    82    82    83    1
    83    69    70    1
    84    83    84    1
    85    84    89   am
    86    93    94    1
    87    93    91   am
    88    89    90    1
    89    94    95    1
    90    90    91    1
    91    91    92    2
    92    52    54    1
    93    52    53    1
    94    70    71    2
    95    70    77   am
    96    77    78    1
    97    53    55    1
    98    95    96    2
    99    95    97   am
   100    79    78    1
   101    79    80    2
   102    97    98    1
   103    78    81    1
   104   109   111   ar
   105   109   108   ar
   106    98   101    1
   107    98    99    1
   108   111   112   ar
   109   101   102    1
   110   100    99    2
   111   107   108    1
   112   107   104    1
   113   108   110   ar
   114   112   110   ar
   115   106   105    2
   116   104   105    1
   117   104   103    1
