@<TRIPOS>MOLECULE
tmp/4ltsB00.pdb
 161 152 0 0 0
SMALL
GASTEIGER

@<TRIPOS>ATOM
      1  N          8.3400    5.3030   46.3140 N.3   172  TYR172     -0.1241
      2  CA         8.5880    3.8690   46.1460 C.3   172  TYR172      0.1605
      3  C          7.3660    3.1390   45.5760 C.2   172  TYR172      0.2264
      4  O          7.3090    1.9130   45.6000 O.2   172  TYR172     -0.2867
      5  CB         8.9920    3.2390   47.4800 C.3   172  TYR172      0.0534
      6  CG        10.3440    3.7170   47.9140 C.ar  172  TYR172     -0.0201
      7  CD1       11.4880    3.2240   47.3010 C.ar  172  TYR172     -0.0009
      8  CD2       10.4820    4.6880   48.8940 C.ar  172  TYR172     -0.0009
      9  CE1       12.7360    3.6560   47.6790 C.ar  172  TYR172      0.0417
     10  CE2       11.7390    5.1370   49.2780 C.ar  172  TYR172      0.0417
     11  CZ        12.8560    4.6130   48.6560 C.ar  172  TYR172      0.1957
     12  OH        14.1160    5.0370   49.0050 O.3   172  TYR172     -0.2866
     13  N          7.8150    0.9240   40.6310 N.3   175  HIS175     -0.1241
     14  CA         9.1320    0.2990   40.5070 C.3   175  HIS175      0.1621
     15  C          9.4400   -0.0630   39.0330 C.2   175  HIS175      0.2264
     16  O          8.6070   -0.6360   38.3300 O.2   175  HIS175     -0.2867
     17  CB         9.1570   -0.9780   41.3470 C.3   175  HIS175      0.0745
     18  CG        10.5330   -1.4010   41.7580 C.ar  175  HIS175      0.0817
     19  ND1       11.0890   -1.0000   42.9480 N.ar  175  HIS175     -0.2268
     20  CD2       11.4760   -2.1470   41.1300 C.ar  175  HIS175      0.1154
     21  CE1       12.3080   -1.5030   43.0550 C.ar  175  HIS175      0.1986
     22  NE2       12.5670   -2.2080   41.9670 N.ar  175  HIS175     -0.2212
     23  N         10.5990   -2.3090   36.3180 N.3   177  PHE177     -0.1241
     24  CA        10.7920   -3.7310   36.0090 C.3   177  PHE177      0.1605
     25  C         11.2460   -3.9110   34.5410 C.2   177  PHE177      0.2264
     26  O         11.1730   -5.0190   33.9900 O.2   177  PHE177     -0.2867
     27  CB         9.4510   -4.4990   36.1320 C.3   177  PHE177      0.0534
     28  CG         9.0010   -4.8390   37.5590 C.ar  177  PHE177     -0.0203
     29  CD1        9.6770   -4.3860   38.6900 C.ar  177  PHE177     -0.0042
     30  CD2        7.8780   -5.6440   37.7430 C.ar  177  PHE177     -0.0042
     31  CE1        9.2230   -4.7200   39.9680 C.ar  177  PHE177     -0.0003
     32  CE2        7.4230   -5.9820   39.0130 C.ar  177  PHE177     -0.0003
     33  CZ         8.0850   -5.5380   40.1160 C.ar  177  PHE177     -0.0000
     34  N         14.5050   -6.1490   30.9470 N.3   180  ARG180     -0.1245
     35  CA        14.4100   -7.1780   29.9230 C.3   180  ARG180      0.1563
     36  C         13.5530   -6.7370   28.7560 C.2   180  ARG180      0.2260
     37  O         13.6580   -7.3020   27.6730 O.2   180  ARG180     -0.2867
     38  CB        13.8200   -8.4730   30.4850 C.3   180  ARG180      0.0307
     39  CG        12.3010   -8.4400   30.6830 C.3   180  ARG180      0.0489
     40  CD        11.8210   -9.6080   31.5340 C.3   180  ARG180      0.2205
     41  NE        12.4230   -9.5780   32.8620 N.pl3 180  ARG180     -0.0865
     42  CZ        12.1860  -10.4690   33.8220 C.cat 180  ARG180      0.5346
     43  NH1       11.3450  -11.4880   33.6140 N.pl3 180  ARG180      0.1354
     44  NH2       12.8140  -10.3540   34.9870 N.pl3 180  ARG180      0.1354
     45  N         12.7230    3.4660   43.3060 N.3   201  GLY201     -0.1225
     46  CA        12.7270    2.0150   43.1670 C.3   201  GLY201      0.1811
     47  C         13.0160    1.5410   41.7500 C.2   201  GLY201      0.2280
     48  O         12.3060    1.8900   40.8180 O.2   201  GLY201     -0.2866
     49  N         14.7880   -2.0440   39.3880 N.3   203  ASP203     -0.1239
     50  CA        15.5650   -3.2750   39.2140 C.3   203  ASP203      0.1674
     51  C         16.5160   -3.1060   38.0110 C.2   203  ASP203      0.2266
     52  O         17.3020   -3.9980   37.6980 O.2   203  ASP203     -0.2867
     53  CB        14.6400   -4.4870   38.9800 C.3   203  ASP203      0.1410
     54  CG        14.3260   -5.2560   40.2600 C.2   203  ASP203      0.3668
     55  OD1       14.0060   -4.6160   41.2900 O.co2 203  ASP203     -0.2456
     56  OD2       14.3980   -6.5190   40.2220 O.co2 203  ASP203     -0.2456
     57  N         16.9870    1.8760   44.5520 N.3   224  TYR224     -0.1227
     58  CA        17.0410    0.7630   45.4770 C.3   224  TYR224      0.1736
     59  C         16.1200   -0.3840   45.0850 C.2   224  TYR224      0.2596
     60  O         15.1960   -0.2140   44.2780 O.2   224  TYR224     -0.2718
     61  CB        16.6290    1.2590   46.8610 C.3   224  TYR224      0.0548
     62  CG        17.4770    2.4160   47.3480 C.ar  224  TYR224     -0.0200
     63  CD1       18.6380    2.1830   48.0730 C.ar  224  TYR224     -0.0009
     64  CD2       17.1120    3.7290   47.0890 C.ar  224  TYR224     -0.0009
     65  CE1       19.4180    3.2350   48.5230 C.ar  224  TYR224      0.0417
     66  CE2       17.8890    4.7930   47.5360 C.ar  224  TYR224      0.0417
     67  CZ        19.0360    4.5370   48.2570 C.ar  224  TYR224      0.1957
     68  OH        19.8210    5.5860   48.7140 O.3   224  TYR224     -0.2866
     69  N         16.3840   -1.5520   45.6600 N.am  225  SER225     -0.1938
     70  CA        15.4540   -2.6640   45.5160 C.3   225  SER225      0.2055
     71  C         15.4620   -3.5660   46.7430 C.2   225  SER225      0.2642
     72  O         16.1190   -3.2630   47.7350 O.2   225  SER225     -0.2714
     73  CB        15.7450   -3.4530   44.2350 C.3   225  SER225      0.2130
     74  OG        14.6360   -4.3000   43.9400 O.3   225  SER225     -0.2179
     75  N         14.6860   -4.6470   46.7020 N.am  226  VAL226     -0.1977
     76  CA        14.5940   -5.5780   47.8390 C.3   226  VAL226      0.1596
     77  C         14.4700   -6.9850   47.2680 C.2   226  VAL226      0.2287
     78  O         14.1020   -7.1530   46.0830 O.2   226  VAL226     -0.2864
     79  CB        13.3550   -5.3230   48.7430 C.3   226  VAL226      0.0276
     80  CG1       13.4170   -3.9550   49.4470 C.3   226  VAL226      0.0022
     81  CG2       12.1000   -5.4800   47.9670 C.3   226  VAL226      0.0022
     82  N         13.3060  -10.6440   46.1010 N.3   228  ALA228     -0.1231
     83  CA        12.0230  -11.0830   45.5720 C.3   228  ALA228      0.1694
     84  C         12.1950  -12.3410   44.7710 C.2   228  ALA228      0.2591
     85  O         13.2420  -12.5550   44.1530 O.2   228  ALA228     -0.2718
     86  CB        11.4050  -10.0010   44.6630 C.3   228  ALA228      0.0304
     87  N         11.1480  -13.1550   44.7390 N.am  229  ALA229     -0.1980
     88  CA        11.1440  -14.3580   43.9200 C.3   229  ALA229      0.1597
     89  C         10.7790  -14.0480   42.4700 C.2   229  ALA229      0.2287
     90  O         10.2700  -12.9570   42.1530 O.2   229  ALA229     -0.2864
     91  CB        10.1530  -15.3760   44.4990 C.3   229  ALA229      0.0319
     92  N         12.3600   -6.8070   53.7820 N.3   257  PRO257     -0.2116
     93  CA        11.1470   -7.0210   52.9830 C.3   257  PRO257      0.1372
     94  C         11.4000   -8.0720   51.9110 C.2   257  PRO257      0.2244
     95  O         12.5130   -8.1410   51.3870 O.2   257  PRO257     -0.2868
     96  CB        10.9340   -5.6720   52.2840 C.3   257  PRO257      0.0268
     97  CG        11.7990   -4.6770   53.0450 C.3   257  PRO257      0.0207
     98  CD        12.9460   -5.4740   53.5570 C.3   257  PRO257      0.0892
     99  N          9.3830   -9.9080   48.4020 N.3   259  SER259     -0.1217
    100  CA         8.2330  -10.0770   47.5280 C.3   259  SER259      0.1889
    101  C          8.2160  -11.4860   46.9620 C.2   259  SER259      0.2288
    102  O          9.2440  -12.0070   46.5280 O.2   259  SER259     -0.2866
    103  CB         8.2800   -9.0430   46.4030 C.3   259  SER259      0.2089
    104  OG         7.4890   -9.4840   45.3210 O.3   259  SER259     -0.2183
    105  N          8.1170   -6.4860   55.6460 N.3   291  PRO291     -0.2116
    106  CA         6.8580   -7.1380   55.2890 C.3   291  PRO291      0.1372
    107  C          7.0420   -8.2180   54.2320 C.2   291  PRO291      0.2244
    108  O          8.0310   -8.2320   53.4860 O.2   291  PRO291     -0.2868
    109  CB         6.0300   -5.9840   54.6920 C.3   291  PRO291      0.0268
    110  CG         7.0600   -5.0490   54.1210 C.3   291  PRO291      0.0207
    111  CD         8.1820   -5.0960   55.1500 C.3   291  PRO291      0.0892
    112  N          5.5530   -9.1190   50.7920 N.3   293  ILE293     -0.1245
    113  CA         4.8210   -8.4370   49.7440 C.3   293  ILE293      0.1561
    114  C          4.3270   -9.5170   48.7810 C.2   293  ILE293      0.2260
    115  O          5.1180  -10.1990   48.1390 O.2   293  ILE293     -0.2867
    116  CB         5.7060   -7.4000   49.0600 C.3   293  ILE293      0.0252
    117  CG1        6.2650   -6.4370   50.1220 C.3   293  ILE293      0.0019
    118  CG2        4.9000   -6.6320   47.9810 C.3   293  ILE293      0.0019
    119  CD1        7.6730   -5.9710   49.8800 C.3   293  ILE293      0.0001
    120  N          2.7630  -10.8980   45.4710 N.3   295  ARG295     -0.1245
    121  CA         2.7660  -10.4140   44.1030 C.3   295  ARG295      0.1563
    122  C          1.9180  -11.2730   43.1670 C.2   295  ARG295      0.2260
    123  O          2.3470  -12.3370   42.7330 O.2   295  ARG295     -0.2867
    124  CB         4.2060  -10.3370   43.5910 C.3   295  ARG295      0.0307
    125  CG         4.3320   -9.8190   42.1700 C.3   295  ARG295      0.0489
    126  CD         5.8060   -9.6840   41.7810 C.3   295  ARG295      0.2205
    127  NE         5.9210   -9.7290   40.3310 N.pl3 295  ARG295     -0.0865
    128  CZ         6.8510  -10.4090   39.6750 C.cat 295  ARG295      0.5346
    129  NH1        6.8450  -10.3790   38.3570 N.pl3 295  ARG295      0.1354
    130  NH2        7.7960  -11.0910   40.3400 N.pl3 295  ARG295      0.1354
    131  N          1.9340   -6.4960   52.4490 N.3   333  ARG333     -0.1231
    132  CA         1.5940   -5.5730   51.3570 C.3   333  ARG333      0.1694
    133  C          1.4290   -6.3580   50.0610 C.2   333  ARG333      0.2592
    134  O          1.6200   -7.5780   50.0260 O.2   333  ARG333     -0.2718
    135  CB         2.6850   -4.5040   51.2010 C.3   333  ARG333      0.0321
    136  CG         2.7940   -3.5500   52.4150 C.3   333  ARG333      0.0489
    137  CD         1.5580   -2.6580   52.4820 C.3   333  ARG333      0.2205
    138  NE         1.6060   -1.6290   53.5290 N.pl3 333  ARG333     -0.0865
    139  CZ         0.9570   -1.7080   54.6860 C.cat 333  ARG333      0.5346
    140  NH1        0.2480   -2.7840   54.9790 N.pl3 333  ARG333      0.1354
    141  NH2        1.0400   -0.7150   55.5610 N.pl3 333  ARG333      0.1354
    142  N          1.0460   -5.6450   49.0030 N.am  334  VAL334     -0.1966
    143  CA         0.8580   -6.2480   47.6760 C.3   334  VAL334      0.1727
    144  C          1.6360   -5.4340   46.6480 C.2   334  VAL334      0.2616
    145  O          1.7770   -4.2170   46.7940 O.2   334  VAL334     -0.2715
    146  CB        -0.6230   -6.2860   47.2970 C.3   334  VAL334      0.0290
    147  CG1       -0.8590   -6.7570   45.8370 C.3   334  VAL334      0.0023
    148  CG2       -1.4030   -7.1730   48.3040 C.3   334  VAL334      0.0023
    149  N          2.1630   -6.1050   45.6280 N.am  335  ILE335     -0.1977
    150  CA         2.6930   -5.3870   44.4700 C.3   335  ILE335      0.1596
    151  C          2.0830   -5.9630   43.1970 C.2   335  ILE335      0.2287
    152  O          2.0560   -7.1800   43.0060 O.2   335  ILE335     -0.2864
    153  CB         4.2450   -5.3680   44.4090 C.3   335  ILE335      0.0276
    154  CG1        4.7130   -4.5220   43.2200 C.3   335  ILE335      0.0022
    155  CG2        4.8100   -6.7920   44.4210 C.3   335  ILE335      0.0022
    156  CD1        6.2210   -4.2970   43.1400 C.3   335  ILE335      0.0001
    157  N          1.9570   -1.3890   45.8610 N.3   363  ALA363     -0.1245
    158  CA         2.9260   -0.7210   45.0090 C.3   363  ALA363      0.1562
    159  C          2.7660   -1.3090   43.6130 C.2   363  ALA363      0.2260
    160  O          2.1130   -2.3470   43.4490 O.2   363  ALA363     -0.2867
    161  CB         4.3340   -0.9420   45.5240 C.3   363  ALA363      0.0290
@<TRIPOS>BOND
     1    37    36    2
     2    36    35    1
     3    35    38    1
     4    35    34    1
     5    38    39    1
     6    39    40    1
     7    40    41    1
     8    41    42    2
     9    43    42    1
    10    42    44    1
    11    26    25    2
    12    25    24    1
    13    24    27    1
    14    24    23    1
    15    27    28    1
    16    28    30   ar
    17    28    29   ar
    18    52    51    2
    19    30    32   ar
    20    51    50    1
    21    16    15    2
    22   129   128    1
    23    29    31   ar
    24    53    50    1
    25    53    54    1
    26    32    33   ar
    27    15    14    1
    28    50    49    1
    29   128   127    2
    30   128   130    1
    31    31    33   ar
    32    56    54   ar
    33    54    55   ar
    34   127   126    1
    35    14    13    1
    36    14    17    1
    37    48    47    2
    38    20    18   ar
    39    20    22   ar
    40    17    18    1
    41    47    46    1
    42    18    19   ar
    43   126   125    1
    44    22    21   ar
    45    90    89    2
    46   125   124    1
    47    89    88    1
    48   123   122    2
    49    19    21   ar
    50   152   151    2
    51   156   154    1
    52   122   121    1
    53    46    45    1
    54   151   150    1
    55   154   153    1
    56   160   159    2
    57   124   121    1
    58   159   158    1
    59    88    91    1
    60    88    87    1
    61    74    73    1
    62   121   120    1
    63    85    84    2
    64    73    70    1
    65    60    59    2
    66   153   155    1
    67   153   150    1
    68   150   149    1
    69    57    58    1
    70    86    83    1
    71    87    84   am
    72    84    83    1
    73   158   161    1
    74   158   157    1
    75    59    58    1
    76    59    69   am
    77   104   103    1
    78    58    61    1
    79    70    69    1
    80    70    71    1
    81    83    82    1
    82     3     4    2
    83     3     2    1
    84   149   144   am
    85   147   146    1
    86    78    77    2
    87     2     1    1
    88     2     5    1
    89   103   100    1
    90   102   101    2
    91   144   145    2
    92   144   143    1
    93    75    71   am
    94    75    76    1
    95    71    72    2
    96    61    62    1
    97   101   100    1
    98    64    62   ar
    99    64    66   ar
   100    77    76    1
   101   146   143    1
   102   146   148    1
   103     7     9   ar
   104     7     6   ar
   105    62    63   ar
   106     5     6    1
   107   100    99    1
   108    66    67   ar
   109   143   142    1
   110     9    11   ar
   111    76    79    1
   112     6     8   ar
   113    81    79    1
   114   118   116    1
   115    63    65   ar
   116   115   114    2
   117    67    65   ar
   118    67    68    1
   119    11    12    1
   120    11    10   ar
   121    79    80    1
   122   114   113    1
   123     8    10   ar
   124   142   133   am
   125   116   113    1
   126   116   117    1
   127   113   112    1
   128   119   117    1
   129   134   133    2
   130   133   132    1
   131   135   132    1
   132   135   136    1
   133   132   131    1
   134    95    94    2
   135    94    93    1
   136    96    93    1
   137    96    97    1
   138   136   137    1
   139   137   138    1
   140    93    92    1
   141    97    98    1
   142   108   107    2
   143   138   139    2
   144    98    92    1
   145   110   109    1
   146   110   111    1
   147   107   106    1
   148   139   140    1
   149   139   141    1
   150   109   106    1
   151   111   105    1
   152   106   105    1
