@<TRIPOS>MOLECULE
tmp/4ltwA00.pdb
 185 173 0 0 0
SMALL
GASTEIGER

@<TRIPOS>ATOM
      1  N          2.1330   -4.9550   -6.0940 N.3    34  LEU34      -0.1245
      2  CA         1.0270   -4.5220   -6.9450 C.3    34  LEU34       0.1561
      3  C         -0.2870   -4.5710   -6.2070 C.2    34  LEU34       0.2260
      4  O         -1.1140   -3.6620   -6.3470 O.2    34  LEU34      -0.2867
      5  CB         0.9340   -5.3340   -8.2360 C.3    34  LEU34       0.0270
      6  CG         2.0830   -5.1380   -9.2180 C.3    34  LEU34       0.0019
      7  CD1        1.8800   -6.0260  -10.4520 C.3    34  LEU34       0.0001
      8  CD2        2.3060   -3.6680   -9.6180 C.3    34  LEU34       0.0001
      9  N         -0.3390   -1.4680   -3.9830 N.3    37  LEU37      -0.1231
     10  CA        -0.6720   -0.2610   -4.7290 C.3    37  LEU37       0.1693
     11  C         -2.1780   -0.1860   -5.0450 C.2    37  LEU37       0.2592
     12  O         -2.7560    0.9000   -5.0150 O.2    37  LEU37      -0.2718
     13  CB         0.1260   -0.1590   -6.0240 C.3    37  LEU37       0.0284
     14  CG         1.5930    0.1460   -5.8940 C.3    37  LEU37       0.0019
     15  CD1        2.1880    0.1790   -7.2880 C.3    37  LEU37       0.0001
     16  CD2        1.8100    1.4660   -5.2230 C.3    37  LEU37       0.0001
     17  N         -2.8080   -1.3240   -5.3270 N.am   38  ASN38      -0.1974
     18  CA        -4.2510   -1.3600   -5.6350 C.3    38  ASN38       0.1688
     19  C         -5.1170   -1.0300   -4.3930 C.2    38  ASN38       0.2292
     20  O         -6.1750   -0.4090   -4.5020 O.2    38  ASN38      -0.2864
     21  CB        -4.6670   -2.7230   -6.2240 C.3    38  ASN38       0.1181
     22  CG        -4.3020   -2.8810   -7.7270 C.2    38  ASN38       0.2629
     23  OD1       -3.9720   -1.9100   -8.4430 O.2    38  ASN38      -0.2716
     24  ND2       -4.3960   -4.1160   -8.2140 N.am   38  ASN38      -0.0877
     25  N         -3.9650    0.9090   -1.9510 N.3    40  LEU40      -0.1231
     26  CA        -3.7710    2.3640   -1.9000 C.3    40  LEU40       0.1693
     27  C         -4.6840    3.1060   -2.9020 C.2    40  LEU40       0.2591
     28  O         -5.3300    4.1010   -2.5650 O.2    40  LEU40      -0.2718
     29  CB        -2.3000    2.6920   -2.1530 C.3    40  LEU40       0.0284
     30  CG        -1.9100    4.1660   -2.1920 C.3    40  LEU40       0.0019
     31  CD1       -2.2710    4.8390   -0.8580 C.3    40  LEU40       0.0001
     32  CD2       -0.4030    4.3420   -2.5160 C.3    40  LEU40       0.0001
     33  N         -4.7610    2.6020   -4.1270 N.am   41  ALA41      -0.1980
     34  CA        -5.6170    3.2040   -5.1520 C.3    41  ALA41       0.1597
     35  C         -7.0670    3.2630   -4.7080 C.2    41  ALA41       0.2287
     36  O         -7.7910    4.2490   -4.9670 O.2    41  ALA41      -0.2864
     37  CB        -5.5100    2.4010   -6.4630 C.3    41  ALA41       0.0319
     38  N         -7.2700    6.1660   -2.2660 N.3    44  GLN44      -0.1245
     39  CA        -7.1480    7.4370   -2.9820 C.3    44  GLN44       0.1566
     40  C         -8.4090    7.7220   -3.8100 C.2    44  GLN44       0.2260
     41  O         -8.7570    8.8710   -4.0390 O.2    44  GLN44      -0.2867
     42  CB        -5.9140    7.4380   -3.8740 C.3    44  GLN44       0.0367
     43  CG        -4.6170    7.5030   -3.0650 C.3    44  GLN44       0.0905
     44  CD        -3.4380    7.8280   -3.9040 C.2    44  GLN44       0.2608
     45  OE1       -3.5690    8.1350   -5.1080 O.2    44  GLN44      -0.2717
     46  NE2       -2.2560    7.7310   -3.3100 N.am   44  GLN44      -0.0878
     47  N         -9.2490    9.2570  -13.2730 N.3    74  TRP74      -0.1227
     48  CA        -8.7730    8.7980  -11.9850 C.3    74  TRP74       0.1737
     49  C         -7.2620    8.4610  -12.0670 C.2    74  TRP74       0.2595
     50  O         -6.5090    8.8680  -11.2060 O.2    74  TRP74      -0.2718
     51  CB        -9.6270    7.6260  -11.4130 C.3    74  TRP74       0.0564
     52  CG        -9.5220    6.3790  -12.1380 C.ar   74  TRP74       0.0003
     53  CD1      -10.2620    6.0020  -13.2150 C.ar   74  TRP74       0.0946
     54  CD2       -8.5960    5.3110  -11.8940 C.ar   74  TRP74       0.0152
     55  NE1       -9.8570    4.7610  -13.6630 N.ar   74  TRP74      -0.2442
     56  CE2       -8.8390    4.3130  -12.8630 C.ar   74  TRP74       0.0810
     57  CE3       -7.5930    5.0950  -10.9500 C.ar   74  TRP74       0.0012
     58  CZ2       -8.1190    3.1240  -12.9080 C.ar   74  TRP74       0.0191
     59  CZ3       -6.8800    3.9030  -10.9940 C.ar   74  TRP74       0.0001
     60  CH2       -7.1380    2.9410  -11.9800 C.ar   74  TRP74       0.0015
     61  N         -6.8290    7.7320  -13.0940 N.am   75  MET75      -0.1979
     62  CA        -5.4240    7.3370  -13.2020 C.3    75  MET75       0.1605
     63  C         -4.5090    8.5520  -13.3130 C.2    75  MET75       0.2287
     64  O         -3.4990    8.6310  -12.6170 O.2    75  MET75      -0.2864
     65  CB        -5.2030    6.3920  -14.3720 C.3    75  MET75       0.0413
     66  CG        -3.7680    5.9420  -14.5140 C.3    75  MET75       0.0598
     67  SD        -3.2320    4.7720  -13.2250 S.3    75  MET75      -0.1393
     68  CE        -4.2210    3.3300  -13.7830 C.3    75  MET75       0.0692
     69  N         -4.2990   10.5650   -9.9000 N.3    78  MET78      -0.1230
     70  CA        -3.4440    9.9000   -8.9520 C.3    78  MET78       0.1702
     71  C         -1.9720    9.9330   -9.3890 C.2    78  MET78       0.2592
     72  O         -1.0760   10.1210   -8.5530 O.2    78  MET78      -0.2718
     73  CB        -3.9240    8.4700   -8.7230 C.3    78  MET78       0.0401
     74  CG        -5.2240    8.4590   -7.9710 C.3    78  MET78       0.0596
     75  SD        -5.8750    6.7920   -7.7540 S.3    78  MET78      -0.1393
     76  CE        -7.6190    7.1790   -7.6540 C.3    78  MET78       0.0692
     77  N         -1.7190    9.7920  -10.6930 N.am   79  ALA79      -0.1980
     78  CA        -0.3580    9.8730  -11.1960 C.3    79  ALA79       0.1597
     79  C          0.2440   11.2900  -11.0460 C.2    79  ALA79       0.2287
     80  O          1.4170   11.4730  -10.6950 O.2    79  ALA79      -0.2864
     81  CB        -0.3060    9.4110  -12.6340 C.3    79  ALA79       0.0319
     82  N          1.0570   11.9940   -7.4020 N.3    82  MET82      -0.1245
     83  CA         2.2770   11.2610   -7.0740 C.3    82  MET82       0.1570
     84  C          3.5350   12.0000   -7.5630 C.2    82  MET82       0.2261
     85  O          4.5610   11.9900   -6.8860 O.2    82  MET82      -0.2867
     86  CB         2.2070    9.8640   -7.6760 C.3    82  MET82       0.0387
     87  CG         3.5580    9.1870   -7.8860 C.3    82  MET82       0.0595
     88  SD         3.4690    7.6780   -8.8160 S.3    82  MET82      -0.1393
     89  CE         2.0360    7.9040   -9.8210 C.3    82  MET82       0.0692
     90  N          3.9240   14.7460   -4.9100 N.3    85  ARG85      -0.1245
     91  CA         4.4580   14.2330   -3.6500 C.3    85  ARG85       0.1563
     92  C          5.9220   13.7700   -3.7810 C.2    85  ARG85       0.2260
     93  O          6.7170   13.8990   -2.8390 O.2    85  ARG85      -0.2867
     94  CB         3.6230   13.0950   -3.1090 C.3    85  ARG85       0.0307
     95  CG         2.2420   13.4850   -2.6470 C.3    85  ARG85       0.0489
     96  CD         1.5110   12.3360   -1.9090 C.3    85  ARG85       0.2205
     97  NE         1.5140   11.0720   -2.6740 N.pl3  85  ARG85      -0.0865
     98  CZ         0.6120   10.7560   -3.5910 C.cat  85  ARG85       0.5346
     99  NH1       -0.3930   11.5870   -3.8740 N.pl3  85  ARG85       0.1354
    100  NH2        0.6920    9.5990   -4.2100 N.pl3  85  ARG85       0.1354
    101  N          4.5010    7.0110   -3.1960 N.3    97  PHE97      -0.1241
    102  CA         3.1120    6.5880   -3.3060 C.3    97  PHE97       0.1605
    103  C          2.3510    6.9470   -2.0460 C.2    97  PHE97       0.2264
    104  O          1.2640    7.4640   -2.1240 O.2    97  PHE97      -0.2867
    105  CB         3.0080    5.1050   -3.5850 C.3    97  PHE97       0.0534
    106  CG         3.3890    4.7260   -4.9920 C.ar   97  PHE97      -0.0203
    107  CD1        2.4680    4.8840   -6.0400 C.ar   97  PHE97      -0.0042
    108  CD2        4.6270    4.1990   -5.2650 C.ar   97  PHE97      -0.0042
    109  CE1        2.7810    4.5290   -7.3120 C.ar   97  PHE97      -0.0003
    110  CE2        4.9800    3.8380   -6.5810 C.ar   97  PHE97      -0.0003
    111  CZ         4.0430    4.0050   -7.6100 C.ar   97  PHE97      -0.0000
    112  N          6.8180   -3.1660  -13.5880 N.3   113  MET113     -0.1245
    113  CA         6.4830   -2.0370  -14.4480 C.3   113  MET113      0.1570
    114  C          7.5590   -0.9650  -14.3480 C.2   113  MET113      0.2261
    115  O          7.2680    0.2030  -14.1670 O.2   113  MET113     -0.2867
    116  CB         5.1320   -1.4910  -14.0500 C.3   113  MET113      0.0387
    117  CG         4.9870   -1.2400  -12.5720 C.3   113  MET113      0.0595
    118  SD         3.4540   -0.3410  -12.1990 S.3   113  MET113     -0.1393
    119  CE         3.7670    1.2340  -12.9740 C.3   113  MET113      0.0692
    120  N          6.8560    7.8150  -14.5280 N.3   120  MET120     -0.1245
    121  CA         6.2380    8.5550  -13.4260 C.3   120  MET120      0.1570
    122  C          7.2680    9.4220  -12.7390 C.2   120  MET120      0.2261
    123  O          6.9690   10.5330  -12.3220 O.2   120  MET120     -0.2867
    124  CB         5.5850    7.6060  -12.4150 C.3   120  MET120      0.0387
    125  CG         4.2830    7.0660  -12.9380 C.3   120  MET120      0.0595
    126  SD         3.4040    5.9200  -11.8590 S.3   120  MET120     -0.1393
    127  CE         4.5390    4.5480  -11.7360 C.3   120  MET120      0.0692
    128  N         -0.0260    3.6280  -18.3830 N.3   206  LEU206     -0.1245
    129  CA        -0.4070    3.1400  -17.0810 C.3   206  LEU206      0.1561
    130  C         -1.6770    2.3130  -17.2110 C.2   206  LEU206      0.2260
    131  O         -1.8080    1.2530  -16.5940 O.2   206  LEU206     -0.2867
    132  CB        -0.6230    4.2860  -16.1100 C.3   206  LEU206      0.0270
    133  CG         0.6550    5.0380  -15.7160 C.3   206  LEU206      0.0019
    134  CD1        0.2400    6.2950  -14.9200 C.3   206  LEU206      0.0001
    135  CD2        1.6120    4.1680  -14.9240 C.3   206  LEU206      0.0001
    136  N         -1.0780   -1.3320  -18.5900 N.3   209  PHE209     -0.1227
    137  CA        -0.5950   -2.2810  -17.5980 C.3   209  PHE209      0.1736
    138  C         -1.7280   -2.6610  -16.6580 C.2   209  PHE209      0.2595
    139  O         -1.9360   -3.8260  -16.3320 O.2   209  PHE209     -0.2718
    140  CB         0.5540   -1.6820  -16.8250 C.3   209  PHE209      0.0547
    141  CG         1.2380   -2.6440  -15.9100 C.ar  209  PHE209     -0.0202
    142  CD1        0.8120   -2.7950  -14.6130 C.ar  209  PHE209     -0.0042
    143  CD2        2.3350   -3.3590  -16.3410 C.ar  209  PHE209     -0.0042
    144  CE1        1.4650   -3.6410  -13.7500 C.ar  209  PHE209     -0.0003
    145  CE2        2.9960   -4.2270  -15.4820 C.ar  209  PHE209     -0.0003
    146  CZ         2.5510   -4.3760  -14.1920 C.ar  209  PHE209     -0.0000
    147  N         -2.4770   -1.6620  -16.2460 N.am  210  CYS210     -0.1970
    148  CA        -3.5450   -1.8740  -15.2950 C.3   210  CYS210      0.1712
    149  C         -4.6240   -2.8140  -15.8630 C.2   210  CYS210      0.2296
    150  O         -5.0350   -3.7720  -15.2100 O.2   210  CYS210     -0.2864
    151  CB        -4.1150   -0.5200  -14.9070 C.3   210  CYS210      0.0983
    152  SG        -5.6140   -0.6070  -13.9680 S.3   210  CYS210     -0.0798
    153  N         -3.2310   -6.3950  -16.0790 N.3   213  THR213     -0.1218
    154  CA        -3.1600   -7.0280  -14.7850 C.3   213  THR213      0.1862
    155  C         -4.5540   -7.2960  -14.2310 C.2   213  THR213      0.2287
    156  O         -4.7680   -8.3070  -13.5600 O.2   213  THR213     -0.2866
    157  CB        -2.3970   -6.1960  -13.7860 C.3   213  THR213      0.1770
    158  OG1       -3.1000   -4.9560  -13.5890 O.3   213  THR213     -0.2211
    159  CG2       -0.9990   -5.9620  -14.3050 C.3   213  THR213      0.0375
    160  N         -3.0080  -10.8940   -8.3860 N.3   222  VAL222     -0.1245
    161  CA        -2.9640   -9.4680   -8.0340 C.3   222  VAL222      0.1561
    162  C         -4.3600   -9.0990   -7.6870 C.2   222  VAL222      0.2260
    163  O         -5.2450   -9.1530   -8.5310 O.2   222  VAL222     -0.2867
    164  CB        -2.4270   -8.5880   -9.1570 C.3   222  VAL222      0.0252
    165  CG1       -2.6550   -7.0990   -8.8460 C.3   222  VAL222      0.0019
    166  CG2       -0.9210   -8.8720   -9.3510 C.3   222  VAL222      0.0019
    167  N         -7.5190   -6.7830   -6.9170 N.3   224  PHE224     -0.1241
    168  CA        -8.1830   -5.5010   -7.1510 C.3   224  PHE224      0.1605
    169  C         -9.3830   -5.3750   -6.2090 C.2   224  PHE224      0.2264
    170  O        -10.2990   -6.1690   -6.3020 O.2   224  PHE224     -0.2867
    171  CB        -8.7050   -5.3890   -8.5880 C.3   224  PHE224      0.0534
    172  CG        -7.6230   -5.2200   -9.6020 C.ar  224  PHE224     -0.0203
    173  CD1       -6.8570   -6.2930   -9.9880 C.ar  224  PHE224     -0.0042
    174  CD2       -7.3460   -3.9720  -10.1260 C.ar  224  PHE224     -0.0042
    175  CE1       -5.8080   -6.1220  -10.8870 C.ar  224  PHE224     -0.0003
    176  CE2       -6.3390   -3.7900  -11.0290 C.ar  224  PHE224     -0.0003
    177  CZ        -5.5650   -4.8650  -11.4290 C.ar  224  PHE224     -0.0000
    178  N        -12.2990   -0.2590   -7.2340 N.3   228  LEU228     -0.1245
    179  CA       -11.3780   -0.2660   -8.3470 C.3   228  LEU228      0.1561
    180  C        -11.9370   -1.1630   -9.4610 C.2   228  LEU228      0.2260
    181  O        -11.8550   -0.8270  -10.6440 O.2   228  LEU228     -0.2867
    182  CB       -10.0150   -0.7490   -7.8590 C.3   228  LEU228      0.0270
    183  CG        -8.7980   -0.5390   -8.7500 C.3   228  LEU228      0.0019
    184  CD1       -8.7010    0.8690   -9.3270 C.3   228  LEU228      0.0001
    185  CD2       -7.5820   -0.8370   -7.9170 C.3   228  LEU228      0.0001
@<TRIPOS>BOND
     1   136   137    1
     2   128   129    1
     3   137   140    1
     4   137   138    1
     5   130   129    1
     6   130   131    2
     7   129   132    1
     8   140   141    1
     9   138   139    2
    10   138   147   am
    11   143   141   ar
    12   143   145   ar
    13   147   148    1
    14   132   133    1
    15   153   154    1
    16   141   142   ar
    17   149   148    1
    18   149   150    2
    19   133   135    1
    20   133   134    1
    21   145   146   ar
    22   148   151    1
    23   151   152    1
    24   154   155    1
    25   154   157    1
    26   142   144   ar
    27   120   121    1
    28    66    65    1
    29    66    67    1
    30   113   114    1
    31   113   116    1
    32   113   112    1
    33    65    62    1
    34   114   115    2
    35   159   157    1
    36   155   156    2
    37   146   144   ar
    38   116   117    1
    39   157   158    1
    40    68    67    1
    41    55    53   ar
    42    55    56   ar
    43   121   122    1
    44   121   124    1
    45    63    62    1
    46    63    64    2
    47    47    48    1
    48    53    52   ar
    49    62    61    1
    50    61    49   am
    51   119   118    1
    52   125   124    1
    53   125   126    1
    54    58    56   ar
    55    58    60   ar
    56    56    54   ar
    57   122   123    2
    58    81    78    1
    59   117   118    1
    60    52    54   ar
    61    52    51    1
    62    49    48    1
    63    49    50    2
    64    48    51    1
    65    60    59   ar
    66    54    57   ar
    67   126   127    1
    68   177   176   ar
    69   177   175   ar
    70    78    79    1
    71    78    77    1
    72    79    80    2
    73   176   174   ar
    74    59    57   ar
    75   175   173   ar
    76    77    71   am
    77   181   180    2
    78     7     6    1
    79   174   172   ar
    80   173   172   ar
    81    69    70    1
    82    89    88    1
    83     8     6    1
    84   172   171    1
    85   180   179    1
    86    71    70    1
    87    71    72    2
    88   166   164    1
    89   184   183    1
    90     6     5    1
    91   164   165    1
    92   164   161    1
    93    70    73    1
    94    88    87    1
    95   183   185    1
    96   183   182    1
    97    73    74    1
    98   171   168    1
    99   163   162    2
   100    23    22    2
   101   160   161    1
   102   179   182    1
   103   179   178    1
   104     5     2    1
   105    24    22   am
   106   161   162    1
   107    74    75    1
   108    87    86    1
   109    75    76    1
   110    22    21    1
   111    86    83    1
   112   111   109   ar
   113   111   110   ar
   114    84    83    1
   115    84    85    2
   116    82    83    1
   117   109   107   ar
   118    15    14    1
   119   168   167    1
   120   168   169    1
   121     2     3    1
   122     2     1    1
   123   110   108   ar
   124    37    34    1
   125     4     3    2
   126   170   169    2
   127    21    18    1
   128   107   106   ar
   129    13    14    1
   130    13    10    1
   131    14    16    1
   132    18    17    1
   133    18    19    1
   134    17    11   am
   135   108   106   ar
   136    34    35    1
   137    34    33    1
   138    45    44    2
   139    11    12    2
   140    11    10    1
   141   106   105    1
   142    36    35    2
   143    90    91    1
   144    10     9    1
   145    20    19    2
   146   100    98    1
   147    33    27   am
   148    41    40    2
   149    44    46   am
   150    44    43    1
   151    42    43    1
   152    42    39    1
   153    99    98    1
   154    40    39    1
   155    92    91    1
   156    92    93    2
   157    91    94    1
   158    98    97    2
   159   105   102    1
   160   102   101    1
   161   102   103    1
   162    94    95    1
   163    39    38    1
   164    27    28    2
   165    27    26    1
   166    97    96    1
   167    95    96    1
   168    32    30    1
   169    30    29    1
   170    30    31    1
   171    29    26    1
   172   104   103    2
   173    25    26    1
