@<TRIPOS>MOLECULE
tmp/4ltwA01.pdb
 114 105 0 0 0
SMALL
GASTEIGER

@<TRIPOS>ATOM
      1  N         -9.0860    6.6700   -4.2530 N.3    45  LEU45      -0.1231
      2  CA       -10.2670    6.8370   -5.0880 C.3    45  LEU45       0.1693
      3  C        -11.3970    7.4630   -4.2920 C.2    45  LEU45       0.2591
      4  O        -12.0370    8.3900   -4.7740 O.2    45  LEU45      -0.2718
      5  CB       -10.7160    5.5250   -5.7150 C.3    45  LEU45       0.0284
      6  CG       -11.7760    5.6240   -6.8210 C.3    45  LEU45       0.0019
      7  CD1      -11.2790    6.5280   -7.9460 C.3    45  LEU45       0.0001
      8  CD2      -12.1250    4.2370   -7.3830 C.3    45  LEU45       0.0001
      9  N        -11.6230    7.0190   -3.0660 N.am   46  VAL46      -0.1980
     10  CA       -12.6340    7.7100   -2.2600 C.3    46  VAL46       0.1595
     11  C        -12.2360    9.1840   -1.9980 C.2    46  VAL46       0.2287
     12  O        -13.0930   10.0570   -2.0490 O.2    46  VAL46      -0.2864
     13  CB       -13.0090    6.9590   -0.9450 C.3    46  VAL46       0.0276
     14  CG1      -13.1070    5.4430   -1.1820 C.3    46  VAL46       0.0022
     15  CG2      -12.0500    7.2560    0.1670 C.3    46  VAL46       0.0022
     16  N        -12.9520   11.2090   -5.2320 N.3    49  VAL49      -0.1245
     17  CA       -14.3720   11.4320   -5.4540 C.3    49  VAL49       0.1561
     18  C        -14.8480   12.5450   -4.5260 C.2    49  VAL49       0.2260
     19  O        -15.5420   13.4660   -4.9440 O.2    49  VAL49      -0.2867
     20  CB       -15.1970   10.1470   -5.2560 C.3    49  VAL49       0.0252
     21  CG1      -16.7170   10.4670   -5.2480 C.3    49  VAL49       0.0019
     22  CG2      -14.8740    9.1550   -6.3800 C.3    49  VAL49       0.0019
     23  N        -16.3420   16.2960   -5.8040 N.3    53  LYS53      -0.1245
     24  CA       -17.6790   16.7970   -5.4620 C.3    53  LYS53       0.1561
     25  C        -17.6510   18.2160   -4.8460 C.2    53  LYS53       0.2260
     26  O        -18.6190   18.9670   -4.9550 O.2    53  LYS53      -0.2867
     27  CB       -18.3950   15.7910   -4.5240 C.3    53  LYS53       0.0271
     28  CG       -18.8710   14.4880   -5.1880 C.3    53  LYS53       0.0035
     29  CD       -19.5550   13.5320   -4.1730 C.3    53  LYS53       0.0206
     30  CE       -19.8490   12.1680   -4.8080 C.3    53  LYS53       0.1093
     31  NZ       -20.0710   11.0580   -3.8070 N.3    53  LYS53      -0.1314
     32  N        -18.2610   21.6570  -10.2950 N.3    58  PHE58      -0.1241
     33  CA       -18.3860   20.2400  -10.6770 C.3    58  PHE58       0.1605
     34  C        -19.8040   19.6840  -10.4690 C.2    58  PHE58       0.2264
     35  O        -20.3630   19.0230  -11.3510 O.2    58  PHE58      -0.2867
     36  CB       -17.3640   19.4030   -9.9120 C.3    58  PHE58       0.0534
     37  CG       -17.2420   17.9780  -10.3910 C.ar   58  PHE58      -0.0203
     38  CD1      -16.4920   17.6680  -11.5140 C.ar   58  PHE58      -0.0042
     39  CD2      -17.8590   16.9510   -9.6950 C.ar   58  PHE58      -0.0042
     40  CE1      -16.3730   16.3490  -11.9520 C.ar   58  PHE58      -0.0003
     41  CE2      -17.7410   15.6300  -10.1220 C.ar   58  PHE58      -0.0003
     42  CZ       -16.9930   15.3330  -11.2470 C.ar   58  PHE58      -0.0000
     43  N        -24.9800   14.5050  -13.6230 N.3    63  LEU63      -0.1245
     44  CA       -24.4050   13.3770  -12.9000 C.3    63  LEU63       0.1561
     45  C        -23.6500   12.3700  -13.7850 C.2    63  LEU63       0.2260
     46  O        -22.6170   11.8400  -13.3780 O.2    63  LEU63      -0.2867
     47  CB       -25.4750   12.6450  -12.1080 C.3    63  LEU63       0.0270
     48  CG       -25.9830   13.3100  -10.8220 C.3    63  LEU63       0.0019
     49  CD1      -27.0430   12.4140  -10.1940 C.3    63  LEU63       0.0001
     50  CD2      -24.8690   13.5740   -9.8150 C.3    63  LEU63       0.0001
     51  N        -20.2990   13.9500  -14.4690 N.3    66  GLN66      -0.1231
     52  CA       -19.4740   13.8040  -13.2820 C.3    66  GLN66       0.1698
     53  C        -18.8400   12.4270  -13.2080 C.2    66  GLN66       0.2592
     54  O        -17.6200   12.2960  -13.0250 O.2    66  GLN66      -0.2718
     55  CB       -20.3210   14.0400  -12.0500 C.3    66  GLN66       0.0381
     56  CG       -20.7940   15.4540  -11.9400 C.3    66  GLN66       0.0905
     57  CD       -21.5240   15.6880  -10.6470 C.2    66  GLN66       0.2608
     58  OE1      -21.1390   15.1680   -9.6140 O.2    66  GLN66      -0.2717
     59  NE2      -22.5870   16.4540  -10.7000 N.am   66  GLN66      -0.0878
     60  N        -19.6540   11.3930  -13.3830 N.am   67  MET67      -0.1979
     61  CA       -19.1410   10.0340  -13.3330 C.3    67  MET67       0.1605
     62  C        -18.1660    9.7290  -14.4850 C.2    67  MET67       0.2287
     63  O        -17.1570    9.0750  -14.2930 O.2    67  MET67      -0.2864
     64  CB       -20.2910    9.0290  -13.3510 C.3    67  MET67       0.0413
     65  CG       -21.0360    8.9470  -12.0220 C.3    67  MET67       0.0598
     66  SD       -22.4890    7.8550  -12.0730 S.3    67  MET67      -0.1393
     67  CE       -22.0650    6.7280  -13.4180 C.3    67  MET67       0.0692
     68  N        -14.7080   11.4410  -13.8560 N.3    70  ILE70      -0.1231
     69  CA       -14.0480   10.5780  -12.8980 C.3    70  ILE70       0.1692
     70  C        -13.4790    9.2750  -13.4940 C.2    70  ILE70       0.2591
     71  O        -12.2750    8.9670  -13.3040 O.2    70  ILE70      -0.2718
     72  CB       -14.9740   10.3490  -11.6900 C.3    70  ILE70       0.0266
     73  CG1      -15.1270   11.6870  -10.9430 C.3    70  ILE70       0.0019
     74  CG2      -14.4130    9.2930  -10.7560 C.3    70  ILE70       0.0020
     75  CD1      -16.3010   11.7490   -9.9880 C.3    70  ILE70       0.0001
     76  N        -14.2970    8.5410  -14.2490 N.am   71  GLN71      -0.1979
     77  CA       -13.8220    7.3330  -14.9300 C.3    71  GLN71       0.1601
     78  C        -12.6500    7.5740  -15.8590 C.2    71  GLN71       0.2287
     79  O        -11.7070    6.7890  -15.9030 O.2    71  GLN71      -0.2864
     80  CB       -14.9600    6.6960  -15.7100 C.3    71  GLN71       0.0394
     81  CG       -16.0010    6.0780  -14.8020 C.3    71  GLN71       0.0908
     82  CD       -17.2760    5.7680  -15.5520 C.2    71  GLN71       0.2608
     83  OE1      -17.2780    5.7710  -16.7830 O.2    71  GLN71      -0.2717
     84  NE2      -18.3750    5.5160  -14.8190 N.am   71  GLN71      -0.0878
     85  N        -14.1490   -1.1790   -5.4240 N.3   227  MET227     -0.1245
     86  CA       -14.4160    0.0720   -6.1300 C.3   227  MET227      0.1570
     87  C        -13.5150    0.2530   -7.3440 C.2   227  MET227      0.2261
     88  O        -13.9020    0.8690   -8.3420 O.2   227  MET227     -0.2867
     89  CB       -14.2300    1.2670   -5.2030 C.3   227  MET227      0.0387
     90  CG       -15.0350    1.1900   -3.9550 C.3   227  MET227      0.0595
     91  SD       -14.9290    2.7670   -3.1140 S.3   227  MET227     -0.1393
     92  CE       -16.6650    3.2320   -3.2080 C.3   227  MET227      0.0692
     93  N        -15.0370   -1.8120  -10.0690 N.3   230  GLU230     -0.1231
     94  CA       -16.1290   -1.0840  -10.6860 C.3   230  GLU230      0.1699
     95  C        -15.6320   -0.0410  -11.6560 C.2   230  GLU230      0.2592
     96  O        -16.1810    0.1140  -12.7340 O.2   230  GLU230     -0.2718
     97  CB       -16.9730   -0.3610   -9.6380 C.3   230  GLU230      0.0402
     98  CG       -17.7480   -1.2660   -8.7120 C.3   230  GLU230      0.1161
     99  CD       -18.4620   -0.4860   -7.6190 C.2   230  GLU230      0.3649
    100  OE1      -18.1610    0.7350   -7.4570 O.co2 230  GLU230     -0.2457
    101  OE2      -19.3270   -1.0970   -6.9370 O.co2 230  GLU230     -0.2457
    102  N        -14.6280    0.7340  -11.2770 N.am  231  ILE231     -0.1980
    103  CA       -14.3000    1.8470  -12.1430 C.3   231  ILE231      0.1595
    104  C        -13.5220    1.3420  -13.4000 C.2   231  ILE231      0.2287
    105  O        -13.7340    1.8350  -14.5120 O.2   231  ILE231     -0.2864
    106  CB       -13.6060    2.9800  -11.3650 C.3   231  ILE231      0.0276
    107  CG1      -13.7370    4.2920  -12.1360 C.3   231  ILE231      0.0022
    108  CG2      -12.1380    2.6370  -11.0550 C.3   231  ILE231      0.0022
    109  CD1      -13.4760    5.5160  -11.2860 C.3   231  ILE231      0.0001
    110  N        -16.0460   -0.3140  -15.8010 N.3   234  ALA234     -0.1245
    111  CA       -16.7650    0.7540  -16.4930 C.3   234  ALA234      0.1562
    112  C        -15.9070    1.4040  -17.5820 C.2   234  ALA234      0.2260
    113  O        -16.3720    1.6430  -18.6910 O.2   234  ALA234     -0.2867
    114  CB       -17.2160    1.8310  -15.4860 C.3   234  ALA234      0.0290
@<TRIPOS>BOND
     1   113   112    2
     2   112   111    1
     3    83    82    2
     4   111   110    1
     5   111   114    1
     6    79    78    2
     7    78    77    1
     8    80    77    1
     9    80    81    1
    10    82    84   am
    11    82    81    1
    12    77    76    1
    13   105   104    2
    14    62    63    2
    15    62    61    1
    16    51    52    1
    17    76    70   am
    18    68    69    1
    19    45    46    2
    20    45    44    1
    21    43    44    1
    22    70    71    2
    23    70    69    1
    24    67    66    1
    25   104   103    1
    26    60    61    1
    27    60    53   am
    28    64    61    1
    29    64    65    1
    30    52    53    1
    31    52    55    1
    32    53    54    2
    33    44    47    1
    34    69    72    1
    35    96    95    2
    36   103   106    1
    37   103   102    1
    38   107   106    1
    39   107   109    1
    40    47    48    1
    41    66    65    1
    42    55    56    1
    43    40    38   ar
    44    40    42   ar
    45    56    57    1
    46    72    73    1
    47    72    74    1
    48    95   102   am
    49    95    94    1
    50    38    37   ar
    51   106   108    1
    52    35    34    2
    53    42    41   ar
    54    73    75    1
    55    48    49    1
    56    48    50    1
    57    59    57   am
    58    94    93    1
    59    94    97    1
    60    33    34    1
    61    33    32    1
    62    33    36    1
    63    57    58    2
    64    37    36    1
    65    37    39   ar
    66    41    39   ar
    67    97    98    1
    68    98    99    1
    69    88    87    2
    70     7     6    1
    71    99   100   ar
    72    99   101   ar
    73     8     6    1
    74    87    86    1
    75     6     5    1
    76    22    20    1
    77    86    85    1
    78    86    89    1
    79    23    24    1
    80     5     2    1
    81    24    25    1
    82    24    27    1
    83    17    20    1
    84    17    16    1
    85    17    18    1
    86    20    21    1
    87    89    90    1
    88    28    27    1
    89    28    29    1
    90     2     3    1
    91     2     1    1
    92    26    25    2
    93    19    18    2
    94    30    29    1
    95    30    31    1
    96     4     3    2
    97     3     9   am
    98    90    91    1
    99    92    91    1
   100     9    10    1
   101    10    11    1
   102    10    13    1
   103    12    11    2
   104    14    13    1
   105    13    15    1
