@<TRIPOS>MOLECULE
tmp/4ltwA02.pdb
 102 95 0 0 0
SMALL
GASTEIGER

@<TRIPOS>ATOM
      1  N          6.5900   -8.8810   -6.5820 N.3    30  THR30      -0.1218
      2  CA         5.6600   -8.3080   -7.5400 C.3    30  THR30       0.1862
      3  C          4.1980   -8.2910   -7.0650 C.2    30  THR30       0.2287
      4  O          3.5280   -7.2560   -7.1040 O.2    30  THR30      -0.2866
      5  CB         5.7840   -9.0430   -8.8860 C.3    30  THR30       0.1770
      6  OG1        7.1430   -8.9690   -9.3180 O.3    30  THR30      -0.2211
      7  CG2        4.8850   -8.4200   -9.9370 C.3    30  THR30       0.0375
      8  N          2.1330   -4.9550   -6.0940 N.3    34  LEU34      -0.1245
      9  CA         1.0270   -4.5220   -6.9450 C.3    34  LEU34       0.1561
     10  C         -0.2870   -4.5710   -6.2070 C.2    34  LEU34       0.2260
     11  O         -1.1140   -3.6620   -6.3470 O.2    34  LEU34      -0.2867
     12  CB         0.9340   -5.3340   -8.2360 C.3    34  LEU34       0.0270
     13  CG         2.0830   -5.1380   -9.2180 C.3    34  LEU34       0.0019
     14  CD1        1.8800   -6.0260  -10.4520 C.3    34  LEU34       0.0001
     15  CD2        2.3060   -3.6680   -9.6180 C.3    34  LEU34       0.0001
     16  N          7.5640   -5.0340  -11.7770 N.3   112  ALA112     -0.1231
     17  CA         7.2940   -5.5270  -13.1370 C.3   112  ALA112      0.1694
     18  C          6.8200   -4.4010  -14.0700 C.2   112  ALA112      0.2591
     19  O          6.4920   -4.6430  -15.2120 O.2   112  ALA112     -0.2718
     20  CB         6.3020   -6.7040  -13.1460 C.3   112  ALA112      0.0304
     21  N          6.8180   -3.1660  -13.5880 N.am  113  MET113     -0.1979
     22  CA         6.4830   -2.0370  -14.4480 C.3   113  MET113      0.1605
     23  C          7.5590   -0.9650  -14.3480 C.2   113  MET113      0.2287
     24  O          7.2680    0.2030  -14.1670 O.2   113  MET113     -0.2864
     25  CB         5.1320   -1.4910  -14.0500 C.3   113  MET113      0.0413
     26  CG         4.9870   -1.2400  -12.5720 C.3   113  MET113      0.0598
     27  SD         3.4540   -0.3410  -12.1990 S.3   113  MET113     -0.1393
     28  CE         3.7670    1.2340  -12.9740 C.3   113  MET113      0.0692
     29  N          9.7300    0.4540  -16.5100 N.3   115  ASP115     -0.1225
     30  CA         9.6480    1.5510  -17.4870 C.3   115  ASP115      0.1805
     31  C          8.5460    2.5470  -17.1380 C.2   115  ASP115      0.2597
     32  O          8.7250    3.7560  -17.2510 O.2   115  ASP115     -0.2718
     33  CB         9.4030    1.0150  -18.9060 C.3   115  ASP115      0.1424
     34  CG        10.6550    0.3310  -19.5050 C.2   115  ASP115      0.3668
     35  OD1       11.7630    0.4020  -18.9010 O.co2 115  ASP115     -0.2456
     36  OD2       10.5330   -0.2690  -20.6000 O.co2 115  ASP115     -0.2456
     37  N          7.3900    2.0580  -16.7310 N.am  116  LEU116     -0.1979
     38  CA         6.3600    2.9850  -16.2890 C.3   116  LEU116      0.1596
     39  C          6.7650    3.7470  -15.0200 C.2   116  LEU116      0.2287
     40  O          6.4090    4.9120  -14.8590 O.2   116  LEU116     -0.2864
     41  CB         5.0540    2.2620  -16.0450 C.3   116  LEU116      0.0297
     42  CG         4.4180    1.7460  -17.3310 C.3   116  LEU116      0.0022
     43  CD1        3.2620    0.7830  -16.9720 C.3   116  LEU116      0.0001
     44  CD2        3.9150    2.9360  -18.1470 C.3   116  LEU116      0.0001
     45  N         -0.0020    4.4680  -21.0930 N.3   205  GLY205     -0.1225
     46  CA         0.8680    3.4110  -20.6460 C.3   205  GLY205      0.1811
     47  C          0.4150    2.8020  -19.3290 C.2   205  GLY205      0.2280
     48  O          0.4780    1.5950  -19.1680 O.2   205  GLY205     -0.2866
     49  N         -2.5910    0.6390  -19.9110 N.3   208  GLN208     -0.1231
     50  CA        -2.3220   -0.6290  -20.5700 C.3   208  GLN208      0.1698
     51  C         -1.8990   -1.7240  -19.5590 C.2   208  GLN208      0.2592
     52  O         -2.3100   -2.9020  -19.6430 O.2   208  GLN208     -0.2718
     53  CB        -1.2270   -0.4400  -21.6350 C.3   208  GLN208      0.0381
     54  CG        -0.9080   -1.7040  -22.3990 C.3   208  GLN208      0.0905
     55  CD         0.2630   -1.5650  -23.3590 C.2   208  GLN208      0.2608
     56  OE1        0.8990   -0.5260  -23.4330 O.2   208  GLN208     -0.2717
     57  NE2        0.5490   -2.6310  -24.0980 N.am  208  GLN208     -0.0878
     58  N         -1.0780   -1.3320  -18.5900 N.am  209  PHE209     -0.1976
     59  CA        -0.5950   -2.2810  -17.5980 C.3   209  PHE209      0.1639
     60  C         -1.7280   -2.6610  -16.6580 C.2   209  PHE209      0.2290
     61  O         -1.9360   -3.8260  -16.3320 O.2   209  PHE209     -0.2864
     62  CB         0.5540   -1.6820  -16.8250 C.3   209  PHE209      0.0560
     63  CG         1.2380   -2.6440  -15.9100 C.ar  209  PHE209     -0.0200
     64  CD1        0.8120   -2.7950  -14.6130 C.ar  209  PHE209     -0.0042
     65  CD2        2.3350   -3.3590  -16.3410 C.ar  209  PHE209     -0.0042
     66  CE1        1.4650   -3.6410  -13.7500 C.ar  209  PHE209     -0.0003
     67  CE2        2.9960   -4.2270  -15.4820 C.ar  209  PHE209     -0.0003
     68  CZ         2.5510   -4.3760  -14.1920 C.ar  209  PHE209     -0.0000
     69  N         -4.2780   -4.9670  -18.3050 N.3   212  TYR212     -0.1227
     70  CA        -3.6730   -6.2870  -18.4550 C.3   212  TYR212      0.1736
     71  C         -3.6980   -7.0560  -17.1350 C.2   212  TYR212      0.2596
     72  O         -4.1650   -8.2170  -17.0570 O.2   212  TYR212     -0.2718
     73  CB        -2.2300   -6.1930  -18.9880 C.3   212  TYR212      0.0548
     74  CG        -1.6460   -7.5660  -19.0950 C.ar  212  TYR212     -0.0200
     75  CD1       -2.0660   -8.4400  -20.1090 C.ar  212  TYR212     -0.0009
     76  CD2       -0.7560   -8.0390  -18.1490 C.ar  212  TYR212     -0.0009
     77  CE1       -1.6030   -9.7220  -20.1890 C.ar  212  TYR212      0.0417
     78  CE2       -0.2520   -9.3400  -18.2310 C.ar  212  TYR212      0.0417
     79  CZ        -0.6800  -10.1790  -19.2700 C.ar  212  TYR212      0.1957
     80  OH        -0.2430  -11.4750  -19.3940 O.3   212  TYR212     -0.2866
     81  N         -3.2310   -6.3950  -16.0790 N.am  213  THR213     -0.1953
     82  CA        -3.1600   -7.0280  -14.7850 C.3   213  THR213      0.1897
     83  C         -4.5540   -7.2960  -14.2310 C.2   213  THR213      0.2313
     84  O         -4.7680   -8.3070  -13.5600 O.2   213  THR213     -0.2863
     85  CB        -2.3970   -6.1960  -13.7860 C.3   213  THR213      0.1794
     86  OG1       -3.1000   -4.9560  -13.5890 O.3   213  THR213     -0.2208
     87  CG2       -0.9990   -5.9620  -14.3050 C.3   213  THR213      0.0378
     88  N         -2.2810  -13.9660  -12.0350 N.3   220  LEU220     -0.1245
     89  CA        -1.1480  -13.2400  -11.4670 C.3   220  LEU220      0.1561
     90  C         -1.2180  -13.1430   -9.9500 C.2   220  LEU220      0.2260
     91  O         -0.2610  -12.6910   -9.3190 O.2   220  LEU220     -0.2867
     92  CB        -1.0890  -11.8050  -12.0380 C.3   220  LEU220      0.0270
     93  CG        -0.8740  -11.7330  -13.5480 C.3   220  LEU220      0.0019
     94  CD1       -1.1500  -10.3400  -14.1020 C.3   220  LEU220      0.0001
     95  CD2        0.5350  -12.1530  -13.8480 C.3   220  LEU220      0.0001
     96  N         -3.0080  -10.8940   -8.3860 N.3   222  VAL222     -0.1245
     97  CA        -2.9640   -9.4680   -8.0340 C.3   222  VAL222      0.1561
     98  C         -4.3600   -9.0990   -7.6870 C.2   222  VAL222      0.2260
     99  O         -5.2450   -9.1530   -8.5310 O.2   222  VAL222     -0.2867
    100  CB        -2.4270   -8.5880   -9.1570 C.3   222  VAL222      0.0252
    101  CG1       -2.6550   -7.0990   -8.8460 C.3   222  VAL222      0.0019
    102  CG2       -0.9210   -8.8720   -9.3510 C.3   222  VAL222      0.0019
@<TRIPOS>BOND
     1    57    55   am
     2    56    55    2
     3    55    54    1
     4    54    53    1
     5    53    50    1
     6    45    46    1
     7    46    47    1
     8    36    34   ar
     9    50    49    1
    10    50    51    1
    11    77    75   ar
    12    77    79   ar
    13    75    74   ar
    14    52    51    2
    15    51    58   am
    16    34    33    1
    17    34    35   ar
    18    80    79    1
    19    47    48    2
    20    79    78   ar
    21    74    73    1
    22    74    76   ar
    23    73    70    1
    24    33    30    1
    25    58    59    1
    26    70    69    1
    27    70    71    1
    28    78    76   ar
    29    44    42    1
    30    59    62    1
    31    59    60    1
    32    30    31    1
    33    30    29    1
    34    42    43    1
    35    42    41    1
    36    32    31    2
    37    31    37   am
    38    71    72    2
    39    71    81   am
    40    62    63    1
    41    37    38    1
    42    60    61    2
    43    65    63   ar
    44    65    67   ar
    45    38    41    1
    46    38    39    1
    47    81    82    1
    48    63    64   ar
    49    67    68   ar
    50    19    18    2
    51    39    40    2
    52    82    83    1
    53    82    85    1
    54    64    66   ar
    55    22    23    1
    56    22    25    1
    57    22    21    1
    58    23    24    2
    59    87    85    1
    60    83    84    2
    61    68    66   ar
    62    94    93    1
    63    18    21   am
    64    18    17    1
    65    25    26    1
    66    95    93    1
    67    85    86    1
    68    93    92    1
    69    20    17    1
    70    17    16    1
    71    28    27    1
    72    26    27    1
    73    92    89    1
    74    88    89    1
    75    89    90    1
    76    14    13    1
    77    90    91    2
    78     7     5    1
    79    15    13    1
    80   102   100    1
    81     6     5    1
    82    13    12    1
    83   100   101    1
    84   100    97    1
    85     5     2    1
    86    99    98    2
    87    96    97    1
    88    12     9    1
    89    97    98    1
    90     2     3    1
    91     2     1    1
    92     4     3    2
    93     9    10    1
    94     9     8    1
    95    11    10    2
