@<TRIPOS>MOLECULE
tmp/4lucB00.pdb
 163 157 0 0 0
SMALL
GASTEIGER

@<TRIPOS>ATOM
      1  N         24.0140    9.9890  -14.5140 N.3     7  VAL7       -0.1245
      2  CA        25.2230    9.2740  -14.2020 C.3     7  VAL7        0.1561
      3  C         24.9890    7.8380  -14.5310 C.2     7  VAL7        0.2260
      4  O         24.0460    7.2270  -13.9770 O.2     7  VAL7       -0.2867
      5  CB        25.6370    9.5310  -12.7740 C.3     7  VAL7        0.0252
      6  CG1       26.9450    8.8720  -12.4820 C.3     7  VAL7        0.0019
      7  CG2       25.6870   11.0040  -12.4480 C.3     7  VAL7        0.0019
      8  N         26.2570    4.0690  -13.9700 N.3     9  VAL9       -0.1231
      9  CA        27.1000    3.3750  -13.0060 C.3     9  VAL9        0.1692
     10  C         26.8510    1.8940  -13.1480 C.2     9  VAL9        0.2593
     11  O         25.8810    1.4290  -13.6760 O.2     9  VAL9       -0.2718
     12  CB        26.8620    3.8380  -11.5910 C.3     9  VAL9        0.0266
     13  CG1       26.8940    5.3530  -11.4150 C.3     9  VAL9        0.0020
     14  CG2       25.5530    3.3550  -11.0700 C.3     9  VAL9        0.0020
     15  N         27.8160    1.1280  -12.6240 N.am   10  GLY10      -0.1942
     16  CA        27.7810   -0.3090  -12.7570 C.3    10  GLY10       0.2014
     17  C         29.1840   -0.8750  -12.7050 C.2    10  GLY10       0.2639
     18  O         30.1720   -0.2110  -12.8750 O.2    10  GLY10      -0.2714
     19  N         29.2320   -2.1830  -12.4780 N.am   11  ALA11      -0.1963
     20  CA        30.4860   -2.9010  -12.4020 C.3    11  ALA11       0.1728
     21  C         31.2900   -2.8110  -13.7060 C.2    11  ALA11       0.2616
     22  O         30.7610   -2.4780  -14.7800 O.2    11  ALA11      -0.2715
     23  CB        30.1890   -4.3870  -12.0420 C.3    11  ALA11       0.0334
     24  N         32.5420   -3.0870  -13.5930 N.am   12  CYS12      -0.1954
     25  CA        33.4490   -3.0780  -14.7060 C.3    12  CYS12       0.1843
     26  C         32.9260   -3.9910  -15.7470 C.2    12  CYS12       0.2626
     27  O         32.6130   -5.1490  -15.5040 O.2    12  CYS12      -0.2714
     28  CB        34.7880   -3.7100  -14.2630 C.3    12  CYS12       0.0997
     29  SG        36.0700   -3.7500  -15.4820 S.3    12  CYS12      -0.0797
     30  N         32.8320   -3.4950  -16.9890 N.am   13  GLY13      -0.1954
     31  CA        32.4850   -4.3690  -18.1070 C.3    13  GLY13       0.1869
     32  C         31.0460   -4.6580  -18.3580 C.2    13  GLY13       0.2309
     33  O         30.7200   -5.5060  -19.2070 O.2    13  GLY13      -0.2863
     34  N         28.4780    0.1690  -19.5590 N.3    16  LYS16      -0.1245
     35  CA        28.2010    1.6080  -19.3180 C.3    16  LYS16       0.1561
     36  C         28.5900    2.4440  -20.5250 C.2    16  LYS16       0.2260
     37  O         27.7850    3.2690  -21.0230 O.2    16  LYS16      -0.2867
     38  CB        28.9940    2.0870  -18.1160 C.3    16  LYS16       0.0271
     39  CG        28.6110    1.3950  -16.8070 C.3    16  LYS16       0.0035
     40  CD        29.4530    1.9210  -15.6770 C.3    16  LYS16       0.0206
     41  CE        30.9210    1.6090  -15.7530 C.3    16  LYS16       0.1093
     42  NZ        31.2600    0.1940  -15.6710 N.3    16  LYS16      -0.1314
     43  N         38.7000    1.1160  -20.8090 N.3    34  PRO34      -0.2116
     44  CA        37.9190    1.0570  -19.5540 C.3    34  PRO34       0.1372
     45  C         38.1440    2.1830  -18.5540 C.2    34  PRO34       0.2244
     46  O         37.4250    2.2630  -17.5420 O.2    34  PRO34      -0.2868
     47  CB        38.3520   -0.2620  -18.9420 C.3    34  PRO34       0.0268
     48  CG        39.6040   -0.6020  -19.5690 C.3    34  PRO34       0.0207
     49  CD        39.5060   -0.0970  -20.9690 C.3    34  PRO34       0.0892
     50  N         30.8440    6.6900  -15.9690 N.3    58  THR58      -0.1203
     51  CA        31.8420    6.5920  -14.8730 C.3    58  THR58       0.1994
     52  C         32.8340    5.4910  -15.1190 C.2    58  THR58       0.2618
     53  O         32.5090    4.4510  -15.7260 O.2    58  THR58      -0.2717
     54  CB        31.1450    6.3930  -13.5230 C.3    58  THR58       0.1784
     55  OG1       30.3620    5.1730  -13.5300 O.3    58  THR58      -0.2211
     56  CG2       30.2910    7.5650  -13.2010 C.3    58  THR58       0.0376
     57  N         34.0660    5.6750  -14.5970 N.am   59  ALA59      -0.1965
     58  CA        35.1740    4.7550  -14.8510 C.3    59  ALA59       0.1728
     59  C         36.2810    4.8280  -13.8150 C.2    59  ALA59       0.2617
     60  O         37.4630    4.8740  -14.1570 O.2    59  ALA59      -0.2715
     61  CB        35.7620    4.9790  -16.2360 C.3    59  ALA59       0.0334
     62  N         35.9410    4.7130  -12.5690 N.am   60  GLY60      -0.1940
     63  CA        36.9260    4.7440  -11.4850 C.3    60  GLY60       0.2014
     64  C         37.3350    3.3600  -11.0050 C.2    60  GLY60       0.2639
     65  O         36.9600    2.3400  -11.5520 O.2    60  GLY60      -0.2714
     66  N         38.1700    3.3330   -9.9810 N.am   61  GLN61      -0.1963
     67  CA        38.6300    2.1010   -9.3450 C.3    61  GLN61       0.1733
     68  C         37.7500    1.7670   -8.1490 C.2    61  GLN61       0.2616
     69  O         37.0370    2.6230   -7.6120 O.2    61  GLN61      -0.2715
     70  CB        40.1020    2.2870   -8.8630 C.3    61  GLN61       0.0408
     71  CG        41.1450    2.0900   -9.9210 C.3    61  GLN61       0.0908
     72  CD        41.0370    3.0710  -11.0270 C.2    61  GLN61       0.2608
     73  OE1       41.1500    4.2950  -10.7940 O.2    61  GLN61      -0.2717
     74  NE2       40.7900    2.5740  -12.2460 N.am   61  GLN61      -0.0878
     75  N         37.9050    0.5330   -7.6660 N.am   62  GLU62      -0.1963
     76  CA        37.1950    0.0730   -6.4570 C.3    62  GLU62       0.1733
     77  C         37.9230    0.6220   -5.2480 C.2    62  GLU62       0.2616
     78  O         38.9420    0.0820   -4.8030 O.2    62  GLU62      -0.2715
     79  CB        37.1650   -1.4460   -6.3840 C.3    62  GLU62       0.0429
     80  CG        36.2160   -2.0270   -7.3670 C.3    62  GLU62       0.1163
     81  CD        36.0730   -3.5230   -7.2190 C.2    62  GLU62       0.3649
     82  OE1       34.9270   -3.9450   -6.9590 O.co2  62  GLU62      -0.2457
     83  OE2       37.0170   -4.2940   -7.4240 O.co2  62  GLU62      -0.2457
     84  N         37.4830    1.7730   -4.8140 N.am   63  GLU63      -0.1977
     85  CA        38.0640    2.5140   -3.7170 C.3    63  GLU63       0.1602
     86  C         37.1110    3.6380   -3.3450 C.2    63  GLU63       0.2287
     87  O         36.3450    4.1210   -4.1530 O.2    63  GLU63      -0.2864
     88  CB        39.4320    3.1280   -4.0690 C.3    63  GLU63       0.0415
     89  CG        39.2900    4.1460   -5.2020 C.3    63  GLU63       0.1163
     90  CD        40.6420    4.6740   -5.6740 C.2    63  GLU63       0.3649
     91  OE1       41.6360    4.5520   -5.0080 O.co2  63  GLU63      -0.2457
     92  OE2       40.6790    5.2560   -6.7870 O.co2  63  GLU63      -0.2457
     93  N         34.3370   10.8340   -6.7860 N.3    68  ARG68      -0.1245
     94  CA        33.0960   10.1330   -7.0100 C.3    68  ARG68       0.1563
     95  C         31.9460   10.6740   -6.1640 C.2    68  ARG68       0.2260
     96  O         30.8240   10.8390   -6.6350 O.2    68  ARG68      -0.2867
     97  CB        33.2450    8.6490   -6.7750 C.3    68  ARG68       0.0307
     98  CG        32.0140    7.8680   -7.2060 C.3    68  ARG68       0.0489
     99  CD        31.9750    6.4300   -6.7790 C.3    68  ARG68       0.2205
    100  NE        32.9520    5.5900   -7.4730 N.pl3  68  ARG68      -0.0865
    101  CZ        34.0610    5.0770   -6.9450 C.cat  68  ARG68       0.5346
    102  NH1       34.4250    5.3090   -5.6860 N.pl3  68  ARG68       0.1354
    103  NH2       34.8370    4.3570   -7.7250 N.pl3  68  ARG68       0.1354
    104  N         30.6560   13.6100   -7.9080 N.3    71  TYR71      -0.1227
    105  CA        29.8020   13.2380   -9.0360 C.3    71  TYR71       0.1736
    106  C         28.4050   12.8400   -8.5910 C.2    71  TYR71       0.2595
    107  O         27.3950   13.1140   -9.2460 O.2    71  TYR71      -0.2718
    108  CB        30.3950   12.0350   -9.7770 C.3    71  TYR71       0.0548
    109  CG        31.6500   12.2590  -10.5470 C.ar   71  TYR71      -0.0200
    110  CD1       31.9710   13.4900  -11.0530 C.ar   71  TYR71      -0.0009
    111  CD2       32.4920   11.1940  -10.7950 C.ar   71  TYR71      -0.0009
    112  CE1       33.1090   13.6720  -11.7910 C.ar   71  TYR71       0.0417
    113  CE2       33.6400   11.3540  -11.5140 C.ar   71  TYR71       0.0417
    114  CZ        33.9500   12.6010  -12.0170 C.ar   71  TYR71       0.1957
    115  OH        35.1120   12.7850  -12.7610 O.3    71  TYR71      -0.2866
    116  N         28.3150   12.1780   -7.4280 N.am   72  MET72      -0.1979
    117  CA        27.0510   11.7840   -6.8960 C.3    72  MET72       0.1605
    118  C         26.2510   12.9920   -6.4260 C.2    72  MET72       0.2287
    119  O         25.0500   13.0880   -6.6810 O.2    72  MET72      -0.2864
    120  CB        27.1880   10.7620   -5.7870 C.3    72  MET72       0.0413
    121  CG        27.5800    9.3640   -6.2740 C.3    72  MET72       0.0598
    122  SD        27.5810    8.2000   -4.9340 S.3    72  MET72      -0.1393
    123  CE        29.3360    7.9720   -4.6470 C.3    72  MET72       0.0692
    124  N         20.5110    8.3100  -11.8010 N.3    78  PHE78      -0.1241
    125  CA        21.5070    7.3050  -11.9580 C.3    78  PHE78       0.1605
    126  C         20.9750    6.1070  -12.6680 C.2    78  PHE78       0.2264
    127  O         19.8860    5.6110  -12.2960 O.2    78  PHE78      -0.2867
    128  CB        22.0300    6.8820  -10.5660 C.3    78  PHE78       0.0534
    129  CG        22.6840    8.0160   -9.8200 C.ar   78  PHE78      -0.0203
    130  CD1       21.9150    8.9340   -9.1540 C.ar   78  PHE78      -0.0042
    131  CD2       24.0590    8.1850   -9.8400 C.ar   78  PHE78      -0.0042
    132  CE1       22.4840   10.0830   -8.5970 C.ar   78  PHE78      -0.0003
    133  CE2       24.6220    9.3130   -9.2500 C.ar   78  PHE78      -0.0003
    134  CZ        23.8510   10.2470   -8.6180 C.ar   78  PHE78      -0.0000
    135  N         26.0640   -0.0510   -4.8540 N.3    96  TYR96      -0.1241
    136  CA        26.1360    1.1940   -5.5890 C.3    96  TYR96       0.1605
    137  C         24.9940    2.0670   -5.2030 C.2    96  TYR96       0.2264
    138  O         25.1760    3.2850   -4.9800 O.2    96  TYR96      -0.2867
    139  CB        26.1910    0.9400   -7.1000 C.3    96  TYR96       0.0534
    140  CG        27.3000    0.0070   -7.5160 C.ar   96  TYR96      -0.0201
    141  CD1       28.4780   -0.0890   -6.8170 C.ar   96  TYR96      -0.0009
    142  CD2       27.1420   -0.8210   -8.6320 C.ar   96  TYR96      -0.0009
    143  CE1       29.4770   -0.9620   -7.2010 C.ar   96  TYR96       0.0417
    144  CE2       28.1600   -1.6790   -9.0320 C.ar   96  TYR96       0.0417
    145  CZ        29.2860   -1.7460   -8.3140 C.ar   96  TYR96       0.1957
    146  OH        30.3020   -2.5990   -8.6850 O.3    96  TYR96      -0.2866
    147  N         25.7500    3.6520   -1.8110 N.3    99  GLN99      -0.1231
    148  CA        26.6760    4.7530   -1.8110 C.3    99  GLN99       0.1698
    149  C         26.0290    6.0330   -2.3170 C.2    99  GLN99       0.2592
    150  O         26.3060    7.1100   -1.7810 O.2    99  GLN99      -0.2718
    151  CB        27.9480    4.4130   -2.5730 C.3    99  GLN99       0.0381
    152  CG        28.8190    3.4220   -1.7830 C.3    99  GLN99       0.0905
    153  CD        29.5700    4.0880   -0.6310 C.2    99  GLN99       0.2608
    154  OE1       30.5260    4.8010   -0.8570 O.2    99  GLN99      -0.2717
    155  NE2       29.1640    3.8370    0.5940 N.am   99  GLN99      -0.0878
    156  N         25.0930    5.9330   -3.2500 N.am  100  ILE100     -0.1980
    157  CA        24.3050    7.0890   -3.6630 C.3   100  ILE100      0.1595
    158  C         23.4510    7.5980   -2.5330 C.2   100  ILE100      0.2287
    159  O         23.3870    8.8110   -2.2220 O.2   100  ILE100     -0.2864
    160  CB        23.4590    6.7470   -4.9390 C.3   100  ILE100      0.0276
    161  CG1       24.3430    6.4790   -6.1600 C.3   100  ILE100      0.0022
    162  CG2       22.5380    7.9380   -5.2370 C.3   100  ILE100      0.0022
    163  CD1       23.6250    5.6640   -7.2190 C.3   100  ILE100      0.0001
@<TRIPOS>BOND
     1    37    36    2
     2    49    43    1
     3    49    48    1
     4    43    44    1
     5    36    35    1
     6    48    47    1
     7    34    35    1
     8    44    47    1
     9    44    45    1
    10    35    38    1
    11    33    32    2
    12    45    46    2
    13    32    31    1
    14    38    39    1
    15    31    30    1
    16    30    26   am
    17    39    40    1
    18    61    58    1
    19    50    51    1
    20    41    40    1
    21    41    42    1
    22    26    27    2
    23    26    25    1
    24    53    52    2
    25    29    28    1
    26    52    51    1
    27    52    57   am
    28    51    54    1
    29    58    57    1
    30    58    59    1
    31    22    21    2
    32    25    28    1
    33    25    24    1
    34     3     2    1
    35     3     4    2
    36     1     2    1
    37     2     5    1
    38    60    59    2
    39     8     9    1
    40    59    62   am
    41    21    24   am
    42    21    20    1
    43    11    10    2
    44    55    54    1
    45    54    56    1
    46    10     9    1
    47    10    15   am
    48     9    12    1
    49    18    17    2
    50     5     6    1
    51     5     7    1
    52   115   114    1
    53    16    17    1
    54    16    15    1
    55    17    19   am
    56   126   127    2
    57   126   125    1
    58    62    63    1
    59    19    20    1
    60    20    23    1
    61    74    72   am
    62   114   112   ar
    63   114   113   ar
    64   125   124    1
    65   125   128    1
    66   112   110   ar
    67    12    13    1
    68    12    14    1
    69    65    64    2
    70   113   111   ar
    71    63    64    1
    72   110   109   ar
    73    72    73    2
    74    72    71    1
    75    64    66   am
    76   111   109   ar
    77   128   129    1
    78   109   108    1
    79    66    67    1
    80    71    70    1
    81   131   129   ar
    82   131   133   ar
    83   129   130   ar
    84   108   105    1
    85    67    70    1
    86    67    68    1
    87   133   134   ar
    88   107   106    2
    89   130   132   ar
    90   105   106    1
    91   105   104    1
    92   144   142   ar
    93   144   145   ar
    94   146   145    1
    95   142   140   ar
    96   134   132   ar
    97   106   116   am
    98   145   143   ar
    99    68    75   am
   100    68    69    2
   101   103   101    1
   102    75    76    1
   103   140   139    1
   104   140   141   ar
   105   100   101    2
   106   100    99    1
   107   116   117    1
   108    83    81   ar
   109    80    81    1
   110    80    79    1
   111   163   161    1
   112    81    82   ar
   113    98    99    1
   114    98    97    1
   115   143   141   ar
   116   139   136    1
   117    94    93    1
   118    94    97    1
   119    94    95    1
   120   101   102    1
   121   117   118    1
   122   117   120    1
   123    92    90   ar
   124   119   118    2
   125    96    95    2
   126    76    79    1
   127    76    77    1
   128   121   120    1
   129   121   122    1
   130   161   160    1
   131    90    89    1
   132    90    91   ar
   133   136   137    1
   134   136   135    1
   135    77    84   am
   136    77    78    2
   137   162   160    1
   138   137   138    2
   139    89    88    1
   140   160   157    1
   141   122   123    1
   142    84    85    1
   143    87    86    2
   144    88    85    1
   145    85    86    1
   146   157   156    1
   147   157   158    1
   148   156   149   am
   149   151   148    1
   150   151   152    1
   151   158   159    2
   152   149   148    1
   153   149   150    2
   154   148   147    1
   155   152   153    1
   156   154   153    2
   157   153   155   am
