@<TRIPOS>MOLECULE
tmp/4ludB00.pdb
 142 131 0 0 0
SMALL
GASTEIGER

@<TRIPOS>ATOM
      1  N          2.8510  -11.2180    5.5280 N.3   169  LEU169     -0.1231
      2  CA         3.8850  -11.4660    6.5250 C.3   169  LEU169      0.1693
      3  C          3.5150  -12.6240    7.4430 C.2   169  LEU169      0.2592
      4  O          4.3790  -13.2150    8.0900 O.2   169  LEU169     -0.2718
      5  CB         4.1330  -10.2020    7.3510 C.3   169  LEU169      0.0284
      6  CG         4.7040   -8.9990    6.5980 C.3   169  LEU169      0.0019
      7  CD1        4.7950   -7.7920    7.5150 C.3   169  LEU169      0.0001
      8  CD2        6.0670   -9.3290    6.0130 C.3   169  LEU169      0.0001
      9  N          2.2260  -12.9410    7.4970 N.am  170  GLY170     -0.1957
     10  CA         1.7440  -14.0160    8.3410 C.3   170  GLY170      0.1869
     11  C          0.2690  -14.2900    8.1350 C.2   170  GLY170      0.2309
     12  O         -0.4940  -13.3980    7.7650 O.2   170  GLY170     -0.2863
     13  N         -1.7510  -11.0420    8.0100 N.3   177  VAL177     -0.1245
     14  CA        -0.9590   -9.8550    8.3100 C.3   177  VAL177      0.1561
     15  C         -0.1030   -9.4830    7.1010 C.2   177  VAL177      0.2260
     16  O          0.6510  -10.3070    6.5850 O.2   177  VAL177     -0.2867
     17  CB        -0.0610  -10.0660    9.5470 C.3   177  VAL177      0.0252
     18  CG1        1.0460   -9.0230    9.5920 C.3   177  VAL177      0.0019
     19  CG2       -0.8930  -10.0100   10.8160 C.3   177  VAL177      0.0019
     20  N          1.5310   -1.5560    8.3020 N.3   189  ALA189     -0.1231
     21  CA         1.1790   -2.9630    8.4460 C.3   189  ALA189      0.1694
     22  C         -0.3290   -3.1140    8.6050 C.2   189  ALA189      0.2592
     23  O         -0.9380   -2.4680    9.4560 O.2   189  ALA189     -0.2718
     24  CB         1.9050   -3.5760    9.6300 C.3   189  ALA189      0.0304
     25  N         -0.9270   -3.9710    7.7850 N.am  190  VAL190     -0.1966
     26  CA        -2.3740   -4.1530    7.8010 C.3   190  VAL190      0.1727
     27  C         -2.7710   -5.5560    8.2490 C.2   190  VAL190      0.2616
     28  O         -2.2600   -6.5450    7.7350 O.2   190  VAL190     -0.2715
     29  CB        -2.9820   -3.8800    6.4120 C.3   190  VAL190      0.0290
     30  CG1       -4.4940   -3.9830    6.4640 C.3   190  VAL190      0.0023
     31  CG2       -2.5540   -2.5110    5.9060 C.3   190  VAL190      0.0023
     32  N         -3.6960   -5.6400    9.1990 N.am  191  LYS191     -0.1977
     33  CA        -4.2340   -6.9280    9.6120 C.3   191  LYS191      0.1596
     34  C         -5.6290   -7.1320    9.0370 C.2   191  LYS191      0.2287
     35  O         -6.5650   -6.4020    9.3680 O.2   191  LYS191     -0.2864
     36  CB        -4.2730   -7.0490   11.1370 C.3   191  LYS191      0.0298
     37  CG        -4.9260   -8.3340   11.6250 C.3   191  LYS191      0.0038
     38  CD        -4.7820   -8.5130   13.1270 C.3   191  LYS191      0.0206
     39  CE        -3.4390   -9.1280   13.4800 C.3   191  LYS191      0.1093
     40  NZ        -3.4170   -9.6470   14.8750 N.3   191  LYS191     -0.1314
     41  N          2.2040   -0.5650   20.1050 N.3   217  VAL217     -0.1245
     42  CA         2.1830   -0.3720   18.6590 C.3   217  VAL217      0.1561
     43  C          1.1680    0.7110   18.2880 C.2   217  VAL217      0.2260
     44  O          0.0430    0.7310   18.7920 O.2   217  VAL217     -0.2867
     45  CB         1.8730   -1.6960   17.9080 C.3   217  VAL217      0.0252
     46  CG1        0.4790   -2.2190   18.2420 C.3   217  VAL217      0.0019
     47  CG2        2.0510   -1.5150   16.4080 C.3   217  VAL217      0.0019
     48  N         -6.9830   -3.5570    9.7900 N.3   230  ILE230     -0.1245
     49  CA        -6.4060   -2.7870   10.8870 C.3   230  ILE230      0.1561
     50  C         -5.0340   -2.2460   10.5030 C.2   230  ILE230      0.2260
     51  O         -4.0890   -3.0100   10.3150 O.2   230  ILE230     -0.2867
     52  CB        -6.2760   -3.6350   12.1650 C.3   230  ILE230      0.0252
     53  CG1       -7.6380   -4.1930   12.5800 C.3   230  ILE230      0.0019
     54  CG2       -5.6700   -2.8130   13.2890 C.3   230  ILE230      0.0019
     55  CD1       -7.5530   -5.3400   13.5640 C.3   230  ILE230      0.0001
     56  N         -1.6420   -0.3080   11.2470 N.3   232  THR232     -0.1203
     57  CA        -0.7280    0.1100   12.3050 C.3   232  THR232      0.1994
     58  C          0.6550    0.4110   11.7390 C.2   232  THR232      0.2618
     59  O          0.9160    0.1730   10.5590 O.2   232  THR232     -0.2717
     60  CB        -0.5930   -0.9630   13.4090 C.3   232  THR232      0.1784
     61  OG1        0.0720   -2.1180   12.8810 O.3   232  THR232     -0.2211
     62  CG2       -1.9580   -1.3700   13.9450 C.3   232  THR232      0.0376
     63  N          1.5360    0.9350   12.5860 N.am  233  GLU233     -0.1965
     64  CA         2.9050    1.2340   12.1810 C.3   233  GLU233      0.1733
     65  C          3.6510   -0.0430   11.8160 C.2   233  GLU233      0.2616
     66  O          3.3570   -1.1160   12.3430 O.2   233  GLU233     -0.2715
     67  CB         3.6480    1.9820   13.2900 C.3   233  GLU233      0.0429
     68  CG         3.6290    1.2840   14.6380 C.3   233  GLU233      0.1163
     69  CD         4.5420    1.9470   15.6510 C.2   233  GLU233      0.3649
     70  OE1        5.6210    2.4320   15.2510 O.co2 233  GLU233     -0.2457
     71  OE2        4.1830    1.9810   16.8470 O.co2 233  GLU233     -0.2457
     72  N          4.6160    0.0770   10.9100 N.am  234  PHE234     -0.1960
     73  CA         5.3760   -1.0790   10.4530 C.3   234  PHE234      0.1771
     74  C          6.6190   -1.3220   11.3010 C.2   234  PHE234      0.2619
     75  O          7.4440   -0.4270   11.4850 O.2   234  PHE234     -0.2715
     76  CB         5.7790   -0.9100    8.9850 C.3   234  PHE234      0.0574
     77  CG         6.6570   -2.0150    8.4700 C.ar  234  PHE234     -0.0200
     78  CD1        6.1280   -3.2610    8.1780 C.ar  234  PHE234     -0.0042
     79  CD2        8.0140   -1.8080    8.2840 C.ar  234  PHE234     -0.0042
     80  CE1        6.9360   -4.2800    7.7070 C.ar  234  PHE234     -0.0003
     81  CE2        8.8270   -2.8230    7.8150 C.ar  234  PHE234     -0.0003
     82  CZ         8.2870   -4.0600    7.5250 C.ar  234  PHE234     -0.0000
     83  N          6.7450   -2.5430   11.8110 N.am  235  MET235     -0.1977
     84  CA         7.9230   -2.9460   12.5680 C.3   235  MET235      0.1605
     85  C          8.8100   -3.8450   11.7110 C.2   235  MET235      0.2287
     86  O          8.4060   -4.9430   11.3250 O.2   235  MET235     -0.2864
     87  CB         7.5170   -3.6620   13.8570 C.3   235  MET235      0.0413
     88  CG         6.6140   -2.8500   14.7880 C.3   235  MET235      0.0598
     89  SD         7.4600   -1.6450   15.8400 S.3   235  MET235     -0.1393
     90  CE         7.6190   -0.2290   14.7520 C.3   235  MET235      0.0692
     91  N          9.7690   -7.4130   12.8990 N.3   238  GLY238     -0.1210
     92  CA         8.6140   -8.2540   13.1540 C.3   238  GLY238      0.1956
     93  C          8.3990   -8.6110   14.6100 C.2   238  GLY238      0.2612
     94  O          8.6690   -7.8110   15.5050 O.2   238  GLY238     -0.2717
     95  N          7.9110   -9.8250   14.8430 N.am  239  SER239     -0.1952
     96  CA         7.5990  -10.2850   16.1910 C.3   239  SER239      0.1924
     97  C          8.8580  -10.6140   16.9840 C.2   239  SER239      0.2314
     98  O          9.9010  -10.9270   16.4100 O.2   239  SER239     -0.2863
     99  CB         6.6830  -11.5090   16.1410 C.3   239  SER239      0.2116
    100  OG         7.4350  -12.7080   16.0710 O.3   239  SER239     -0.2180
    101  N          9.9610  -14.3710   16.3450 N.3   242  ASP242     -0.1239
    102  CA        10.6910  -14.5750   15.0980 C.3   242  ASP242      0.1674
    103  C         12.0830  -13.9580   15.1590 C.2   242  ASP242      0.2266
    104  O         13.0380  -14.5080   14.6100 O.2   242  ASP242     -0.2867
    105  CB         9.9110  -13.9920   13.9170 C.3   242  ASP242      0.1410
    106  CG         8.6280  -14.7480   13.6330 C.2   242  ASP242      0.3668
    107  OD1        8.5950  -15.9760   13.8640 O.co2 242  ASP242     -0.2456
    108  OD2        7.6520  -14.1150   13.1790 O.co2 242  ASP242     -0.2456
    109  N          5.0280  -13.7000   20.6560 N.3   284  ALA284     -0.1245
    110  CA         4.3720  -13.6390   19.3580 C.3   284  ALA284      0.1562
    111  C          3.5790  -12.3440   19.2110 C.2   284  ALA284      0.2260
    112  O          3.3920  -11.8430   18.1030 O.2   284  ALA284     -0.2867
    113  CB         3.4640  -14.8420   19.1660 C.3   284  ALA284      0.0290
    114  N          6.1120   -6.8400   19.1630 N.3   287  LEU287     -0.1245
    115  CA         6.7690   -6.4500   17.9220 C.3   287  LEU287      0.1561
    116  C          8.1090   -5.7740   18.1770 C.2   287  LEU287      0.2260
    117  O          8.3470   -5.2250   19.2550 O.2   287  LEU287     -0.2867
    118  CB         5.8670   -5.5170   17.1170 C.3   287  LEU287      0.0270
    119  CG         4.5000   -6.0700   16.7210 C.3   287  LEU287      0.0019
    120  CD1        3.6580   -4.9760   16.0920 C.3   287  LEU287      0.0001
    121  CD2        4.6480   -7.2530   15.7760 C.3   287  LEU287      0.0001
    122  N          1.7640   -5.4740   20.9700 N.3   297  ALA297     -0.1231
    123  CA         0.8420   -5.6290   19.8490 C.3   297  ALA297      0.1694
    124  C         -0.4250   -6.3830   20.2410 C.2   297  ALA297      0.2592
    125  O         -0.4270   -7.1590   21.1990 O.2   297  ALA297     -0.2718
    126  CB         1.5280   -6.3360   18.6980 C.3   297  ALA297      0.0304
    127  N         -1.4910   -6.1410   19.4810 N.am  298  ASP298     -0.1974
    128  CA        -2.7480   -6.8790   19.5970 C.3   298  ASP298      0.1709
    129  C         -3.3190   -6.8760   21.0080 C.2   298  ASP298      0.2293
    130  O         -3.7460   -7.9100   21.5220 O.2   298  ASP298     -0.2864
    131  CB        -2.5650   -8.3230   19.1230 C.3   298  ASP298      0.1436
    132  CG        -2.3250   -8.4190   17.6310 C.2   298  ASP298      0.3671
    133  OD1       -2.6940   -7.4690   16.9110 O.co2 298  ASP298     -0.2456
    134  OD2       -1.7740   -9.4430   17.1790 O.co2 298  ASP298     -0.2456
    135  N         -7.6300   -7.0940   21.3820 N.3   301  LEU301     -0.1245
    136  CA        -8.1290   -8.0000   20.3450 C.3   301  LEU301      0.1561
    137  C         -8.7550   -9.2940   20.8700 C.2   301  LEU301      0.2260
    138  O         -9.8450   -9.6690   20.4400 O.2   301  LEU301     -0.2867
    139  CB        -6.9850   -8.3510   19.3760 C.3   301  LEU301      0.0270
    140  CG        -6.9920   -7.6570   18.0110 C.3   301  LEU301      0.0019
    141  CD1       -6.9030   -6.1480   18.1740 C.3   301  LEU301      0.0001
    142  CD2       -5.8460   -8.1760   17.1510 C.3   301  LEU301      0.0001
@<TRIPOS>BOND
     1     1     2    1
     2    31    29    1
     3     8     6    1
     4    29    30    1
     5    29    26    1
     6     2     5    1
     7     2     3    1
     8    16    15    2
     9     6     5    1
    10     6     7    1
    11    15    14    1
    12     3     9   am
    13     3     4    2
    14     9    10    1
    15    82    80   ar
    16    82    81   ar
    17    80    78   ar
    18    28    27    2
    19    12    11    2
    20    25    26    1
    21    25    22   am
    22    26    27    1
    23    81    79   ar
    24    13    14    1
    25    11    10    1
    26    78    77   ar
    27    27    32   am
    28    79    77   ar
    29    20    21    1
    30    14    17    1
    31    21    22    1
    32    21    24    1
    33    77    76    1
    34    22    23    2
    35    76    73    1
    36    34    35    2
    37    34    33    1
    38    32    33    1
    39    17    18    1
    40    17    19    1
    41    33    36    1
    42    48    49    1
    43    51    50    2
    44    73    72    1
    45    73    74    1
    46    50    49    1
    47    59    58    2
    48    49    52    1
    49    72    65   am
    50    36    37    1
    51    56    57    1
    52    74    75    2
    53    74    83   am
    54    86    85    2
    55    37    38    1
    56    85    84    1
    57    58    57    1
    58    58    63   am
    59    83    84    1
    60    65    64    1
    61    65    66    2
    62    52    53    1
    63    52    54    1
    64    64    63    1
    65    64    67    1
    66    57    60    1
    67    84    87    1
    68    53    55    1
    69    61    60    1
    70    91    92    1
    71    38    39    1
    72    92    93    1
    73   108   106   ar
    74    67    68    1
    75    60    62    1
    76    39    40    1
    77   106   107   ar
    78   106   105    1
    79    87    88    1
    80   105   102    1
    81    93    95   am
    82    93    94    2
    83   104   103    2
    84    68    69    1
    85    90    89    1
    86    88    89    1
    87    95    96    1
    88   102   103    1
    89   102   101    1
    90    70    69   ar
    91    69    71   ar
    92   121   119    1
    93   100    99    1
    94   120   119    1
    95    99    96    1
    96    96    97    1
    97    47    45    1
    98    98    97    2
    99   119   118    1
   100   133   132   ar
   101   118   115    1
   102   142   140    1
   103   134   132   ar
   104   132   131    1
   105    45    46    1
   106    45    42    1
   107   115   116    1
   108   115   114    1
   109   140   141    1
   110   140   139    1
   111   112   111    2
   112   116   117    2
   113    43    42    1
   114    43    44    2
   115    42    41    1
   116   126   123    1
   117   131   128    1
   118   113   110    1
   119   111   110    1
   120   110   109    1
   121   139   136    1
   122   127   128    1
   123   127   124   am
   124   128   129    1
   125   123   124    1
   126   123   122    1
   127   124   125    2
   128   136   137    1
   129   136   135    1
   130   138   137    2
   131   129   130    2
