@<TRIPOS>MOLECULE
tmp/4ludA00.pdb
 142 132 0 0 0
SMALL
GASTEIGER

@<TRIPOS>ATOM
      1  N         14.2070    6.4760   83.3970 N.3   184  LEU184     -0.1231
      2  CA        14.8520    6.7510   82.1190 C.3   184  LEU184      0.1693
      3  C         14.1640    7.8880   81.3690 C.2   184  LEU184      0.2592
      4  O         14.7590    8.5060   80.4870 O.2   184  LEU184     -0.2718
      5  CB        14.8690    5.4890   81.2540 C.3   184  LEU184      0.0284
      6  CG        15.7020    4.3160   81.7750 C.3   184  LEU184      0.0019
      7  CD1       15.5420    3.1030   80.8730 C.3   184  LEU184      0.0001
      8  CD2       17.1660    4.7090   81.8910 C.3   184  LEU184      0.0001
      9  N         12.9120    8.1580   81.7230 N.am  185  GLY185     -0.1957
     10  CA        12.1480    9.2070   81.0710 C.3   185  GLY185      0.1869
     11  C         10.7930    9.4380   81.7110 C.2   185  GLY185      0.2309
     12  O         10.2060    8.5270   82.2940 O.2   185  GLY185     -0.2863
     13  N          8.9610    6.2930   82.4070 N.3   192  VAL192     -0.1245
     14  CA         9.6540    5.0920   81.9440 C.3   192  VAL192      0.1561
     15  C         10.8730    4.7620   82.8060 C.2   192  VAL192      0.2260
     16  O         11.7460    5.6030   83.0180 O.2   192  VAL192     -0.2867
     17  CB        10.0970    5.2390   80.4730 C.3   192  VAL192      0.0252
     18  CG1       11.1630    4.2120   80.1240 C.3   192  VAL192      0.0019
     19  CG2        8.9010    5.0960   79.5480 C.3   192  VAL192      0.0019
     20  N         12.2980   -3.2090   81.1550 N.3   204  ALA204     -0.1231
     21  CA        11.8870   -1.8120   81.1290 C.3   204  ALA204      0.1694
     22  C         10.4000   -1.6990   81.4350 C.2   204  ALA204      0.2592
     23  O          9.5770   -2.3740   80.8170 O.2   204  ALA204     -0.2718
     24  CB        12.2040   -1.1880   79.7830 C.3   204  ALA204      0.0304
     25  N         10.0600   -0.8450   82.3940 N.am  205  VAL205     -0.1966
     26  CA         8.6760   -0.6950   82.8150 C.3   205  VAL205      0.1727
     27  C          8.1330    0.6910   82.4890 C.2   205  VAL205      0.2616
     28  O          8.7510    1.7010   82.8160 O.2   205  VAL205     -0.2715
     29  CB         8.5260   -0.9490   84.3280 C.3   205  VAL205      0.0290
     30  CG1        7.0670   -0.8720   84.7410 C.3   205  VAL205      0.0023
     31  CG2        9.1230   -2.2980   84.7010 C.3   205  VAL205      0.0023
     32  N          6.9690    0.7340   81.8510 N.am  206  LYS206     -0.1977
     33  CA         6.2920    1.9990   81.6080 C.3   206  LYS206      0.1596
     34  C          5.1160    2.1450   82.5620 C.2   206  LYS206      0.2287
     35  O          4.1480    1.3860   82.4950 O.2   206  LYS206     -0.2864
     36  CB         5.8130    2.1010   80.1580 C.3   206  LYS206      0.0298
     37  CG         5.0080    3.3590   79.8690 C.3   206  LYS206      0.0038
     38  CD         4.7120    3.5120   78.3870 C.3   206  LYS206      0.0206
     39  CE         5.8780    4.1540   77.6550 C.3   206  LYS206      0.1093
     40  NZ         5.4870    4.6440   76.3040 N.3   206  LYS206     -0.1314
     41  N          9.3450   -4.1540   69.7280 N.3   231  VAL231     -0.1245
     42  CA         9.7620   -4.3740   71.1090 C.3   231  VAL231      0.1561
     43  C          8.9440   -5.4980   71.7450 C.2   231  VAL231      0.2260
     44  O          7.7210   -5.5580   71.6050 O.2   231  VAL231     -0.2867
     45  CB         9.6530   -3.0790   71.9590 C.3   231  VAL231      0.0252
     46  CG1        8.2070   -2.6200   72.0940 C.3   231  VAL231      0.0019
     47  CG2       10.2910   -3.2830   73.3260 C.3   231  VAL231      0.0019
     48  N          3.6830   -1.4770   82.3110 N.3   244  ILE244     -0.1245
     49  CA         3.9290   -2.2250   81.0840 C.3   244  ILE244      0.1561
     50  C          5.3710   -2.7200   81.0360 C.2   244  ILE244      0.2260
     51  O          6.3040   -1.9260   80.9490 O.2   244  ILE244     -0.2867
     52  CB         3.6410   -1.3720   79.8350 C.3   244  ILE244      0.0252
     53  CG1        2.1920   -0.8810   79.8470 C.3   244  ILE244      0.0019
     54  CG2        3.9180   -2.1680   78.5740 C.3   244  ILE244      0.0019
     55  CD1        1.9310    0.2690   78.8980 C.3   244  ILE244      0.0001
     56  N          8.4470   -4.5650   79.2940 N.3   246  THR246     -0.1203
     57  CA         9.0170   -4.9600   78.0090 C.3   246  THR246      0.1994
     58  C         10.5120   -5.2270   78.1340 C.2   246  THR246      0.2618
     59  O         11.1090   -4.9800   79.1830 O.2   246  THR246     -0.2717
     60  CB         8.7960   -3.8840   76.9200 C.3   246  THR246      0.1784
     61  OG1        9.5530   -2.7100   77.2400 O.3   246  THR246     -0.2211
     62  CG2        7.3260   -3.5160   76.8070 C.3   246  THR246      0.0376
     63  N         11.1120   -5.7290   77.0590 N.am  247  GLU247     -0.1965
     64  CA        12.5460   -5.9890   77.0360 C.3   247  GLU247      0.1733
     65  C         13.3270   -4.6860   77.1660 C.2   247  GLU247      0.2616
     66  O         12.8610   -3.6270   76.7430 O.2   247  GLU247     -0.2715
     67  CB        12.9440   -6.7190   75.7510 C.3   247  GLU247      0.0429
     68  CG        12.4990   -6.0230   74.4760 C.3   247  GLU247      0.1163
     69  CD        13.0810   -6.6590   73.2260 C.2   247  GLU247      0.3649
     70  OE1       14.2450   -7.1120   73.2740 O.co2 247  GLU247     -0.2457
     71  OE2       12.3770   -6.7030   72.1950 O.co2 247  GLU247     -0.2457
     72  N         14.5140   -4.7670   77.7560 N.am  248  PHE248     -0.1960
     73  CA        15.3380   -3.5830   77.9630 C.3   248  PHE248      0.1771
     74  C         16.2870   -3.3370   76.7950 C.2   248  PHE248      0.2619
     75  O         17.0520   -4.2180   76.4050 O.2   248  PHE248     -0.2715
     76  CB        16.1330   -3.7060   79.2650 C.3   248  PHE248      0.0574
     77  CG        17.0810   -2.5650   79.5040 C.ar  248  PHE248     -0.0200
     78  CD1       16.6080   -1.3270   79.9080 C.ar  248  PHE248     -0.0042
     79  CD2       18.4450   -2.7300   79.3280 C.ar  248  PHE248     -0.0042
     80  CE1       17.4770   -0.2740   80.1290 C.ar  248  PHE248     -0.0003
     81  CE2       19.3190   -1.6810   79.5480 C.ar  248  PHE248     -0.0003
     82  CZ        18.8340   -0.4520   79.9490 C.ar  248  PHE248     -0.0000
     83  N         16.2320   -2.1270   76.2460 N.am  249  MET249     -0.1977
     84  CA        17.1410   -1.7170   75.1830 C.3   249  MET249      0.1605
     85  C         18.2060   -0.7830   75.7510 C.2   249  MET249      0.2287
     86  O         17.8980    0.3100   76.2280 O.2   249  MET249     -0.2864
     87  CB        16.3760   -1.0380   74.0450 C.3   249  MET249      0.0413
     88  CG        15.2740   -1.8910   73.4090 C.3   249  MET249      0.0598
     89  SD        15.8360   -3.0960   72.1810 S.3   249  MET249     -0.1393
     90  CE        16.3290   -4.4840   73.2030 C.3   249  MET249      0.0692
     91  N         18.7360    2.8800   74.4060 N.3   252  GLY252     -0.1210
     92  CA        17.5550    3.7200   74.4900 C.3   252  GLY252      0.1956
     93  C         16.9410    4.0680   73.1480 C.2   252  GLY252      0.2612
     94  O         16.9510    3.2610   72.2200 O.2   252  GLY252     -0.2717
     95  N         16.4080    5.2820   73.0490 N.am  253  SER253     -0.1952
     96  CA        15.7300    5.7270   71.8360 C.3   253  SER253      0.1924
     97  C         16.7130    6.0470   70.7150 C.2   253  SER253      0.2314
     98  O         17.8770    6.3600   70.9640 O.2   253  SER253     -0.2863
     99  CB        14.8620    6.9520   72.1300 C.3   253  SER253      0.2116
    100  OG        15.5990    8.1530   71.9760 O.3   253  SER253     -0.2180
    101  N         17.9450    9.8140   70.9690 N.3   256  ASP256     -0.1239
    102  CA        18.9990   10.0330   71.9520 C.3   256  ASP256      0.1674
    103  C         20.3180    9.4180   71.5030 C.2   256  ASP256      0.2266
    104  O         21.3850    9.9810   71.7450 O.2   256  ASP256     -0.2867
    105  CB        18.5930    9.4590   73.3130 C.3   256  ASP256      0.1410
    106  CG        17.4400   10.2140   73.9450 C.2   256  ASP256      0.3668
    107  OD1       17.3340   11.4380   73.7210 O.co2 256  ASP256     -0.2456
    108  OD2       16.6400    9.5830   74.6680 O.co2 256  ASP256     -0.2456
    109  N         12.1300    9.1270   68.2700 N.3   298  ALA298     -0.1231
    110  CA        11.9080    9.0640   69.7080 C.3   298  ALA298      0.1694
    111  C         11.1720    7.7900   70.1090 C.2   298  ALA298      0.2592
    112  O         11.3340    7.2950   71.2240 O.2   298  ALA298     -0.2718
    113  CB        11.1350   10.2880   70.1750 C.3   298  ALA298      0.0304
    114  N         10.3630    7.2600   69.1970 N.am  299  ASN299     -0.1974
    115  CA         9.5880    6.0570   69.4790 C.3   299  ASN299      0.1688
    116  C         10.2280    4.8090   68.8840 C.2   299  ASN299      0.2292
    117  O          9.5920    3.7590   68.7820 O.2   299  ASN299     -0.2864
    118  CB         8.1580    6.2100   68.9560 C.3   299  ASN299      0.1181
    119  CG         7.3570    7.2310   69.7390 C.2   299  ASN299      0.2629
    120  OD1        7.5350    7.3840   70.9480 O.2   299  ASN299     -0.2716
    121  ND2        6.4650    7.9360   69.0530 N.am  299  ASN299     -0.0877
    122  N         13.4990    2.2600   69.4830 N.3   301  LEU301     -0.1245
    123  CA        14.5010    1.8810   70.4700 C.3   301  LEU301      0.1561
    124  C         15.7000    1.2090   69.8170 C.2   301  LEU301      0.2260
    125  O         15.5990    0.6680   68.7160 O.2   301  LEU301     -0.2867
    126  CB        13.8910    0.9470   71.5130 C.3   301  LEU301      0.0270
    127  CG        12.6970    1.4770   72.3040 C.3   301  LEU301      0.0019
    128  CD1       12.1230    0.3640   73.1550 C.3   301  LEU301      0.0001
    129  CD2       13.0980    2.6660   73.1620 C.3   301  LEU301      0.0001
    130  N          8.7060    0.6640   69.0750 N.3   311  ALA311     -0.1231
    131  CA         8.1220    0.5310   70.4050 C.3   311  ALA311      0.1694
    132  C          6.7750    1.2260   70.5980 C.2   311  ALA311      0.2592
    133  O          6.4830    2.2420   69.9670 O.2   311  ALA311     -0.2718
    134  CB         9.1040    1.0450   71.4420 C.3   311  ALA311      0.0304
    135  N          5.9730    0.6510   71.4910 N.am  312  ASP312     -0.1974
    136  CA         4.7480    1.2620   72.0110 C.3   312  ASP312      0.1709
    137  C          3.7740    1.8180   70.9710 C.2   312  ASP312      0.2293
    138  O          3.2350    2.9070   71.1600 O.2   312  ASP312     -0.2864
    139  CB         5.1180    2.3820   72.9870 C.3   312  ASP312      0.1436
    140  CG         5.8390    2.0020   74.2450 C.2   312  ASP312      0.3671
    141  OD1        5.4110    1.0410   74.9180 O.co2 312  ASP312     -0.2456
    142  OD2        6.8420    2.6760   74.5950 O.co2 312  ASP312     -0.2456
@<TRIPOS>BOND
     1   109   110    1
     2   125   124    2
     3   117   116    2
     4   116   115    1
     5   118   115    1
     6   118   119    1
     7   121   119   am
     8   130   131    1
     9   114   115    1
    10   114   111   am
    11   122   123    1
    12   110   111    1
    13   110   113    1
    14    41    42    1
    15   119   120    2
    16   124   123    1
    17   133   132    2
    18   111   112    2
    19   131   132    1
    20   131   134    1
    21   123   126    1
    22   132   135   am
    23    97    98    2
    24    97    96    1
    25   101   102    1
    26   137   138    2
    27   137   136    1
    28    42    43    1
    29    42    45    1
    30   135   136    1
    31   103   104    2
    32   103   102    1
    33   126   127    1
    34    44    43    2
    35    96    99    1
    36    96    95    1
    37   102   105    1
    38    45    46    1
    39    45    47    1
    40   100    99    1
    41   136   139    1
    42    89    90    1
    43    89    88    1
    44    71    69   ar
    45    94    93    2
    46   127   128    1
    47   127   129    1
    48   139   140    1
    49    95    93   am
    50    93    92    1
    51    69    70   ar
    52    69    68    1
    53   105   106    1
    54    88    87    1
    55   107   106   ar
    56   106   108   ar
    57    87    84    1
    58   140   142   ar
    59   140   141   ar
    60    91    92    1
    61    68    67    1
    62    84    85    1
    63    84    83    1
    64    67    64    1
    65    85    86    2
    66    83    74   am
    67    40    39    1
    68    75    74    2
    69    66    65    2
    70    74    73    1
    71    62    60    1
    72    60    61    1
    73    60    57    1
    74    64    63    1
    75    64    65    1
    76    63    58   am
    77    65    72   am
    78    39    38    1
    79    72    73    1
    80    73    76    1
    81    57    58    1
    82    57    56    1
    83    58    59    2
    84    38    37    1
    85    54    52    1
    86    55    53    1
    87    76    77    1
    88    79    77   ar
    89    79    81   ar
    90    77    78   ar
    91    81    82   ar
    92    19    17    1
    93    24    21    1
    94    52    53    1
    95    52    49    1
    96    37    36    1
    97    78    80   ar
    98    82    80   ar
    99    18    17    1
   100    36    33    1
   101    17    14    1
   102     4     3    2
   103    23    22    2
   104     7     6    1
   105    51    50    2
   106    50    49    1
   107    10    11    1
   108    10     9    1
   109    49    48    1
   110    21    20    1
   111    21    22    1
   112     5     6    1
   113     5     2    1
   114     3     9   am
   115     3     2    1
   116    22    25   am
   117    33    32    1
   118    33    34    1
   119    11    12    2
   120     6     8    1
   121    32    27   am
   122    14    13    1
   123    14    15    1
   124     2     1    1
   125    25    26    1
   126    27    26    1
   127    27    28    2
   128    35    34    2
   129    15    16    2
   130    26    29    1
   131    29    31    1
   132    29    30    1
