@<TRIPOS>MOLECULE
tmp/4lueA00.pdb
 162 149 0 0 0
SMALL
GASTEIGER

@<TRIPOS>ATOM
      1  N         45.8870   -2.9610   -9.0240 N.3   185  LEU185     -0.1231
      2  CA        46.1790   -3.8310  -10.1570 C.3   185  LEU185      0.1693
      3  C         47.4790   -3.4340  -10.8450 C.2   185  LEU185      0.2592
      4  O         48.2650   -4.2920  -11.2460 O.2   185  LEU185     -0.2718
      5  CB        45.0220   -3.8050  -11.1600 C.3   185  LEU185      0.0284
      6  CG        43.6690   -4.3100  -10.6500 C.3   185  LEU185      0.0019
      7  CD1       42.5830   -4.1010  -11.6940 C.3   185  LEU185      0.0001
      8  CD2       43.7520   -5.7740  -10.2470 C.3   185  LEU185      0.0001
      9  N         47.7020   -2.1300  -10.9760 N.am  186  GLY186     -0.1957
     10  CA        48.9040   -1.6260  -11.6140 C.3   186  GLY186      0.1869
     11  C         49.2030   -0.1790  -11.2740 C.2   186  GLY186      0.2309
     12  O         48.3190    0.5700  -10.8610 O.2   186  GLY186     -0.2863
     13  N         45.7030    1.8010  -11.1770 N.3   193  VAL193     -0.1245
     14  CA        44.4580    1.1130  -11.4950 C.3   193  VAL193      0.1561
     15  C         44.0980    0.1330  -10.3840 C.2   193  VAL193      0.2260
     16  O         44.8970   -0.7280  -10.0180 O.2   193  VAL193     -0.2867
     17  CB        44.5440    0.3610  -12.8370 C.3   193  VAL193      0.0252
     18  CG1       43.3290   -0.5300  -13.0280 C.3   193  VAL193      0.0019
     19  CG2       44.6730    1.3450  -13.9880 C.3   193  VAL193      0.0019
     20  N         36.2870   -1.4060  -11.6350 N.3   205  ALA205     -0.1245
     21  CA        37.7030   -1.0710  -11.7330 C.3   205  ALA205      0.1562
     22  C         37.8480    0.4340  -11.8800 C.2   205  ALA205      0.2260
     23  O         37.1530    1.0500  -12.6760 O.2   205  ALA205     -0.2867
     24  CB        38.3470   -1.7890  -12.9020 C.3   205  ALA205      0.0290
     25  N         40.4060    3.8860  -12.3680 N.3   207  LYS207     -0.1245
     26  CA        41.6870    4.4400  -12.7670 C.3   207  LYS207      0.1561
     27  C         41.9130    5.7660  -12.0540 C.2   207  LYS207      0.2260
     28  O         41.2320    6.7560  -12.3260 O.2   207  LYS207     -0.2867
     29  CB        41.7330    4.6350  -14.2830 C.3   207  LYS207      0.0271
     30  CG        43.0550    5.1480  -14.8300 C.3   207  LYS207      0.0035
     31  CD        43.0000    5.2390  -16.3490 C.3   207  LYS207      0.0206
     32  CE        44.3200    4.8620  -16.9960 C.3   207  LYS207      0.1093
     33  NZ        44.5400    3.3890  -16.9940 N.3   207  LYS207     -0.1314
     34  N         33.4760   10.8100  -23.8880 N.3   220  MET220     -0.1245
     35  CA        33.8280    9.3920  -23.8430 C.3   220  MET220      0.1570
     36  C         32.6550    8.4950  -23.4670 C.2   220  MET220      0.2261
     37  O         32.5070    7.4000  -24.0090 O.2   220  MET220     -0.2867
     38  CB        34.9720    9.1530  -22.8540 C.3   220  MET220      0.0387
     39  CG        36.2960    9.7890  -23.2350 C.3   220  MET220      0.0595
     40  SD        37.5430    9.5730  -21.9500 S.3   220  MET220     -0.1393
     41  CE        38.9540   10.3730  -22.7050 C.3   220  MET220      0.0692
     42  N         35.4920   -0.6170  -23.4960 N.3   229  VAL229     -0.1245
     43  CA        35.2470   -0.7860  -22.0700 C.3   229  VAL229      0.1561
     44  C         34.2150    0.2430  -21.6110 C.2   229  VAL229      0.2260
     45  O         34.3420    1.4360  -21.8900 O.2   229  VAL229     -0.2867
     46  CB        36.5530   -0.6580  -21.2420 C.3   229  VAL229      0.0252
     47  CG1       37.2570    0.6590  -21.5220 C.3   229  VAL229      0.0019
     48  CG2       36.2670   -0.8130  -19.7600 C.3   229  VAL229      0.0019
     49  N         32.2290    2.8620  -19.5460 N.3   231  LEU231     -0.1245
     50  CA        32.6690    3.8840  -18.6070 C.3   231  LEU231      0.1561
     51  C         31.4900    4.3150  -17.7400 C.2   231  LEU231      0.2260
     52  O         30.6170    5.0600  -18.1850 O.2   231  LEU231     -0.2867
     53  CB        33.2640    5.0770  -19.3610 C.3   231  LEU231      0.0270
     54  CG        34.3690    5.9110  -18.7100 C.3   231  LEU231      0.0019
     55  CD1       34.9240    6.9090  -19.7160 C.3   231  LEU231      0.0001
     56  CD2       33.8790    6.6320  -17.4640 C.3   231  LEU231      0.0001
     57  N         38.4060    7.4170  -12.4420 N.3   242  ILE242     -0.1245
     58  CA        37.5850    6.9740  -13.5650 C.3   242  ILE242      0.1561
     59  C         37.0500    5.5700  -13.3120 C.2   242  ILE242      0.2260
     60  O         37.8030    4.6020  -13.3320 O.2   242  ILE242     -0.2867
     61  CB        38.3780    6.9770  -14.8820 C.3   242  ILE242      0.0252
     62  CG1       38.9120    8.3770  -15.1870 C.3   242  ILE242      0.0019
     63  CG2       37.5140    6.4720  -16.0250 C.3   242  ILE242      0.0019
     64  CD1       39.9950    8.3950  -16.2400 C.3   242  ILE242      0.0001
     65  N         35.1720    2.3260  -14.2770 N.3   244  THR244     -0.1203
     66  CA        34.7550    1.5330  -15.4250 C.3   244  THR244      0.1994
     67  C         34.4660    0.0890  -15.0220 C.2   244  THR244      0.2618
     68  O         34.7040   -0.3150  -13.8760 O.2   244  THR244     -0.2717
     69  CB        35.8300    1.5240  -16.5310 C.3   244  THR244      0.1784
     70  OG1       36.8830    0.6190  -16.1740 O.3   244  THR244     -0.2211
     71  CG2       36.4070    2.9190  -16.7420 C.3   244  THR244      0.0376
     72  N         33.9780   -0.6900  -15.9830 N.am  245  GLU245     -0.1965
     73  CA        33.6740   -2.0960  -15.7560 C.3   245  GLU245      0.1733
     74  C         34.9590   -2.8940  -15.5740 C.2   245  GLU245      0.2616
     75  O         36.0060   -2.5340  -16.1110 O.2   245  GLU245     -0.2715
     76  CB        32.8500   -2.6660  -16.9130 C.3   245  GLU245      0.0429
     77  CG        33.5470   -2.6180  -18.2610 C.3   245  GLU245      0.1163
     78  CD        32.7420   -3.2840  -19.3620 C.2   245  GLU245      0.3649
     79  OE1       32.1240   -4.3370  -19.0960 O.co2 245  GLU245     -0.2457
     80  OE2       32.7370   -2.7600  -20.4960 O.co2 245  GLU245     -0.2457
     81  N         34.8740   -3.9760  -14.8080 N.am  246  PHE246     -0.1960
     82  CA        36.0510   -4.7700  -14.4780 C.3   246  PHE246      0.1771
     83  C         36.2760   -5.9280  -15.4450 C.2   246  PHE246      0.2619
     84  O         35.4920   -6.8740  -15.4890 O.2   246  PHE246     -0.2715
     85  CB        35.9480   -5.3070  -13.0480 C.3   246  PHE246      0.0574
     86  CG        37.1000   -6.1820  -12.6480 C.ar  246  PHE246     -0.0200
     87  CD1       38.3190   -5.6260  -12.2970 C.ar  246  PHE246     -0.0042
     88  CD2       36.9660   -7.5600  -12.6250 C.ar  246  PHE246     -0.0042
     89  CE1       39.3830   -6.4280  -11.9320 C.ar  246  PHE246     -0.0003
     90  CE2       38.0260   -8.3670  -12.2610 C.ar  246  PHE246     -0.0003
     91  CZ        39.2350   -7.8010  -11.9130 C.ar  246  PHE246     -0.0000
     92  N         37.3570   -5.8460  -16.2120 N.am  247  MET247     -0.1977
     93  CA        37.7300   -6.9180  -17.1240 C.3   247  MET247      0.1605
     94  C         38.5680   -7.9640  -16.3990 C.2   247  MET247      0.2287
     95  O         39.7030   -7.7030  -16.0010 O.2   247  MET247     -0.2864
     96  CB        38.4830   -6.3600  -18.3320 C.3   247  MET247      0.0413
     97  CG        37.6730   -5.3900  -19.1910 C.3   247  MET247      0.0598
     98  SD        36.3120   -6.1710  -20.0920 S.3   247  MET247     -0.1393
     99  CE        34.9320   -5.9410  -18.9730 C.3   247  MET247      0.0692
    100  N         42.2610   -9.0660  -17.5420 N.3   250  GLY250     -0.1210
    101  CA        43.2940   -8.0500  -17.6440 C.3   250  GLY250      0.1956
    102  C         43.5820   -7.5820  -19.0570 C.2   250  GLY250      0.2612
    103  O         42.7230   -7.6580  -19.9350 O.2   250  GLY250     -0.2717
    104  N         44.8000   -7.0910  -19.2740 N.am  251  SER251     -0.1952
    105  CA        45.1930   -6.5380  -20.5670 C.3   251  SER251      0.1924
    106  C         45.4520   -7.6250  -21.6040 C.2   251  SER251      0.2314
    107  O         45.7840   -8.7600  -21.2600 O.2   251  SER251     -0.2863
    108  CB        46.4380   -5.6620  -20.4170 C.3   251  SER251      0.2116
    109  OG        47.6180   -6.4470  -20.4210 O.3   251  SER251     -0.2180
    110  N         49.3220   -8.9700  -21.5790 N.3   254  ASP254     -0.1239
    111  CA        49.5910   -9.9210  -20.5050 C.3   254  ASP254      0.1674
    112  C         48.8820  -11.2480  -20.7370 C.2   254  ASP254      0.2266
    113  O         49.3920  -12.3070  -20.3660 O.2   254  ASP254     -0.2867
    114  CB        49.1730   -9.3350  -19.1560 C.3   254  ASP254      0.1410
    115  CG        50.0860   -8.2210  -18.7010 C.2   254  ASP254      0.3668
    116  OD1       50.8620   -7.7030  -19.5310 O.co2 254  ASP254     -0.2456
    117  OD2       50.0300   -7.8630  -17.5090 O.co2 254  ASP254     -0.2456
    118  N         48.5140   -3.2120  -24.7700 N.3   296  ALA296     -0.1245
    119  CA        48.4960   -2.7880  -23.3790 C.3   296  ALA296      0.1562
    120  C         47.2170   -2.0230  -23.0570 C.2   296  ALA296      0.2260
    121  O         46.7600   -2.0170  -21.9150 O.2   296  ALA296     -0.2867
    122  CB        49.7150   -1.9370  -23.0720 C.3   296  ALA296      0.0290
    123  N         41.7930   -4.5830  -23.2830 N.3   299  LEU299     -0.1245
    124  CA        41.4640   -5.4150  -22.1330 C.3   299  LEU299      0.1561
    125  C         40.6990   -6.6540  -22.5700 C.2   299  LEU299      0.2260
    126  O         40.0800   -6.6680  -23.6310 O.2   299  LEU299     -0.2867
    127  CB        40.6470   -4.6250  -21.1100 C.3   299  LEU299      0.0270
    128  CG        41.2660   -3.3210  -20.6090 C.3   299  LEU299      0.0019
    129  CD1       40.2400   -2.5090  -19.8370 C.3   299  LEU299      0.0001
    130  CD2       42.4910   -3.5990  -19.7520 C.3   299  LEU299      0.0001
    131  N         40.4610    0.2330  -24.4310 N.3   309  ALA309     -0.1231
    132  CA        40.5160    1.0570  -23.2300 C.3   309  ALA309      0.1694
    133  C         41.3550    2.3100  -23.4520 C.2   309  ALA309      0.2592
    134  O         42.1400    2.3800  -24.3980 O.2   309  ALA309     -0.2718
    135  CB        41.0660    0.2540  -22.0650 C.3   309  ALA309      0.0304
    136  N         41.1680    3.2950  -22.5760 N.am  310  ASP310     -0.1960
    137  CA        41.9560    4.5280  -22.5790 C.3   310  ASP310      0.1840
    138  C         41.8190    5.3240  -23.8740 C.2   310  ASP310      0.2622
    139  O         42.7150    6.0910  -24.2300 O.2   310  ASP310     -0.2715
    140  CB        43.4340    4.2170  -22.3170 C.3   310  ASP310      0.1450
    141  CG        43.7020    3.8160  -20.8800 C.2   310  ASP310      0.3671
    142  OD1       42.9760    4.2940  -19.9850 O.co2 310  ASP310     -0.2456
    143  OD2       44.6350    3.0190  -20.6450 O.co2 310  ASP310     -0.2456
    144  N         40.7030    5.1480  -24.5740 N.am  311  PHE311     -0.1974
    145  CA        40.4720    5.8840  -25.8130 C.3   311  PHE311      0.1639
    146  C         40.2620    7.3720  -25.5450 C.2   311  PHE311      0.2290
    147  O         39.4600    7.7530  -24.6940 O.2   311  PHE311     -0.2864
    148  CB        39.2790    5.3010  -26.5830 C.3   311  PHE311      0.0560
    149  CG        38.0920    4.9660  -25.7210 C.ar  311  PHE311     -0.0200
    150  CD1       37.9210    3.6820  -25.2240 C.ar  311  PHE311     -0.0042
    151  CD2       37.1380    5.9250  -25.4220 C.ar  311  PHE311     -0.0042
    152  CE1       36.8280    3.3650  -24.4370 C.ar  311  PHE311     -0.0003
    153  CE2       36.0440    5.6150  -24.6340 C.ar  311  PHE311     -0.0003
    154  CZ        35.8890    4.3330  -24.1410 C.ar  311  PHE311     -0.0000
    155  N         41.9860    9.3550  -23.9880 N.3   313  LEU313     -0.1245
    156  CA        42.6310    9.7780  -22.7500 C.3   313  LEU313      0.1561
    157  C         44.0040   10.4040  -22.9840 C.2   313  LEU313      0.2260
    158  O         44.4240   11.2870  -22.2380 O.2   313  LEU313     -0.2867
    159  CB        42.7630    8.5900  -21.7950 C.3   313  LEU313      0.0270
    160  CG        43.0430    8.9190  -20.3290 C.3   313  LEU313      0.0019
    161  CD1       41.8780    9.6860  -19.7250 C.3   313  LEU313      0.0001
    162  CD2       43.3250    7.6520  -19.5360 C.3   313  LEU313      0.0001
@<TRIPOS>BOND
     1   148   145    1
     2   148   149    1
     3   145   146    1
     4   145   144    1
     5   149   151   ar
     6   149   150   ar
     7   146   147    2
     8   151   153   ar
     9   150   152   ar
    10   118   119    1
    11   153   154   ar
    12   144   138   am
    13   152   154   ar
    14   131   132    1
    15   134   133    2
    16   139   138    2
    17    37    36    2
    18   155   156    1
    19    34    35    1
    20   138   137    1
    21    35    36    1
    22    35    38    1
    23   126   125    2
    24    42    43    1
    25   133   132    1
    26   133   136   am
    27   119   122    1
    28   119   120    1
    29   123   124    1
    30    39    38    1
    31    39    40    1
    32   132   135    1
    33   120   121    2
    34   157   156    1
    35   157   158    2
    36   156   159    1
    37    41    40    1
    38   137   136    1
    39   137   140    1
    40   125   124    1
    41   140   141    1
    42   124   127    1
    43    43    44    1
    44    43    46    1
    45    45    44    2
    46   159   160    1
    47   106   107    2
    48   106   105    1
    49   110   111    1
    50    47    46    1
    51    46    48    1
    52   127   128    1
    53   141   143   ar
    54   141   142   ar
    55   112   111    1
    56   112   113    2
    57   128   129    1
    58   128   130    1
    59   105   108    1
    60   105   104    1
    61   111   114    1
    62    80    78   ar
    63   109   108    1
    64   160   161    1
    65   160   162    1
    66    98    97    1
    67    98    99    1
    68   103   102    2
    69    55    54    1
    70    49    50    1
    71   116   115   ar
    72    78    79   ar
    73    78    77    1
    74    53    54    1
    75    53    50    1
    76   104   102   am
    77    97    96    1
    78   114   115    1
    79   102   101    1
    80    54    56    1
    81   115   117   ar
    82    50    51    1
    83    96    93    1
    84    77    76    1
    85    52    51    2
    86   101   100    1
    87    93    94    1
    88    93    92    1
    89    32    33    1
    90    32    31    1
    91    76    73    1
    92    71    69    1
    93    69    70    1
    94    69    66    1
    95    94    95    2
    96    31    30    1
    97    64    62    1
    98    92    83   am
    99    75    74    2
   100    63    61    1
   101    72    73    1
   102    72    67   am
   103    73    74    1
   104    74    81   am
   105    84    83    2
   106    83    82    1
   107    66    67    1
   108    66    65    1
   109    62    61    1
   110    67    68    2
   111    61    58    1
   112    30    29    1
   113    81    82    1
   114    82    85    1
   115    29    26    1
   116    19    17    1
   117    58    59    1
   118    58    57    1
   119    60    59    2
   120    85    86    1
   121    18    17    1
   122    24    21    1
   123    17    14    1
   124    26    25    1
   125    26    27    1
   126    23    22    2
   127    86    88   ar
   128    86    87   ar
   129    88    90   ar
   130    28    27    2
   131    87    89   ar
   132    90    91   ar
   133    89    91   ar
   134    22    21    1
   135    21    20    1
   136     7     6    1
   137    10    11    1
   138    10     9    1
   139    14    13    1
   140    14    15    1
   141    11    12    2
   142     4     3    2
   143     5     6    1
   144     5     2    1
   145     9     3   am
   146     3     2    1
   147     6     8    1
   148    15    16    2
   149     2     1    1
