@<TRIPOS>MOLECULE
tmp/4lufA06.pdb
 114 104 0 0 0
SMALL
GASTEIGER

@<TRIPOS>ATOM
      1  N         41.3700  -29.7160   33.8050 N.3   386  LEU386     -0.1245
      2  CA        41.7370  -30.4930   32.6000 C.3   386  LEU386      0.1561
      3  C         43.0650  -31.2600   32.8600 C.2   386  LEU386      0.2260
      4  O         43.1980  -32.4680   32.6300 O.2   386  LEU386     -0.2867
      5  CB        41.9230  -29.5620   31.3990 C.3   386  LEU386      0.0270
      6  CG        42.2910  -30.2690   30.0790 C.3   386  LEU386      0.0019
      7  CD1       40.9770  -30.8150   29.5030 C.3   386  LEU386      0.0001
      8  CD2       42.9770  -29.2660   29.1260 C.3   386  LEU386      0.0001
      9  N         43.3110  -35.2710   33.2500 N.3   390  ASN390     -0.1240
     10  CA        44.0620  -35.9910   32.2100 C.3   390  ASN390      0.1653
     11  C         45.3910  -36.6030   32.7360 C.2   390  ASN390      0.2266
     12  O         45.7320  -37.7300   32.4130 O.2   390  ASN390     -0.2867
     13  CB        44.1330  -35.1960   30.9280 C.3   390  ASN390      0.1155
     14  CG        42.7520  -35.1080   30.2570 C.2   390  ASN390      0.2627
     15  OD1       42.2580  -36.1030   29.6980 O.2   390  ASN390     -0.2716
     16  ND2       42.0860  -33.9320   30.3640 N.am  390  ASN390     -0.0877
     17  N         46.7120  -44.1150   27.4150 N.3   402  PHE402     -0.1241
     18  CA        46.1660  -42.7550   27.3570 C.3   402  PHE402      0.1605
     19  C         45.8370  -42.3930   25.9230 C.2   402  PHE402      0.2264
     20  O         44.7270  -41.9620   25.6670 O.2   402  PHE402     -0.2867
     21  CB        47.1480  -41.7790   27.9520 C.3   402  PHE402      0.0534
     22  CG        46.6190  -40.4170   28.0550 C.ar  402  PHE402     -0.0203
     23  CD1       45.3950  -40.1970   28.6460 C.ar  402  PHE402     -0.0042
     24  CD2       47.3780  -39.3290   27.6070 C.ar  402  PHE402     -0.0042
     25  CE1       44.9150  -38.9230   28.7850 C.ar  402  PHE402     -0.0003
     26  CE2       46.9170  -38.0460   27.7700 C.ar  402  PHE402     -0.0003
     27  CZ        45.6810  -37.8410   28.3490 C.ar  402  PHE402     -0.0000
     28  N         42.1010  -41.3760   24.2980 N.3   406  LEU406     -0.1245
     29  CA        41.7650  -40.1830   23.4920 C.3   406  LEU406      0.1561
     30  C         41.2230  -40.6110   22.1050 C.2   406  LEU406      0.2260
     31  O         40.4370  -39.8810   21.4830 O.2   406  LEU406     -0.2867
     32  CB        43.0040  -39.3300   23.3240 C.3   406  LEU406      0.0270
     33  CG        43.4920  -38.6840   24.6000 C.3   406  LEU406      0.0019
     34  CD1       44.8960  -38.1340   24.3700 C.3   406  LEU406      0.0001
     35  CD2       42.5320  -37.5840   24.9390 C.3   406  LEU406      0.0001
     36  N         37.5750  -40.8880   22.7550 N.3   409  ARG409     -0.1231
     37  CA        37.0870  -39.5250   22.8340 C.3   409  ARG409      0.1694
     38  C         36.9960  -38.8090   21.4950 C.2   409  ARG409      0.2592
     39  O         35.9250  -38.2680   21.1340 O.2   409  ARG409     -0.2718
     40  CB        37.9990  -38.7250   23.7850 C.3   409  ARG409      0.0321
     41  CG        37.4460  -38.7100   25.1840 C.3   409  ARG409      0.0489
     42  CD        38.4360  -38.9240   26.3220 C.3   409  ARG409      0.2205
     43  NE        39.1170  -37.6870   26.6390 N.pl3 409  ARG409     -0.0865
     44  CZ        39.7890  -37.4490   27.7530 C.cat 409  ARG409      0.5346
     45  NH1       39.8710  -38.3520   28.7120 N.pl3 409  ARG409      0.1354
     46  NH2       40.3900  -36.2870   27.8820 N.pl3 409  ARG409      0.1354
     47  N         38.1070  -38.8040   20.7500 N.am  410  TYR410     -0.1976
     48  CA        38.1430  -38.0210   19.5570 C.3   410  TYR410      0.1639
     49  C         37.3220  -38.6300   18.4210 C.2   410  TYR410      0.2290
     50  O         36.7780  -37.8850   17.5340 O.2   410  TYR410     -0.2864
     51  CB        39.6020  -37.6990   19.1910 C.3   410  TYR410      0.0560
     52  CG        39.9050  -36.4670   19.9410 C.ar  410  TYR410     -0.0198
     53  CD1       40.1900  -36.5130   21.3140 C.ar  410  TYR410     -0.0009
     54  CD2       39.7300  -35.2220   19.3230 C.ar  410  TYR410     -0.0009
     55  CE1       40.2920  -35.3330   22.0500 C.ar  410  TYR410      0.0417
     56  CE2       39.8560  -34.0400   20.0320 C.ar  410  TYR410      0.0417
     57  CZ        40.1300  -34.1040   21.3950 C.ar  410  TYR410      0.1957
     58  OH        40.2510  -32.9040   22.0560 O.3   410  TYR410     -0.2866
     59  N         33.9760  -37.4220   19.1650 N.3   413  LYS413     -0.1245
     60  CA        33.7760  -36.0180   18.9400 C.3   413  LYS413      0.1561
     61  C         33.6760  -35.7360   17.4350 C.2   413  LYS413      0.2260
     62  O         32.9200  -34.8920   17.0110 O.2   413  LYS413     -0.2867
     63  CB        34.9850  -35.2410   19.5020 C.3   413  LYS413      0.0271
     64  CG        34.9970  -35.0090   20.9890 C.3   413  LYS413      0.0035
     65  CD        36.4010  -34.6660   21.4300 C.3   413  LYS413      0.0206
     66  CE        36.5810  -34.6930   22.9460 C.3   413  LYS413      0.1093
     67  NZ        35.6420  -33.7160   23.5820 N.3   413  LYS413     -0.1314
     68  N         48.0350  -36.1290   20.8890 N.3   429  LEU429     -0.1245
     69  CA        47.3900  -35.6470   22.1020 C.3   429  LEU429      0.1561
     70  C         47.8720  -36.4450   23.3160 C.2   429  LEU429      0.2260
     71  O         48.0130  -35.8950   24.4260 O.2   429  LEU429     -0.2867
     72  CB        45.8870  -35.7190   21.9870 C.3   429  LEU429      0.0270
     73  CG        45.2340  -34.7590   20.9690 C.3   429  LEU429      0.0019
     74  CD1       43.6920  -34.9870   20.8950 C.3   429  LEU429      0.0001
     75  CD2       45.5170  -33.3100   21.3570 C.3   429  LEU429      0.0001
     76  N         51.1380  -35.5250   24.8360 N.3   432  VAL432     -0.1245
     77  CA        51.0940  -34.3040   25.6440 C.3   432  VAL432      0.1561
     78  C         51.1360  -34.6860   27.1300 C.2   432  VAL432      0.2260
     79  O         51.7330  -33.9720   27.8990 O.2   432  VAL432     -0.2867
     80  CB        49.8610  -33.4150   25.3340 C.3   432  VAL432      0.0252
     81  CG1       49.8680  -32.1790   26.1960 C.3   432  VAL432      0.0019
     82  CG2       49.8650  -32.9630   23.8840 C.3   432  VAL432      0.0019
     83  N         50.9850  -27.7210   28.6670 N.3   448  THR448     -0.1218
     84  CA        49.8370  -28.4050   28.1510 C.3   448  THR448      0.1862
     85  C         49.0720  -27.6580   27.0960 C.2   448  THR448      0.2287
     86  O         48.7700  -28.2320   26.0460 O.2   448  THR448     -0.2866
     87  CB        48.8720  -28.6870   29.2800 C.3   448  THR448      0.1770
     88  OG1       49.5120  -29.5920   30.1900 O.3   448  THR448     -0.2211
     89  CG2       47.6400  -29.3430   28.7380 C.3   448  THR448      0.0375
     90  N         48.6530  -28.7760   23.1260 N.3   452  LEU452     -0.1245
     91  CA        47.2810  -28.8280   22.5480 C.3   452  LEU452      0.1561
     92  C         47.0840  -27.8340   21.3680 C.2   452  LEU452      0.2260
     93  O         46.5320  -28.1690   20.3170 O.2   452  LEU452     -0.2867
     94  CB        46.1740  -28.6720   23.5840 C.3   452  LEU452      0.0270
     95  CG        46.2270  -29.6910   24.7060 C.3   452  LEU452      0.0019
     96  CD1       45.2450  -29.3920   25.8520 C.3   452  LEU452      0.0001
     97  CD2       46.0610  -31.1080   24.1920 C.3   452  LEU452      0.0001
     98  N         41.0180  -24.9460   22.1040 N.3   484  ARG484     -0.1245
     99  CA        41.1880  -26.0730   22.9620 C.3   484  ARG484      0.1563
    100  C         39.8700  -26.2920   23.7440 C.2   484  ARG484      0.2260
    101  O         39.2970  -27.3870   23.7130 O.2   484  ARG484     -0.2867
    102  CB        42.4680  -25.9670   23.8430 C.3   484  ARG484      0.0307
    103  CG        42.8370  -27.3320   24.4800 C.3   484  ARG484      0.0489
    104  CD        41.8700  -27.6730   25.6300 C.3   484  ARG484      0.2205
    105  NE        42.0410  -26.6560   26.6370 N.pl3 484  ARG484     -0.0865
    106  CZ        41.1710  -26.3740   27.5830 C.cat 484  ARG484      0.5346
    107  NH1       39.9900  -27.0060   27.6820 N.pl3 484  ARG484      0.1354
    108  NH2       41.4510  -25.4120   28.4390 N.pl3 484  ARG484      0.1354
    109  N         37.4930  -29.5350   23.7020 N.3   488  SER488     -0.1217
    110  CA        37.2820  -30.1540   24.9890 C.3   488  SER488      0.1889
    111  C         35.7890  -30.3090   25.2880 C.2   488  SER488      0.2288
    112  O         35.3970  -31.3250   25.8280 O.2   488  SER488     -0.2866
    113  CB        37.9130  -29.3120   26.0810 C.3   488  SER488      0.2089
    114  OG        39.2570  -29.6420   26.1020 O.3   488  SER488     -0.2183
@<TRIPOS>BOND
     1    62    61    2
     2    61    60    1
     3    50    49    2
     4    49    48    1
     5    60    59    1
     6    60    63    1
     7    51    48    1
     8    51    52    1
     9    54    52   ar
    10    54    56   ar
    11    63    64    1
    12    48    47    1
    13    52    53   ar
    14    56    57   ar
    15    93    92    2
    16    47    38   am
    17    68    69    1
    18    74    73    1
    19    73    75    1
    20    73    72    1
    21    64    65    1
    22    39    38    2
    23    53    55   ar
    24    92    91    1
    25    57    55   ar
    26    57    58    1
    27    65    66    1
    28    31    30    2
    29    38    37    1
    30    72    69    1
    31    69    70    1
    32    98    99    1
    33    30    29    1
    34    91    90    1
    35    91    94    1
    36    36    37    1
    37    37    40    1
    38    66    67    1
    39    99   100    1
    40    99   102    1
    41    70    71    2
    42    32    29    1
    43    32    33    1
    44    29    28    1
    45    94    95    1
    46   109   110    1
    47   101   100    2
    48    40    41    1
    49   102   103    1
    50    82    80    1
    51    97    95    1
    52    34    33    1
    53   103   104    1
    54    33    35    1
    55    95    96    1
    56    76    77    1
    57   110   111    1
    58   110   113    1
    59    41    42    1
    60   111   112    2
    61    80    77    1
    62    80    81    1
    63   104   105    1
    64    77    78    1
    65    20    19    2
    66    19    18    1
    67    86    85    2
    68   113   114    1
    69    42    43    1
    70   105   106    2
    71    43    44    2
    72    85    84    1
    73    78    79    2
    74    18    17    1
    75    18    21    1
    76   106   107    1
    77   106   108    1
    78    24    26   ar
    79    24    22   ar
    80    44    46    1
    81    44    45    1
    82    26    27   ar
    83    21    22    1
    84    22    23   ar
    85    84    83    1
    86    84    87    1
    87    27    25   ar
    88    23    25   ar
    89    89    87    1
    90     8     6    1
    91    87    88    1
    92     7     6    1
    93    15    14    2
    94     6     5    1
    95    14    16   am
    96    14    13    1
    97    13    10    1
    98     5     2    1
    99    10    11    1
   100    10     9    1
   101    12    11    2
   102     2     3    1
   103     2     1    1
   104     4     3    2
