@<TRIPOS>MOLECULE
tmp/4lufA02.pdb
 178 168 0 0 0
SMALL
GASTEIGER

@<TRIPOS>ATOM
      1  N         60.0190  -22.7890    9.6890 N.3   149  TYR149     -0.1241
      2  CA        60.6760  -21.5060    9.9090 C.3   149  TYR149      0.1605
      3  C         62.1390  -21.5830    9.4150 C.2   149  TYR149      0.2264
      4  O         63.0160  -22.2260   10.0230 O.2   149  TYR149     -0.2867
      5  CB        60.5840  -21.2080   11.3740 C.3   149  TYR149      0.0534
      6  CG        61.0120  -19.8750   11.8780 C.ar  149  TYR149     -0.0201
      7  CD1       60.8820  -18.6740   11.1190 C.ar  149  TYR149     -0.0009
      8  CD2       61.3930  -19.7570   13.1960 C.ar  149  TYR149     -0.0009
      9  CE1       61.2320  -17.4170   11.6790 C.ar  149  TYR149      0.0417
     10  CE2       61.6740  -18.5130   13.7690 C.ar  149  TYR149      0.0417
     11  CZ        61.6110  -17.3520   13.0220 C.ar  149  TYR149      0.1957
     12  OH        61.9230  -16.1450   13.6840 O.3   149  TYR149     -0.2866
     13  N         54.8610  -25.5880   15.5740 N.3   194  ARG194     -0.1245
     14  CA        54.8810  -24.2200   16.1150 C.3   194  ARG194      0.1563
     15  C         54.7890  -23.2110   14.9300 C.2   194  ARG194      0.2260
     16  O         53.9550  -22.2990   14.9160 O.2   194  ARG194     -0.2867
     17  CB        56.1850  -24.0800   16.8440 C.3   194  ARG194      0.0307
     18  CG        56.2400  -23.2910   18.1140 C.3   194  ARG194      0.0489
     19  CD        57.6340  -23.2890   18.7970 C.3   194  ARG194      0.2205
     20  NE        58.0430  -24.5160   19.5280 N.pl3 194  ARG194     -0.0865
     21  CZ        59.1900  -25.2340   19.3150 C.cat 194  ARG194      0.5346
     22  NH1       60.1030  -24.8960   18.4000 N.pl3 194  ARG194      0.1354
     23  NH2       59.4580  -26.3230   20.0290 N.pl3 194  ARG194      0.1354
     24  N         51.8900  -20.5020   13.6720 N.3   198  ARG198     -0.1245
     25  CA        52.0790  -19.0590   13.5230 C.3   198  ARG198      0.1563
     26  C         51.4940  -18.6450   12.1410 C.2   198  ARG198      0.2260
     27  O         50.8060  -17.6250   12.0600 O.2   198  ARG198     -0.2867
     28  CB        53.5630  -18.6350   13.7210 C.3   198  ARG198      0.0307
     29  CG        54.0690  -18.9620   15.0710 C.3   198  ARG198      0.0489
     30  CD        55.2900  -18.1790   15.4940 C.3   198  ARG198      0.2205
     31  NE        56.4720  -18.9540   15.2660 N.pl3 198  ARG198     -0.0865
     32  CZ        57.3040  -19.4280   16.1810 C.cat 198  ARG198      0.5346
     33  NH1       57.1570  -19.1460   17.4440 N.pl3 198  ARG198      0.1354
     34  NH2       58.3250  -20.1670   15.7820 N.pl3 198  ARG198      0.1354
     35  N         48.2490  -13.2110   15.8280 N.3   210  LEU210     -0.1245
     36  CA        49.5420  -13.6310   16.2770 C.3   210  LEU210      0.1561
     37  C         50.1890  -12.5670   17.1880 C.2   210  LEU210      0.2260
     38  O         50.9140  -12.9020   18.1420 O.2   210  LEU210     -0.2867
     39  CB        50.4190  -13.9900   15.0730 C.3   210  LEU210      0.0270
     40  CG        51.8940  -14.3810   15.3470 C.3   210  LEU210      0.0019
     41  CD1       52.0210  -15.6230   16.2190 C.3   210  LEU210      0.0001
     42  CD2       52.7150  -14.4980   14.0290 C.3   210  LEU210      0.0001
     43  N         48.9620  -13.0340   20.8190 N.3   213  TRP213     -0.1227
     44  CA        49.5800  -14.1960   21.3950 C.3   213  TRP213      0.1737
     45  C         51.0540  -13.9050   21.7800 C.2   213  TRP213      0.2596
     46  O         51.5110  -14.2770   22.8690 O.2   213  TRP213     -0.2718
     47  CB        49.5280  -15.2150   20.2900 C.3   213  TRP213      0.0564
     48  CG        49.8100  -16.5710   20.6450 C.ar  213  TRP213      0.0003
     49  CD1       51.0720  -17.1640   20.8980 C.ar  213  TRP213      0.0946
     50  CD2       48.8240  -17.6050   20.7760 C.ar  213  TRP213      0.0152
     51  NE1       50.8810  -18.5190   21.1790 N.ar  213  TRP213     -0.2442
     52  CE2       49.5280  -18.8180   21.1090 C.ar  213  TRP213      0.0810
     53  CE3       47.4190  -17.6300   20.6390 C.ar  213  TRP213      0.0012
     54  CZ2       48.8520  -20.0490   21.3000 C.ar  213  TRP213      0.0191
     55  CZ3       46.7690  -18.8290   20.8280 C.ar  213  TRP213      0.0001
     56  CH2       47.4820  -20.0260   21.1540 C.ar  213  TRP213      0.0015
     57  N         51.7880  -13.2470   20.8670 N.am  214  SER214     -0.1952
     58  CA        53.1550  -12.8940   21.1180 C.3   214  SER214      0.1924
     59  C         53.3360  -11.9240   22.2430 C.2   214  SER214      0.2314
     60  O         54.3080  -12.0510   22.9980 O.2   214  SER214     -0.2863
     61  CB        53.8330  -12.3800   19.8470 C.3   214  SER214      0.2116
     62  OG        53.9530  -13.5350   18.9970 O.3   214  SER214     -0.2180
     63  N         53.1360  -13.9700   25.3830 N.3   217  ARG217     -0.1231
     64  CA        54.2710  -14.8180   25.4890 C.3   217  ARG217      0.1694
     65  C         55.5550  -14.0040   25.8290 C.2   217  ARG217      0.2591
     66  O         56.3370  -14.3730   26.7320 O.2   217  ARG217     -0.2718
     67  CB        54.3590  -15.5330   24.1700 C.3   217  ARG217      0.0321
     68  CG        55.6060  -16.3380   23.9760 C.3   217  ARG217      0.0489
     69  CD        55.6990  -17.5060   24.9170 C.3   217  ARG217      0.2205
     70  NE        56.8400  -18.3270   24.4830 N.pl3 217  ARG217     -0.0865
     71  CZ        57.5170  -19.2130   25.2230 C.cat 217  ARG217      0.5346
     72  NH1       57.1840  -19.4400   26.5110 N.pl3 217  ARG217      0.1354
     73  NH2       58.5380  -19.8640   24.6410 N.pl3 217  ARG217      0.1354
     74  N         55.7990  -12.8900   25.1190 N.am  218  LEU218     -0.1980
     75  CA        57.0090  -12.1340   25.4420 C.3   218  LEU218      0.1596
     76  C         56.9220  -11.4310   26.8020 C.2   218  LEU218      0.2287
     77  O         57.9370  -11.2950   27.4770 O.2   218  LEU218     -0.2864
     78  CB        57.3260  -11.1260   24.3710 C.3   218  LEU218      0.0297
     79  CG        57.9810  -11.7340   23.1470 C.3   218  LEU218      0.0022
     80  CD1       58.7440  -10.5670   22.5620 C.3   218  LEU218      0.0001
     81  CD2       58.9290  -12.8900   23.5310 C.3   218  LEU218      0.0001
     82  N         58.1350  -13.7830   29.0890 N.3   221  LYS221     -0.1231
     83  CA        59.5900  -14.0010   28.9540 C.3   221  LYS221      0.1693
     84  C         60.4060  -12.8290   29.5080 C.2   221  LYS221      0.2592
     85  O         61.4700  -13.0400   30.0820 O.2   221  LYS221     -0.2718
     86  CB        59.9900  -14.2570   27.4910 C.3   221  LYS221      0.0285
     87  CG        60.1140  -15.7300   27.1950 C.3   221  LYS221      0.0035
     88  CD        60.6890  -15.9330   25.8170 C.3   221  LYS221      0.0206
     89  CE        60.5640  -17.3910   25.4150 C.3   221  LYS221      0.1093
     90  NZ        61.9420  -17.9560   25.3180 N.3   221  LYS221     -0.1314
     91  N         59.9140  -11.6000   29.3120 N.am  222  PHE222     -0.1976
     92  CA        60.6930  -10.3890   29.6180 C.3   222  PHE222      0.1639
     93  C         59.8620   -9.5570   30.5470 C.2   222  PHE222      0.2290
     94  O         59.4680   -8.4470   30.2000 O.2   222  PHE222     -0.2864
     95  CB        60.9000   -9.5970   28.3350 C.3   222  PHE222      0.0560
     96  CG        61.7100  -10.3060   27.3100 C.ar  222  PHE222     -0.0200
     97  CD1       62.6530  -11.2840   27.6790 C.ar  222  PHE222     -0.0042
     98  CD2       61.5940   -9.9700   25.9900 C.ar  222  PHE222     -0.0042
     99  CE1       63.4270  -11.9370   26.7170 C.ar  222  PHE222     -0.0003
    100  CE2       62.4210  -10.5890   25.0070 C.ar  222  PHE222     -0.0003
    101  CZ        63.3400  -11.5680   25.3860 C.ar  222  PHE222     -0.0000
    102  N         59.0770   -5.2150   19.9060 N.3   233  ILE233     -0.1245
    103  CA        59.5800   -6.5470   19.5780 C.3   233  ILE233      0.1561
    104  C         58.4960   -7.4630   18.9370 C.2   233  ILE233      0.2260
    105  O         58.7430   -8.1410   17.9180 O.2   233  ILE233     -0.2867
    106  CB        60.2550   -7.1540   20.7960 C.3   233  ILE233      0.0252
    107  CG1       61.4610   -6.2580   21.1260 C.3   233  ILE233      0.0019
    108  CG2       60.6310   -8.6000   20.5300 C.3   233  ILE233      0.0019
    109  CD1       61.8010   -6.4670   22.5950 C.3   233  ILE233      0.0001
    110  N         58.6950   -9.0560   15.3710 N.3   237  LEU237     -0.1245
    111  CA        58.7520  -10.5370   15.3180 C.3   237  LEU237      0.1561
    112  C         57.6460  -11.0830   14.3650 C.2   237  LEU237      0.2260
    113  O         57.8640  -11.9920   13.5390 O.2   237  LEU237     -0.2867
    114  CB        58.6060  -11.0730   16.7120 C.3   237  LEU237      0.0270
    115  CG        58.6270  -12.5540   16.7600 C.3   237  LEU237      0.0019
    116  CD1       59.9710  -13.0540   16.2930 C.3   237  LEU237      0.0001
    117  CD2       58.3420  -12.9020   18.2110 C.3   237  LEU237      0.0001
    118  N         57.7360  -13.3560   10.9700 N.3   241  HIS241     -0.1241
    119  CA        56.8940  -14.5220   10.7590 C.3   241  HIS241      0.1621
    120  C         55.9910  -14.4820    9.5500 C.2   241  HIS241      0.2264
    121  O         55.9420  -15.4620    8.8050 O.2   241  HIS241     -0.2867
    122  CB        56.1100  -14.7840   12.0070 C.3   241  HIS241      0.0745
    123  CG        56.9420  -15.4360   13.0370 C.ar  241  HIS241      0.0817
    124  ND1       56.8980  -15.0880   14.3690 N.ar  241  HIS241     -0.2268
    125  CD2       57.9220  -16.3600   12.9170 C.ar  241  HIS241      0.1154
    126  CE1       57.8060  -15.7850   15.0330 C.ar  241  HIS241      0.1986
    127  NE2       58.4320  -16.5630   14.1740 N.ar  241  HIS241     -0.2212
    128  N         65.1120  -11.1150   10.8070 N.3   256  ARG256     -0.1245
    129  CA        65.3120  -11.7500   12.0910 C.3   256  ARG256      0.1563
    130  C         66.6620  -11.3760   12.6440 C.2   256  ARG256      0.2260
    131  O         66.7580  -11.1620   13.8580 O.2   256  ARG256     -0.2867
    132  CB        65.2880  -13.2390   12.0130 C.3   256  ARG256      0.0307
    133  CG        65.0390  -13.9130   13.3440 C.3   256  ARG256      0.0489
    134  CD        65.1980  -15.3780   13.0190 C.3   256  ARG256      0.2205
    135  NE        64.9810  -16.2800   14.1460 N.pl3 256  ARG256     -0.0865
    136  CZ        65.7330  -17.3440   14.3580 C.cat 256  ARG256      0.5346
    137  NH1       66.7750  -17.5780   13.5280 N.pl3 256  ARG256      0.1354
    138  NH2       65.4480  -18.1520   15.3760 N.pl3 256  ARG256      0.1354
    139  N         66.4070   -8.2620   14.2910 N.3   259  LEU259     -0.1231
    140  CA        65.6690   -8.3200   15.5520 C.3   259  LEU259      0.1693
    141  C         66.5550   -8.8780   16.6730 C.2   259  LEU259      0.2591
    142  O         66.5670   -8.3340   17.8060 O.2   259  LEU259     -0.2718
    143  CB        64.3740   -9.1040   15.3910 C.3   259  LEU259      0.0284
    144  CG        63.5170   -9.1650   16.6820 C.3   259  LEU259      0.0019
    145  CD1       63.1720   -7.7290   17.1070 C.3   259  LEU259      0.0001
    146  CD2       62.2590  -10.0210   16.3900 C.3   259  LEU259      0.0001
    147  N         67.3330   -9.9190   16.3580 N.am  260  ALA260     -0.1980
    148  CA        68.2570  -10.5180   17.3220 C.3   260  ALA260      0.1597
    149  C         69.2670   -9.4750   17.7310 C.2   260  ALA260      0.2287
    150  O         69.6550   -9.3900   18.9030 O.2   260  ALA260     -0.2864
    151  CB        69.0170  -11.6940   16.6710 C.3   260  ALA260      0.0319
    152  N         67.5710   -6.9460   20.0430 N.3   263  ILE263     -0.1245
    153  CA        67.2830   -7.4930   21.3710 C.3   263  ILE263      0.1561
    154  C         68.5660   -7.5820   22.1640 C.2   263  ILE263      0.2260
    155  O         68.5530   -7.3000   23.3230 O.2   263  ILE263     -0.2867
    156  CB        66.6080   -8.8950   21.3070 C.3   263  ILE263      0.0252
    157  CG1       65.1470   -8.7420   20.9290 C.3   263  ILE263      0.0019
    158  CG2       66.7480   -9.5820   22.6210 C.3   263  ILE263      0.0019
    159  CD1       64.4470  -10.0360   20.5570 C.3   263  ILE263      0.0001
    160  N         70.0370  -16.1470   17.5400 N.3   286  SER286     -0.1217
    161  CA        68.5910  -16.0060   17.3860 C.3   286  SER286      0.1889
    162  C         67.8950  -17.1910   18.0070 C.2   286  SER286      0.2288
    163  O         66.8300  -17.0530   18.6800 O.2   286  SER286     -0.2866
    164  CB        68.2410  -15.9970   15.9150 C.3   286  SER286      0.2089
    165  OG        68.9760  -14.9660   15.3130 O.3   286  SER286     -0.2183
    166  N         67.9160  -16.7490   21.6520 N.3   289  ILE289     -0.1231
    167  CA        66.9470  -15.7830   22.1870 C.3   289  ILE289      0.1692
    168  C         65.5370  -16.4460   22.1550 C.2   289  ILE289      0.2591
    169  O         64.7570  -16.2950   23.0960 O.2   289  ILE289     -0.2718
    170  CB        66.9340  -14.4810   21.3850 C.3   289  ILE289      0.0266
    171  CG1       68.2540  -13.7550   21.5830 C.3   289  ILE289      0.0019
    172  CG2       65.6380  -13.6210   21.6740 C.3   289  ILE289      0.0020
    173  CD1       68.5470  -12.7610   20.4530 C.3   289  ILE289      0.0001
    174  N         65.2240  -17.1650   21.0710 N.am  290  ALA290     -0.1980
    175  CA        63.9050  -17.7530   20.9150 C.3   290  ALA290      0.1597
    176  C         63.7110  -18.7100   22.0630 C.2   290  ALA290      0.2287
    177  O         62.6140  -18.8070   22.5360 O.2   290  ALA290     -0.2864
    178  CB        63.7790  -18.5050   19.5970 C.3   290  ALA290      0.0319
@<TRIPOS>BOND
     1   121   120    2
     2     3     2    1
     3     3     4    2
     4   120   119    1
     5     1     2    1
     6     2     5    1
     7   119   118    1
     8   119   122    1
     9   128   129    1
    10     7     9   ar
    11     7     6   ar
    12     5     6    1
    13     9    11   ar
    14     6     8   ar
    15   122   123    1
    16   132   129    1
    17   132   133    1
    18    27    26    2
    19   129   130    1
    20    26    25    1
    21   130   131    2
    22   125   123   ar
    23   125   127   ar
    24   134   133    1
    25   134   135    1
    26    11    12    1
    27    11    10   ar
    28   123   124   ar
    29     8    10   ar
    30    25    24    1
    31    25    28    1
    32   137   136    1
    33   113   112    2
    34    28    29    1
    35    42    40    1
    36   135   136    2
    37   127   126   ar
    38   139   140    1
    39   136   138    1
    40   112   111    1
    41   124   126   ar
    42    16    15    2
    43    15    14    1
    44    29    30    1
    45    39    40    1
    46    39    36    1
    47    31    30    1
    48    31    32    2
    49   165   164    1
    50   111   110    1
    51   111   114    1
    52    40    41    1
    53   143   140    1
    54   143   144    1
    55   140   141    1
    56    13    14    1
    57    34    32    1
    58    35    36    1
    59   164   161    1
    60    14    17    1
    61    32    33    1
    62    36    37    1
    63   116   115    1
    64   147   141   am
    65   147   148    1
    66   146   144    1
    67   151   148    1
    68   141   142    2
    69   144   145    1
    70   114   115    1
    71   115   117    1
    72    17    18    1
    73    37    38    2
    74   148   149    1
    75   161   160    1
    76   161   162    1
    77   149   150    2
    78   105   104    2
    79   162   163    2
    80    18    19    1
    81    22    21    1
    82    19    20    1
    83   104   103    1
    84    62    61    1
    85    21    20    2
    86    21    23    1
    87   103   102    1
    88   103   106    1
    89   178   175    1
    90    61    58    1
    91   152   153    1
    92    47    48    1
    93    47    44    1
    94   173   171    1
    95   108   106    1
    96   159   157    1
    97    53    50   ar
    98    53    55   ar
    99    48    50   ar
   100    48    49   ar
   101    50    52   ar
   102   106   107    1
   103    43    44    1
   104    55    56   ar
   105    57    58    1
   106    57    45   am
   107    49    51   ar
   108   175   174    1
   109   175   176    1
   110   157   156    1
   111   174   168   am
   112    52    51   ar
   113    52    54   ar
   114    58    59    1
   115   107   109    1
   116    56    54   ar
   117   156   153    1
   118   156   158    1
   119   153   154    1
   120   170   171    1
   121   170   172    1
   122   170   167    1
   123    44    45    1
   124   166   167    1
   125    45    46    2
   126   176   177    2
   127   168   167    1
   128   168   169    2
   129   154   155    2
   130    59    60    2
   131    80    79    1
   132    79    81    1
   133    79    78    1
   134    68    67    1
   135    68    69    1
   136    67    64    1
   137    78    75    1
   138    70    69    1
   139    70    71    2
   140    73    71    1
   141   100   101   ar
   142   100    98   ar
   143    74    75    1
   144    74    65   am
   145    71    72    1
   146    90    89    1
   147    63    64    1
   148   101    99   ar
   149    89    88    1
   150    75    76    1
   151    64    65    1
   152    88    87    1
   153    65    66    2
   154    98    96   ar
   155    99    97   ar
   156    76    77    2
   157    87    86    1
   158    96    97   ar
   159    96    95    1
   160    86    83    1
   161    95    92    1
   162    83    82    1
   163    83    84    1
   164    91    84   am
   165    91    92    1
   166    84    85    2
   167    92    93    1
   168    94    93    2
