@<TRIPOS>MOLECULE
tmp/4lufA07.pdb
 98 90 0 0 0
SMALL
GASTEIGER

@<TRIPOS>ATOM
      1  N         62.7750  -35.0050   16.9630 N.3   186  GLU186     -0.1245
      2  CA        61.8600  -34.4350   17.9090 C.3   186  GLU186      0.1567
      3  C         61.7910  -32.9050   17.7700 C.2   186  GLU186      0.2260
      4  O         60.6780  -32.3830   17.6410 O.2   186  GLU186     -0.2867
      5  CB        62.2260  -34.8360   19.3370 C.3   186  GLU186      0.0388
      6  CG        62.1490  -36.3300   19.5600 C.3   186  GLU186      0.1160
      7  CD        60.8080  -36.8040   20.0690 C.2   186  GLU186      0.3649
      8  OE1       60.5430  -38.0290   20.0180 O.co2 186  GLU186     -0.2457
      9  OE2       60.0480  -35.9570   20.5430 O.co2 186  GLU186     -0.2457
     10  N         60.1110  -31.6490   14.4540 N.3   189  LEU189     -0.1231
     11  CA        58.6540  -31.7250   14.3990 C.3   189  LEU189      0.1693
     12  C         57.9860  -30.7140   15.3530 C.2   189  LEU189      0.2591
     13  O         56.9980  -30.0830   15.0090 O.2   189  LEU189     -0.2718
     14  CB        58.1660  -33.1590   14.6650 C.3   189  LEU189      0.0284
     15  CG        58.5890  -34.2300   13.6540 C.3   189  LEU189      0.0019
     16  CD1       58.2850  -35.6030   14.2240 C.3   189  LEU189      0.0001
     17  CD2       57.9580  -34.0850   12.2770 C.3   189  LEU189      0.0001
     18  N         58.5380  -30.5440   16.5470 N.am  190  ALA190     -0.1980
     19  CA        58.0180  -29.5570   17.4400 C.3   190  ALA190      0.1597
     20  C         58.0500  -28.2000   16.7150 C.2   190  ALA190      0.2287
     21  O         57.0410  -27.5120   16.6260 O.2   190  ALA190     -0.2864
     22  CB        58.8490  -29.4910   18.7160 C.3   190  ALA190      0.0319
     23  N         55.4850  -27.7030   13.8840 N.3   193  ALA193     -0.1245
     24  CA        54.1060  -27.5230   14.2470 C.3   193  ALA193      0.1562
     25  C         53.8780  -26.0950   14.8480 C.2   193  ALA193      0.2260
     26  O         52.8160  -25.4990   14.6810 O.2   193  ALA193     -0.2867
     27  CB        53.6530  -28.6490   15.1910 C.3   193  ALA193      0.0290
     28  N         46.6700  -40.3020   14.0840 N.3   424  GLU424     -0.1231
     29  CA        47.8380  -39.4420   14.2250 C.3   424  GLU424      0.1699
     30  C         47.5970  -38.3420   15.2870 C.2   424  GLU424      0.2592
     31  O         48.4150  -38.1160   16.1740 O.2   424  GLU424     -0.2718
     32  CB        48.2050  -38.8340   12.8590 C.3   424  GLU424      0.0402
     33  CG        49.4390  -37.9340   12.8000 C.3   424  GLU424      0.1161
     34  CD        49.2050  -36.6250   11.9740 C.2   424  GLU424      0.3649
     35  OE1       48.9780  -36.6260   10.7210 O.co2 424  GLU424     -0.2457
     36  OE2       49.2380  -35.5410   12.5990 O.co2 424  GLU424     -0.2457
     37  N         46.5020  -37.6140   15.1580 N.am  425  ILE425     -0.1980
     38  CA        46.1370  -36.6230   16.1420 C.3   425  ILE425      0.1595
     39  C         45.9920  -37.2060   17.5620 C.2   425  ILE425      0.2287
     40  O         46.5360  -36.6410   18.5020 O.2   425  ILE425     -0.2864
     41  CB        44.8000  -35.9310   15.7210 C.3   425  ILE425      0.0276
     42  CG1       45.0460  -35.0530   14.4850 C.3   425  ILE425      0.0022
     43  CG2       44.2580  -35.0870   16.8840 C.3   425  ILE425      0.0022
     44  CD1       46.1940  -34.0650   14.7050 C.3   425  ILE425      0.0001
     45  N         49.2850  -37.9500   19.1370 N.3   428  SER428     -0.1217
     46  CA        49.9950  -36.7580   19.5980 C.3   428  SER428      0.1889
     47  C         49.3720  -36.1820   20.8340 C.2   428  SER428      0.2288
     48  O         50.1100  -35.8200   21.7610 O.2   428  SER428     -0.2866
     49  CB        50.0330  -35.7020   18.5280 C.3   428  SER428      0.2089
     50  OG        50.7480  -36.2510   17.4560 O.3   428  SER428     -0.2183
     51  N         50.7610  -37.9200   23.7610 N.3   431  LYS431     -0.1245
     52  CA        52.1410  -37.5960   24.0090 C.3   431  LYS431      0.1561
     53  C         52.2160  -36.3020   24.8340 C.2   431  LYS431      0.2260
     54  O         53.2230  -36.0080   25.4620 O.2   431  LYS431     -0.2867
     55  CB        52.8600  -37.4530   22.6810 C.3   431  LYS431      0.0271
     56  CG        53.3430  -38.7660   22.0880 C.3   431  LYS431      0.0035
     57  CD        53.8190  -38.5820   20.6640 C.3   431  LYS431      0.0206
     58  CE        54.6320  -39.7930   20.2250 C.3   431  LYS431      0.1093
     59  NZ        54.4240  -40.2290   18.8070 N.3   431  LYS431     -0.1314
     60  N         51.1640  -27.3360   23.6640 N.3   451  TYR451     -0.1241
     61  CA        51.1030  -28.5280   22.7810 C.3   451  TYR451      0.1605
     62  C         49.7050  -28.8210   22.2670 C.2   451  TYR451      0.2264
     63  O         49.5910  -29.1450   21.0590 O.2   451  TYR451     -0.2867
     64  CB        51.6960  -29.7880   23.3710 C.3   451  TYR451      0.0534
     65  CG        53.1880  -29.8150   23.3890 C.ar  451  TYR451     -0.0201
     66  CD1       53.8690  -29.7860   24.6180 C.ar  451  TYR451     -0.0009
     67  CD2       53.9460  -29.9170   22.2110 C.ar  451  TYR451     -0.0009
     68  CE1       55.2490  -29.8280   24.6810 C.ar  451  TYR451      0.0417
     69  CE2       55.3490  -29.9460   22.2610 C.ar  451  TYR451      0.0417
     70  CZ        55.9790  -29.8930   23.5160 C.ar  451  TYR451      0.1957
     71  OH        57.3350  -29.9290   23.6760 O.3   451  TYR451     -0.2866
     72  N         49.2850  -26.7220   19.3000 N.3   454  LEU454     -0.1231
     73  CA        50.0220  -27.1520   18.1180 C.3   454  LEU454      0.1693
     74  C         49.2990  -28.3460   17.4520 C.2   454  LEU454      0.2591
     75  O         49.2360  -28.4060   16.2380 O.2   454  LEU454     -0.2718
     76  CB        51.4780  -27.5260   18.4510 C.3   454  LEU454      0.0284
     77  CG        52.3680  -26.4560   19.1010 C.3   454  LEU454      0.0019
     78  CD1       53.8180  -26.9160   19.3370 C.3   454  LEU454      0.0001
     79  CD2       52.3770  -25.1770   18.2770 C.3   454  LEU454      0.0001
     80  N         48.7530  -29.2780   18.2440 N.am  455  ILE455     -0.1980
     81  CA        48.1730  -30.4920   17.6660 C.3   455  ILE455      0.1595
     82  C         46.7590  -30.1800   17.2010 C.2   455  ILE455      0.2287
     83  O         46.3620  -30.6190   16.1500 O.2   455  ILE455     -0.2864
     84  CB        48.1170  -31.5970   18.7160 C.3   455  ILE455      0.0276
     85  CG1       49.5290  -32.0180   19.1070 C.3   455  ILE455      0.0022
     86  CG2       47.1570  -32.7470   18.3280 C.3   455  ILE455      0.0022
     87  CD1       49.5220  -32.4750   20.5620 C.3   455  ILE455      0.0001
     88  N         47.2480  -28.6380   13.7750 N.3   458  ARG458     -0.1245
     89  CA        47.4740  -29.6490   12.7840 C.3   458  ARG458      0.1563
     90  C         46.1460  -30.3240   12.3240 C.2   458  ARG458      0.2260
     91  O         45.9720  -30.5650   11.1150 O.2   458  ARG458     -0.2867
     92  CB        48.4050  -30.6880   13.3710 C.3   458  ARG458      0.0307
     93  CG        48.6090  -31.9280   12.5060 C.3   458  ARG458      0.0489
     94  CD        49.2030  -31.6970   11.1170 C.3   458  ARG458      0.2205
     95  NE        49.5810  -32.9820   10.5140 N.pl3 458  ARG458     -0.0865
     96  CZ        50.1960  -33.1060    9.3430 C.cat 458  ARG458      0.5346
     97  NH1       50.4830  -32.0190    8.6390 N.pl3 458  ARG458      0.1354
     98  NH2       50.5130  -34.3200    8.8690 N.pl3 458  ARG458      0.1354
@<TRIPOS>BOND
     1    97    96    1
     2    98    96    1
     3    96    95    2
     4    95    94    1
     5    35    34   ar
     6    91    90    2
     7    94    93    1
     8    34    36   ar
     9    34    33    1
    10    17    15    1
    11    90    89    1
    12    93    92    1
    13    89    92    1
    14    89    88    1
    15    33    32    1
    16    32    29    1
    17    15    16    1
    18    15    14    1
    19    23    24    1
    20    28    29    1
    21    29    30    1
    22    24    25    1
    23    24    27    1
    24    11    10    1
    25    11    14    1
    26    11    12    1
    27    42    44    1
    28    42    41    1
    29    26    25    2
    30    13    12    2
    31    37    30   am
    32    37    38    1
    33    30    31    2
    34    12    18   am
    35    41    38    1
    36    41    43    1
    37    38    39    1
    38    83    82    2
    39    75    74    2
    40    18    19    1
    41    21    20    2
    42    20    19    1
    43     1     2    1
    44    82    81    1
    45    19    22    1
    46    74    73    1
    47    74    80   am
    48    50    49    1
    49    39    40    2
    50     4     3    2
    51    81    80    1
    52    81    84    1
    53     3     2    1
    54     2     5    1
    55    73    76    1
    56    73    72    1
    57    79    77    1
    58    86    84    1
    59    76    77    1
    60    49    46    1
    61    84    85    1
    62    59    58    1
    63    77    78    1
    64    85    87    1
    65    45    46    1
    66     5     6    1
    67     6     7    1
    68    46    47    1
    69     8     7   ar
    70     7     9   ar
    71    58    57    1
    72    57    56    1
    73    47    48    2
    74    63    62    2
    75    56    55    1
    76    67    69   ar
    77    67    65   ar
    78    69    70   ar
    79    62    61    1
    80    55    52    1
    81    61    64    1
    82    61    60    1
    83    64    65    1
    84    65    66   ar
    85    70    71    1
    86    70    68   ar
    87    51    52    1
    88    52    53    1
    89    66    68   ar
    90    53    54    2
