@<TRIPOS>MOLECULE
tmp/4lufA03.pdb
 105 102 0 0 0
SMALL
GASTEIGER

@<TRIPOS>ATOM
      1  N         62.3890  -41.0660    5.7500 N.3   115  LEU115     -0.1245
      2  CA        63.8520  -41.1250    5.7480 C.3   115  LEU115      0.1561
      3  C         64.3160  -42.1460    6.7980 C.2   115  LEU115      0.2260
      4  O         64.1170  -41.9570    7.9990 O.2   115  LEU115     -0.2867
      5  CB        64.4270  -39.7620    6.1320 C.3   115  LEU115      0.0270
      6  CG        64.0590  -38.4430    5.4280 C.3   115  LEU115      0.0019
      7  CD1       64.2460  -37.2100    6.3600 C.3   115  LEU115      0.0001
      8  CD2       64.8090  -38.3670    4.0800 C.3   115  LEU115      0.0001
      9  N         67.4110  -43.4680    8.5380 N.3   117  PRO117     -0.2116
     10  CA        68.8170  -43.1670    8.7690 C.3   117  PRO117      0.1372
     11  C         69.6630  -44.4430    8.6410 C.2   117  PRO117      0.2244
     12  O         69.5180  -45.3670    9.4650 O.2   117  PRO117     -0.2868
     13  CB        68.8210  -42.6550   10.2190 C.3   117  PRO117      0.0268
     14  CG        67.6320  -43.3000   10.8510 C.3   117  PRO117      0.0207
     15  CD        66.6020  -43.3250    9.7650 C.3   117  PRO117      0.0892
     16  N         74.9510  -42.3340    5.8670 N.3   122  LEU122     -0.1245
     17  CA        74.9340  -40.9430    6.2900 C.3   122  LEU122      0.1561
     18  C         76.3480  -40.4570    6.4570 C.2   122  LEU122      0.2260
     19  O         76.6820  -39.3470    6.0050 O.2   122  LEU122     -0.2867
     20  CB        74.1560  -40.7460    7.5700 C.3   122  LEU122      0.0270
     21  CG        72.6710  -40.6380    7.3240 C.3   122  LEU122      0.0019
     22  CD1       71.9370  -40.7490    8.6300 C.3   122  LEU122      0.0001
     23  CD2       72.4020  -39.2990    6.6790 C.3   122  LEU122      0.0001
     24  N         75.8210  -32.6250    1.8590 N.3   133  PHE133     -0.1227
     25  CA        75.1320  -33.3670    2.8870 C.3   133  PHE133      0.1736
     26  C         74.0900  -32.4430    3.6170 C.2   133  PHE133      0.2595
     27  O         72.8780  -32.7820    3.7400 O.2   133  PHE133     -0.2718
     28  CB        76.1890  -33.8890    3.8540 C.3   133  PHE133      0.0547
     29  CG        75.6230  -34.6470    4.9880 C.ar  133  PHE133     -0.0202
     30  CD1       75.3210  -36.0240    4.8450 C.ar  133  PHE133     -0.0042
     31  CD2       75.3070  -34.0000    6.1690 C.ar  133  PHE133     -0.0042
     32  CE1       74.7480  -36.7200    5.8630 C.ar  133  PHE133     -0.0003
     33  CE2       74.7300  -34.7140    7.2060 C.ar  133  PHE133     -0.0003
     34  CZ        74.4590  -36.0700    7.0570 C.ar  133  PHE133     -0.0000
     35  N         74.5400  -31.2450    4.0280 N.am  134  TRP134     -0.1976
     36  CA        73.6530  -30.2950    4.6920 C.3   134  TRP134      0.1640
     37  C         72.5660  -29.7340    3.7960 C.2   134  TRP134      0.2290
     38  O         71.3960  -29.5490    4.2380 O.2   134  TRP134     -0.2864
     39  CB        74.4220  -29.2060    5.4620 C.3   134  TRP134      0.0576
     40  CG        75.0460  -29.8600    6.7860 C.ar  134  TRP134      0.0006
     41  CD1       76.3950  -29.9460    7.1140 C.ar  134  TRP134      0.0946
     42  CD2       74.3480  -30.5700    7.8520 C.ar  134  TRP134      0.0152
     43  NE1       76.5540  -30.6030    8.3010 N.ar  134  TRP134     -0.2442
     44  CE2       75.3330  -30.9930    8.7870 C.ar  134  TRP134      0.0810
     45  CE3       72.9890  -30.8480    8.1290 C.ar  134  TRP134      0.0012
     46  CZ2       75.0050  -31.6940    9.9810 C.ar  134  TRP134      0.0191
     47  CZ3       72.6620  -31.5540    9.3320 C.ar  134  TRP134      0.0001
     48  CH2       73.6750  -31.9640   10.2350 C.ar  134  TRP134      0.0015
     49  N         71.1640  -31.3980    1.4060 N.3   136  LYS136     -0.1227
     50  CA        70.1930  -32.4790    1.2190 C.3   136  LYS136      0.1736
     51  C         69.3300  -32.5650    2.5080 C.2   136  LYS136      0.2595
     52  O         68.1560  -32.8310    2.4430 O.2   136  LYS136     -0.2718
     53  CB        70.9640  -33.7800    0.8610 C.3   136  LYS136      0.0541
     54  CG        70.1290  -35.0900    0.7320 C.2   136  LYS136     -0.0272
     55  CD        69.3000  -35.2610   -0.5770 C.2   136  LYS136     -0.0103
     56  CE        68.5350  -36.5870   -0.7250 C.3   136  LYS136      0.1350
     57  NZ        69.0420  -37.6390    0.2300 N.3   136  LYS136     -0.1262
     58  N         69.9100  -32.2990    3.6820 N.am  137  TYR137     -0.1976
     59  CA        69.1210  -32.2000    4.8770 C.3   137  TYR137      0.1639
     60  C         68.0890  -31.0510    4.8050 C.2   137  TYR137      0.2290
     61  O         66.8970  -31.2780    5.1120 O.2   137  TYR137     -0.2864
     62  CB        70.0290  -31.9900    6.0910 C.3   137  TYR137      0.0560
     63  CG        69.2510  -31.8020    7.4240 C.ar  137  TYR137     -0.0198
     64  CD1       68.6430  -32.9150    8.0640 C.ar  137  TYR137     -0.0009
     65  CD2       69.0970  -30.5100    8.0240 C.ar  137  TYR137     -0.0009
     66  CE1       67.9580  -32.7660    9.2470 C.ar  137  TYR137      0.0417
     67  CE2       68.4150  -30.3670    9.2170 C.ar  137  TYR137      0.0417
     68  CZ        67.8540  -31.5200    9.8140 C.ar  137  TYR137      0.1957
     69  OH        67.1450  -31.4640   10.9920 O.3   137  TYR137     -0.2866
     70  N         65.3160  -31.9200    2.4420 N.3   140  GLU140     -0.1245
     71  CA        64.4690  -33.0470    2.8520 C.3   140  GLU140      0.1567
     72  C         63.5600  -32.6340    3.9600 C.2   140  GLU140      0.2260
     73  O         62.3960  -33.0280    3.9810 O.2   140  GLU140     -0.2867
     74  CB        65.3070  -34.2450    3.3750 C.3   140  GLU140      0.0388
     75  CG        66.0370  -35.1440    2.3480 C.3   140  GLU140      0.1160
     76  CD        65.1560  -35.7590    1.2330 C.2   140  GLU140      0.3649
     77  OE1       65.7800  -36.4400    0.4060 O.co2 140  GLU140     -0.2457
     78  OE2       63.9050  -35.5710    1.1400 O.co2 140  GLU140     -0.2457
     79  N         77.6200  -35.0740   13.3820 N.3   164  PHE164     -0.1241
     80  CA        78.2070  -35.8790   12.4060 C.3   164  PHE164      0.1605
     81  C         79.7240  -35.8240   12.4640 C.2   164  PHE164      0.2264
     82  O         80.3770  -36.8490   12.2630 O.2   164  PHE164     -0.2867
     83  CB        77.6210  -35.5190   11.0700 C.3   164  PHE164      0.0534
     84  CG        76.2600  -36.0840   10.8900 C.ar  164  PHE164     -0.0203
     85  CD1       76.0640  -37.2380   10.1170 C.ar  164  PHE164     -0.0042
     86  CD2       75.1760  -35.5190   11.5420 C.ar  164  PHE164     -0.0042
     87  CE1       74.8030  -37.7890    9.9760 C.ar  164  PHE164     -0.0003
     88  CE2       73.9060  -36.0720   11.4040 C.ar  164  PHE164     -0.0003
     89  CZ        73.7190  -37.2010   10.6210 C.ar  164  PHE164     -0.0000
     90  N         69.9010  -38.3580   16.1260 N.3   181  ILE181     -0.1245
     91  CA        68.9580  -38.2340   15.0620 C.3   181  ILE181      0.1561
     92  C         67.5440  -38.2690   15.5990 C.2   181  ILE181      0.2260
     93  O         66.7080  -37.5270   15.1280 O.2   181  ILE181     -0.2867
     94  CB        69.2160  -39.3330   14.0300 C.3   181  ILE181      0.0252
     95  CG1       70.2350  -38.8070   13.0470 C.3   181  ILE181      0.0019
     96  CG2       67.9340  -39.8190   13.3580 C.3   181  ILE181      0.0019
     97  CD1       70.9420  -39.8870   12.2620 C.3   181  ILE181      0.0001
     98  N         67.0480  -34.8740   17.1410 N.3   184  MET184     -0.1196
     99  CA        66.9500  -33.9290   16.0390 C.3   184  MET184      0.1786
    100  C         65.5190  -33.9700   15.5440 C.2   184  MET184      0.2306
    101  O         64.8860  -32.9300   15.4400 O.2   184  MET184     -0.2863
    102  CB        67.8680  -34.3030   14.8680 C.2   184  MET184      0.0070
    103  CG        69.3710  -34.1110   15.0380 C.2   184  MET184      0.0282
    104  SD        70.4690  -34.6750   13.6860 S.3   184  MET184     -0.1125
    105  CE        69.8380  -33.9060   12.1690 C.3   184  MET184      0.0742
@<TRIPOS>BOND
     1    56    55    1
     2    56    57    1
     3    55    54    2
     4    77    76   ar
     5    54    53    1
     6    53    50    1
     7    78    76   ar
     8    50    49    1
     9    50    51    1
    10    76    75    1
    11    24    25    1
    12    75    74    1
    13    70    71    1
    14    52    51    2
    15    51    58   am
    16    71    74    1
    17    71    72    1
    18    25    26    1
    19    25    28    1
    20    26    27    2
    21    26    35   am
    22    58    59    1
    23    37    38    2
    24    37    36    1
    25    28    29    1
    26    72    73    2
    27    35    36    1
    28     8     6    1
    29    36    39    1
    30    60    59    1
    31    60    61    2
    32    30    29   ar
    33    30    32   ar
    34    59    62    1
    35    29    31   ar
    36     6     5    1
    37     6     7    1
    38    39    40    1
    39     2     1    1
    40     2     5    1
    41     2     3    1
    42    32    34   ar
    43    16    17    1
    44    19    18    2
    45    62    63    1
    46    31    33   ar
    47    17    18    1
    48    17    20    1
    49    23    21    1
    50    40    41   ar
    51    40    42   ar
    52     3     4    2
    53    34    33   ar
    54    41    43   ar
    55    21    20    1
    56    21    22    1
    57    63    65   ar
    58    63    64   ar
    59    42    45   ar
    60    42    44   ar
    61    65    67   ar
    62    64    66   ar
    63    45    47   ar
    64    43    44   ar
    65     9    10    1
    66     9    15    1
    67    11    10    1
    68    11    12    2
    69    10    13    1
    70    44    46   ar
    71    67    68   ar
    72    66    68   ar
    73    47    48   ar
    74    15    14    1
    75    68    69    1
    76    87    85   ar
    77    87    89   ar
    78    46    48   ar
    79    85    84   ar
    80    13    14    1
    81    89    88   ar
    82    84    83    1
    83    84    86   ar
    84    83    80    1
    85    88    86   ar
    86   105   104    1
    87    97    95    1
    88    82    81    2
    89    80    81    1
    90    80    79    1
    91    95    94    1
    92    96    94    1
    93   104   103    1
    94    94    91    1
    95   102   103    2
    96   102    99    1
    97    91    92    1
    98    91    90    1
    99    93    92    2
   100   101   100    2
   101   100    99    1
   102    99    98    1
