@<TRIPOS>MOLECULE
tmp/4lufA01.pdb
 142 130 0 0 0
SMALL
GASTEIGER

@<TRIPOS>ATOM
      1  N         46.9510   -9.5970   13.6270 N.3   208  ARG208     -0.1231
      2  CA        46.6250   -9.2490   15.0360 C.3   208  ARG208      0.1694
      3  C         46.5170  -10.4610   15.9750 C.2   208  ARG208      0.2591
      4  O         46.8920  -10.3940   17.1460 O.2   208  ARG208     -0.2718
      5  CB        45.3750   -8.3780   15.1160 C.3   208  ARG208      0.0321
      6  CG        45.4520   -7.0840   14.2680 C.3   208  ARG208      0.0489
      7  CD        46.5870   -6.0960   14.6370 C.3   208  ARG208      0.2205
      8  NE        46.5390   -4.8450   13.8680 N.pl3 208  ARG208     -0.0865
      9  CZ        47.1550   -4.6280   12.6940 C.cat 208  ARG208      0.5346
     10  NH1       47.8970   -5.5890   12.1220 N.pl3 208  ARG208      0.1354
     11  NH2       47.0350   -3.4340   12.0870 N.pl3 208  ARG208      0.1354
     12  N         46.0250  -11.5980   15.4720 N.am  209  ALA209     -0.1980
     13  CA        45.9090  -12.7780   16.3300 C.3   209  ALA209      0.1597
     14  C         47.2970  -13.1450   16.7550 C.2   209  ALA209      0.2287
     15  O         47.5320  -13.3290   17.9310 O.2   209  ALA209     -0.2864
     16  CB        45.2340  -13.9370   15.6280 C.3   209  ALA209      0.0319
     17  N         49.9460  -11.2850   16.9140 N.3   211  LYS211     -0.1231
     18  CA        50.4580  -10.2610   17.8270 C.3   211  LYS211      0.1693
     19  C         50.0010  -10.4090   19.2830 C.2   211  LYS211      0.2591
     20  O         50.8290  -10.3980   20.1970 O.2   211  LYS211     -0.2718
     21  CB        50.1110   -8.8650   17.3240 C.3   211  LYS211      0.0285
     22  CG        50.9560   -8.4320   16.1350 C.3   211  LYS211      0.0035
     23  CD        50.3760   -7.1470   15.5320 C.3   211  LYS211      0.0206
     24  CE        51.2430   -6.7410   14.3390 C.3   211  LYS211      0.1093
     25  NZ        50.7580   -5.4160   13.8680 N.3   211  LYS211     -0.1314
     26  N         48.7040  -10.5870   19.5020 N.am  212  ALA212     -0.1980
     27  CA        48.1710  -10.7830   20.8200 C.3   212  ALA212      0.1597
     28  C         48.8870  -11.9200   21.5080 C.2   212  ALA212      0.2287
     29  O         49.3370  -11.8320   22.6500 O.2   212  ALA212     -0.2864
     30  CB        46.6620  -11.1190   20.7120 C.3   212  ALA212      0.0319
     31  N         52.3950  -10.9970   22.3870 N.3   215  VAL215     -0.1245
     32  CA        52.4630  -10.0520   23.4800 C.3   215  VAL215      0.1561
     33  C         52.4210  -10.7790   24.7900 C.2   215  VAL215      0.2260
     34  O         53.2550  -10.5450   25.6620 O.2   215  VAL215     -0.2867
     35  CB        51.2890   -9.0810   23.4000 C.3   215  VAL215      0.0252
     36  CG1       51.0260   -8.4280   24.7640 C.3   215  VAL215      0.0019
     37  CG2       51.6420   -7.9990   22.3630 C.3   215  VAL215      0.0019
     38  N         55.7630   -2.0730   28.3560 N.3   227  PHE227     -0.1241
     39  CA        54.7480   -2.5510   27.4350 C.3   227  PHE227      0.1605
     40  C         55.2180   -2.1460   26.0010 C.2   227  PHE227      0.2264
     41  O         55.1560   -2.9130   25.0400 O.2   227  PHE227     -0.2867
     42  CB        53.4540   -1.8430   27.8100 C.3   227  PHE227      0.0534
     43  CG        52.2860   -2.2130   26.9460 C.ar  227  PHE227     -0.0203
     44  CD1       52.0570   -3.5270   26.5650 C.ar  227  PHE227     -0.0042
     45  CD2       51.3970   -1.2350   26.5100 C.ar  227  PHE227     -0.0042
     46  CE1       50.9740   -3.8690   25.7730 C.ar  227  PHE227     -0.0003
     47  CE2       50.3130   -1.5720   25.7100 C.ar  227  PHE227     -0.0003
     48  CZ        50.1000   -2.9060   25.3470 C.ar  227  PHE227     -0.0000
     49  N         55.8050   -4.4830   22.7010 N.3   231  THR231     -0.1218
     50  CA        55.0240   -4.1270   21.5320 C.3   231  THR231      0.1862
     51  C         55.8910   -3.9680   20.2750 C.2   231  THR231      0.2287
     52  O         55.6010   -4.4970   19.1530 O.2   231  THR231     -0.2866
     53  CB        54.3460   -2.8400   22.0270 C.3   231  THR231      0.1770
     54  OG1       53.0600   -3.2630   22.4980 O.3   231  THR231     -0.2211
     55  CG2       54.2350   -1.8570   21.0800 C.3   231  THR231      0.0375
     56  N         57.2730   -7.4510   19.4750 N.3   234  VAL234     -0.1231
     57  CA        56.2660   -8.3730   18.9200 C.3   234  VAL234      0.1692
     58  C         55.9370   -8.0260   17.4750 C.2   234  VAL234      0.2592
     59  O         55.8220   -8.9120   16.6030 O.2   234  VAL234     -0.2718
     60  CB        54.9890   -8.3580   19.7660 C.3   234  VAL234      0.0266
     61  CG1       53.7600   -8.8490   18.9470 C.3   234  VAL234      0.0020
     62  CG2       55.2600   -9.1950   21.0340 C.3   234  VAL234      0.0020
     63  N         55.8490   -6.7340   17.1940 N.am  235  THR235     -0.1953
     64  CA        55.5570   -6.3330   15.8620 C.3   235  THR235      0.1897
     65  C         56.6760   -6.6990   14.9280 C.2   235  THR235      0.2313
     66  O         56.4050   -7.2990   13.8680 O.2   235  THR235     -0.2863
     67  CB        55.2750   -4.8240   15.7770 C.3   235  THR235      0.1794
     68  OG1       54.1090   -4.5580   16.5700 O.3   235  THR235     -0.2208
     69  CG2       54.9670   -4.4330   14.3640 C.3   235  THR235      0.0378
     70  N         41.5610   -0.8330   22.9000 N.3   323  ASP323     -0.1225
     71  CA        42.4830   -1.8530   22.4190 C.3   323  ASP323      0.1805
     72  C         43.7950   -1.7770   23.1270 C.2   323  ASP323      0.2597
     73  O         44.3630   -2.7990   23.4560 O.2   323  ASP323     -0.2718
     74  CB        42.7260   -1.6890   20.9340 C.3   323  ASP323      0.1424
     75  CG        41.5730   -2.1480   20.1140 C.2   323  ASP323      0.3668
     76  OD1       41.5500   -1.7080   18.9530 O.co2 323  ASP323     -0.2456
     77  OD2       40.7160   -2.9520   20.5920 O.co2 323  ASP323     -0.2456
     78  N         44.2740   -0.5600   23.3190 N.am  324  VAL324     -0.1980
     79  CA        45.4470   -0.2910   24.1520 C.3   324  VAL324      0.1595
     80  C         45.2410   -0.7080   25.5970 C.2   324  VAL324      0.2287
     81  O         46.1140   -1.3010   26.2140 O.2   324  VAL324     -0.2864
     82  CB        45.7370    1.2130   24.1540 C.3   324  VAL324      0.0276
     83  CG1       46.8560    1.5340   25.1250 C.3   324  VAL324      0.0022
     84  CG2       46.0450    1.6740   22.7410 C.3   324  VAL324      0.0022
     85  N         43.1780   -3.0590   26.7890 N.3   326  LEU326     -0.1231
     86  CA        43.1480   -4.5270   26.8870 C.3   326  LEU326      0.1693
     87  C         44.5290   -5.0830   26.6230 C.2   326  LEU326      0.2592
     88  O         44.9550   -6.0780   27.2150 O.2   326  LEU326     -0.2718
     89  CB        42.1820   -5.1300   25.8610 C.3   326  LEU326      0.0284
     90  CG        40.7490   -4.8090   26.2730 C.3   326  LEU326      0.0019
     91  CD1       39.7710   -5.1700   25.1490 C.3   326  LEU326      0.0001
     92  CD2       40.3360   -5.4620   27.5810 C.3   326  LEU326      0.0001
     93  N         45.2540   -4.4310   25.7350 N.am  327  GLY327     -0.1957
     94  CA        46.6330   -4.8730   25.3990 C.3   327  GLY327      0.1869
     95  C         47.4360   -4.7350   26.6740 C.2   327  GLY327      0.2309
     96  O         48.2290   -5.6080   27.0810 O.2   327  GLY327     -0.2863
     97  N         46.5460   -7.2780   29.1680 N.3   330  LEU330     -0.1245
     98  CA        47.1290   -8.5570   28.7710 C.3   330  LEU330      0.1561
     99  C         48.6080   -8.5930   29.2030 C.2   330  LEU330      0.2260
    100  O         49.1200   -9.6160   29.7160 O.2   330  LEU330     -0.2867
    101  CB        46.9820   -8.7870   27.2450 C.3   330  LEU330      0.0270
    102  CG        47.6720  -10.0590   26.7160 C.3   330  LEU330      0.0019
    103  CD1       47.1110  -11.3840   27.2580 C.3   330  LEU330      0.0001
    104  CD2       47.5850  -10.0670   25.2190 C.3   330  LEU330      0.0001
    105  N         44.9870  -15.0620   27.1430 N.3   346  LEU346     -0.1245
    106  CA        44.2070  -14.3930   26.1280 C.3   346  LEU346      0.1561
    107  C         42.7550  -14.5650   26.4760 C.2   346  LEU346      0.2260
    108  O         41.9760  -13.6190   26.3820 O.2   346  LEU346     -0.2867
    109  CB        44.5390  -14.9010   24.7350 C.3   346  LEU346      0.0270
    110  CG        45.9280  -14.4650   24.2520 C.3   346  LEU346      0.0019
    111  CD1       46.4660  -15.3280   23.1320 C.3   346  LEU346      0.0001
    112  CD2       45.8970  -13.0120   23.8060 C.3   346  LEU346      0.0001
    113  N         41.8720  -12.1030   29.0330 N.3   349  ALA349     -0.1231
    114  CA        41.7100  -10.7370   28.5740 C.3   349  ALA349      0.1694
    115  C         40.3540  -10.6100   27.8860 C.2   349  ALA349      0.2591
    116  O         39.6570   -9.5920   28.0580 O.2   349  ALA349     -0.2718
    117  CB        42.8590  -10.3280   27.6570 C.3   349  ALA349      0.0304
    118  N         39.9590  -11.6260   27.1250 N.am  350  LYS350     -0.1980
    119  CA        38.6360  -11.6020   26.4810 C.3   350  LYS350      0.1596
    120  C         37.4870  -11.5220   27.4930 C.2   350  LYS350      0.2287
    121  O         36.5810  -10.6860   27.3700 O.2   350  LYS350     -0.2864
    122  CB        38.3840  -12.8360   25.6280 C.3   350  LYS350      0.0298
    123  CG        38.5420  -12.6240   24.1290 C.3   350  LYS350      0.0038
    124  CD        39.1120  -13.8490   23.4270 C.3   350  LYS350      0.0206
    125  CE        38.2050  -15.0750   23.5540 C.3   350  LYS350      0.1093
    126  NZ        36.9830  -14.8370   22.7500 N.3   350  LYS350     -0.1314
    127  N         37.3780   -8.1120   28.8050 N.3   353  GLU353     -0.1245
    128  CA        36.6850   -7.2810   27.8270 C.3   353  GLU353      0.1567
    129  C         35.1330   -7.3620   27.9860 C.2   353  GLU353      0.2260
    130  O         34.4470   -6.3290   28.1710 O.2   353  GLU353     -0.2867
    131  CB        37.1230   -7.6140   26.4000 C.3   353  GLU353      0.0388
    132  CG        36.3200   -6.8140   25.3820 C.3   353  GLU353      0.1160
    133  CD        36.8640   -6.8780   23.9670 C.2   353  GLU353      0.3649
    134  OE1       37.2190   -7.9670   23.5160 O.co2 353  GLU353     -0.2457
    135  OE2       36.9180   -5.8160   23.2800 O.co2 353  GLU353     -0.2457
    136  N         41.6020  -18.7540   20.1450 N.3   481  VAL481     -0.1245
    137  CA        41.8700  -18.7710   21.5390 C.3   481  VAL481      0.1561
    138  C         41.0580  -19.8410   22.2470 C.2   481  VAL481      0.2260
    139  O         41.5490  -20.5110   23.1640 O.2   481  VAL481     -0.2867
    140  CB        41.6210  -17.3430   22.0390 C.3   481  VAL481      0.0252
    141  CG1       41.2470  -17.2640   23.4860 C.3   481  VAL481      0.0019
    142  CG2       42.8620  -16.5770   21.7400 C.3   481  VAL481      0.0019
@<TRIPOS>BOND
     1    11     9    1
     2    10     9    1
     3     9     8    2
     4     1     2    1
     5    25    24    1
     6     8     7    1
     7    66    65    2
     8     6     7    1
     9     6     5    1
    10    24    23    1
    11    69    67    1
    12    65    64    1
    13     2     5    1
    14     2     3    1
    15    12     3   am
    16    12    13    1
    17    23    22    1
    18    16    13    1
    19    67    64    1
    20    67    68    1
    21    64    63    1
    22     3     4    2
    23    22    21    1
    24    13    14    1
    25    59    58    2
    26    14    15    2
    27    17    18    1
    28    63    58   am
    29    21    18    1
    30    58    57    1
    31    18    19    1
    32    57    56    1
    33    57    60    1
    34    61    60    1
    35    76    75   ar
    36    52    51    2
    37    19    26   am
    38    19    20    2
    39    26    27    1
    40    60    62    1
    41    75    77   ar
    42    75    74    1
    43   136   137    1
    44    51    50    1
    45    30    27    1
    46    27    28    1
    47    74    71    1
    48    55    53    1
    49    28    29    2
    50    50    53    1
    51    50    49    1
    52   137   140    1
    53   137   138    1
    54   142   140    1
    55    53    54    1
    56   140   141    1
    57   138   139    2
    58    37    35    1
    59    31    32    1
    60    71    70    1
    61    71    72    1
    62    84    82    1
    63   126   125    1
    64    72    78   am
    65    72    73    2
    66   111   110    1
    67   135   133   ar
    68    78    79    1
    69    35    32    1
    70    35    36    1
    71   124   125    1
    72   124   123    1
    73    32    33    1
    74   134   133   ar
    75   112   110    1
    76   133   132    1
    77   123   122    1
    78    79    82    1
    79    79    80    1
    80    82    83    1
    81   110   109    1
    82   109   106    1
    83    33    34    2
    84    41    40    2
    85    91    90    1
    86   104   102    1
    87    48    47   ar
    88    48    46   ar
    89   132   131    1
    90    94    93    1
    91    94    95    1
    92    80    81    2
    93   122   119    1
    94    47    45   ar
    95    93    87   am
    96    46    44   ar
    97    89    90    1
    98    89    86    1
    99    40    39    1
   100   106   107    1
   101   106   105    1
   102    90    92    1
   103   108   107    2
   104   131   128    1
   105   119   118    1
   106   119   120    1
   107    45    43   ar
   108    44    43   ar
   109    87    86    1
   110    87    88    2
   111    95    96    2
   112   102   101    1
   113   102   103    1
   114    85    86    1
   115    43    42    1
   116   118   115   am
   117   101    98    1
   118   121   120    2
   119    39    42    1
   120    39    38    1
   121   117   114    1
   122   128   129    1
   123   128   127    1
   124   115   116    2
   125   115   114    1
   126   129   130    2
   127   114   113    1
   128    98    97    1
   129    98    99    1
   130    99   100    2
