@<TRIPOS>MOLECULE
tmp/4lufA08.pdb
 90 85 0 0 0
SMALL
GASTEIGER

@<TRIPOS>ATOM
      1  N         62.3890  -41.0660    5.7500 N.3   115  LEU115     -0.1245
      2  CA        63.8520  -41.1250    5.7480 C.3   115  LEU115      0.1561
      3  C         64.3160  -42.1460    6.7980 C.2   115  LEU115      0.2260
      4  O         64.1170  -41.9570    7.9990 O.2   115  LEU115     -0.2867
      5  CB        64.4270  -39.7620    6.1320 C.3   115  LEU115      0.0270
      6  CG        64.0590  -38.4430    5.4280 C.3   115  LEU115      0.0019
      7  CD1       64.2460  -37.2100    6.3600 C.3   115  LEU115      0.0001
      8  CD2       64.8090  -38.3670    4.0800 C.3   115  LEU115      0.0001
      9  N         69.9100  -32.2990    3.6820 N.3   137  TYR137     -0.1241
     10  CA        69.1210  -32.2000    4.8770 C.3   137  TYR137      0.1605
     11  C         68.0890  -31.0510    4.8050 C.2   137  TYR137      0.2264
     12  O         66.8970  -31.2780    5.1120 O.2   137  TYR137     -0.2867
     13  CB        70.0290  -31.9900    6.0910 C.3   137  TYR137      0.0534
     14  CG        69.2510  -31.8020    7.4240 C.ar  137  TYR137     -0.0201
     15  CD1       68.6430  -32.9150    8.0640 C.ar  137  TYR137     -0.0009
     16  CD2       69.0970  -30.5100    8.0240 C.ar  137  TYR137     -0.0009
     17  CE1       67.9580  -32.7660    9.2470 C.ar  137  TYR137      0.0417
     18  CE2       68.4150  -30.3670    9.2170 C.ar  137  TYR137      0.0417
     19  CZ        67.8540  -31.5200    9.8140 C.ar  137  TYR137      0.1957
     20  OH        67.1450  -31.4640   10.9920 O.3   137  TYR137     -0.2866
     21  N         64.0390  -31.7980    4.8770 N.3   141  VAL141     -0.1245
     22  CA        63.1050  -31.3180    5.9080 C.3   141  VAL141      0.1561
     23  C         62.1620  -30.3040    5.2740 C.2   141  VAL141      0.2260
     24  O         60.9350  -30.2950    5.5240 O.2   141  VAL141     -0.2867
     25  CB        63.8750  -30.6820    7.0750 C.3   141  VAL141      0.0252
     26  CG1       62.9640  -29.9540    8.0280 C.3   141  VAL141      0.0019
     27  CG2       64.6920  -31.7210    7.8170 C.3   141  VAL141      0.0019
     28  N         59.1980  -31.5610    3.2790 N.3   144  ARG144     -0.1231
     29  CA        58.2250  -32.2270    4.1040 C.3   144  ARG144      0.1694
     30  C         57.4080  -31.2910    4.9570 C.2   144  ARG144      0.2592
     31  O         56.3250  -31.6700    5.4440 O.2   144  ARG144     -0.2718
     32  CB        58.9440  -33.2180    5.0080 C.3   144  ARG144      0.0321
     33  CG        59.0510  -34.5530    4.2990 C.3   144  ARG144      0.0489
     34  CD        60.1110  -35.3810    4.9310 C.3   144  ARG144      0.2205
     35  NE        60.2460  -36.6400    4.2060 N.pl3 144  ARG144     -0.0865
     36  CZ        61.1390  -36.8070    3.2590 C.cat 144  ARG144      0.5346
     37  NH1       61.9670  -35.7890    2.9810 N.pl3 144  ARG144      0.1354
     38  NH2       61.2230  -37.9700    2.6170 N.pl3 144  ARG144      0.1354
     39  N         57.9520  -30.0850    5.1540 N.am  145  HIS145     -0.1976
     40  CA        57.4210  -29.1330    6.1300 C.3   145  HIS145      0.1656
     41  C         57.4850  -27.8070    5.4520 C.2   145  HIS145      0.2291
     42  O         58.3220  -26.9820    5.7660 O.2   145  HIS145     -0.2864
     43  CB        58.2760  -29.1160    7.3830 C.3   145  HIS145      0.0771
     44  CG        58.2850  -30.4370    8.0590 C.ar  145  HIS145      0.0820
     45  ND1       57.2570  -30.8520    8.8770 N.ar  145  HIS145     -0.2267
     46  CD2       59.1670  -31.4700    7.9910 C.ar  145  HIS145      0.1154
     47  CE1       57.4880  -32.1010    9.2520 C.ar  145  HIS145      0.1986
     48  NE2       58.6450  -32.4900    8.7360 N.ar  145  HIS145     -0.2212
     49  N         69.9010  -38.3580   16.1260 N.3   181  ILE181     -0.1245
     50  CA        68.9580  -38.2340   15.0620 C.3   181  ILE181      0.1561
     51  C         67.5440  -38.2690   15.5990 C.2   181  ILE181      0.2260
     52  O         66.7080  -37.5270   15.1280 O.2   181  ILE181     -0.2867
     53  CB        69.2160  -39.3330   14.0300 C.3   181  ILE181      0.0252
     54  CG1       70.2350  -38.8070   13.0470 C.3   181  ILE181      0.0019
     55  CG2       67.9340  -39.8190   13.3580 C.3   181  ILE181      0.0019
     56  CD1       70.9420  -39.8870   12.2620 C.3   181  ILE181      0.0001
     57  N         67.0480  -34.8740   17.1410 N.3   184  MET184     -0.1182
     58  CA        66.9500  -33.9290   16.0390 C.3   184  MET184      0.1917
     59  C         65.5190  -33.9700   15.5440 C.2   184  MET184      0.2634
     60  O         64.8860  -32.9300   15.4400 O.2   184  MET184     -0.2714
     61  CB        67.8680  -34.3030   14.8680 C.2   184  MET184      0.0083
     62  CG        69.3710  -34.1110   15.0380 C.2   184  MET184      0.0282
     63  SD        70.4690  -34.6750   13.6860 S.3   184  MET184     -0.1125
     64  CE        69.8380  -33.9060   12.1690 C.3   184  MET184      0.0742
     65  N         65.0260  -35.1780   15.2410 N.am  185  ARG185     -0.1977
     66  CA        63.6800  -35.3600   14.7220 C.3   185  ARG185      0.1597
     67  C         62.5990  -34.8020   15.6650 C.2   185  ARG185      0.2287
     68  O         61.6280  -34.1810   15.2260 O.2   185  ARG185     -0.2864
     69  CB        63.3830  -36.8080   14.4050 C.3   185  ARG185      0.0334
     70  CG        62.1390  -36.9430   13.5450 C.3   185  ARG185      0.0492
     71  CD        61.7990  -38.3770   13.1810 C.3   185  ARG185      0.2205
     72  NE        60.6280  -38.7920   13.9600 N.pl3 185  ARG185     -0.0865
     73  CZ        59.4150  -39.0300   13.4490 C.cat 185  ARG185      0.5346
     74  NH1       59.2120  -38.9310   12.1370 N.pl3 185  ARG185      0.1354
     75  NH2       58.4040  -39.3880   14.2470 N.pl3 185  ARG185      0.1354
     76  N         62.6820  -30.9270   15.4210 N.3   188  VAL188     -0.1231
     77  CA        62.2340  -30.5270   14.0990 C.3   188  VAL188      0.1692
     78  C         60.7140  -30.5490   14.0200 C.2   188  VAL188      0.2591
     79  O         60.0860  -29.5450   13.6250 O.2   188  VAL188     -0.2718
     80  CB        62.9240  -31.3930   13.0280 C.3   188  VAL188      0.0266
     81  CG1       62.1440  -31.4020   11.7370 C.3   188  VAL188      0.0020
     82  CG2       64.3610  -30.9060   12.8390 C.3   188  VAL188      0.0020
     83  N         60.1110  -31.6490   14.4540 N.am  189  LEU189     -0.1980
     84  CA        58.6540  -31.7250   14.3990 C.3   189  LEU189      0.1596
     85  C         57.9860  -30.7140   15.3530 C.2   189  LEU189      0.2287
     86  O         56.9980  -30.0830   15.0090 O.2   189  LEU189     -0.2864
     87  CB        58.1660  -33.1590   14.6650 C.3   189  LEU189      0.0297
     88  CG        58.5890  -34.2300   13.6540 C.3   189  LEU189      0.0022
     89  CD1       58.2850  -35.6030   14.2240 C.3   189  LEU189      0.0001
     90  CD2       57.9580  -34.0850   12.2770 C.3   189  LEU189      0.0001
@<TRIPOS>BOND
     1    38    36    1
     2    37    36    1
     3    36    35    2
     4    28    29    1
     5     9    10    1
     6     8     6    1
     7    29    30    1
     8    29    32    1
     9    35    34    1
    10    33    34    1
    11    33    32    1
    12    11    10    1
    13    11    12    2
    14    10    13    1
    15    21    22    1
    16    30    39   am
    17    30    31    2
    18    39    40    1
    19    23    24    2
    20    23    22    1
    21     6     5    1
    22     6     7    1
    23    41    42    2
    24    41    40    1
    25     2     1    1
    26     2     5    1
    27     2     3    1
    28    22    25    1
    29    13    14    1
    30    40    43    1
    31     3     4    2
    32    25    27    1
    33    25    26    1
    34    43    44    1
    35    14    16   ar
    36    14    15   ar
    37    46    44   ar
    38    46    48   ar
    39    16    18   ar
    40    44    45   ar
    41    15    17   ar
    42    48    47   ar
    43    45    47   ar
    44    18    19   ar
    45    17    19   ar
    46    19    20    1
    47    81    80    1
    48    74    73    1
    49    64    63    1
    50    56    54    1
    51    90    88    1
    52    82    80    1
    53    80    77    1
    54    54    53    1
    55    71    70    1
    56    71    72    1
    57    55    53    1
    58    73    72    2
    59    73    75    1
    60    70    69    1
    61    79    78    2
    62    88    89    1
    63    88    87    1
    64    63    62    1
    65    78    77    1
    66    78    83   am
    67    53    50    1
    68    77    76    1
    69    84    83    1
    70    84    87    1
    71    84    85    1
    72    69    66    1
    73    66    65    1
    74    66    67    1
    75    61    62    2
    76    61    58    1
    77    86    85    2
    78    50    51    1
    79    50    49    1
    80    52    51    2
    81    68    67    2
    82    65    59   am
    83    60    59    2
    84    59    58    1
    85    58    57    1
