@<TRIPOS>MOLECULE
tmp/4lufA00.pdb
 154 145 0 0 0
SMALL
GASTEIGER

@<TRIPOS>ATOM
      1  N         76.7180  -18.5080    1.9740 N.3    17  GLU17      -0.1231
      2  CA        76.2620  -19.7950    2.5050 C.3    17  GLU17       0.1699
      3  C         74.7910  -19.7180    2.9210 C.2    17  GLU17       0.2592
      4  O         73.9290  -20.5210    2.4850 O.2    17  GLU17      -0.2718
      5  CB        77.1770  -20.2300    3.6640 C.3    17  GLU17       0.0402
      6  CG        76.8390  -21.5690    4.3260 C.3    17  GLU17       0.1161
      7  CD        77.7760  -21.9610    5.4860 C.2    17  GLU17       0.3649
      8  OE1       77.3060  -22.6000    6.4560 O.co2  17  GLU17      -0.2457
      9  OE2       78.9820  -21.6510    5.4330 O.co2  17  GLU17      -0.2457
     10  N         74.4770  -18.7220    3.7430 N.am   18  ASN18      -0.1974
     11  CA        73.0960  -18.5160    4.1910 C.3    18  ASN18       0.1688
     12  C         72.1900  -18.1640    3.0450 C.2    18  ASN18       0.2292
     13  O         71.0370  -18.6810    2.9630 O.2    18  ASN18      -0.2864
     14  CB        73.0580  -17.4800    5.2990 C.3    18  ASN18       0.1181
     15  CG        73.6230  -18.0440    6.6200 C.2    18  ASN18       0.2629
     16  OD1       73.8310  -19.2680    6.7490 O.2    18  ASN18      -0.2716
     17  ND2       73.8160  -17.1700    7.6150 N.am   18  ASN18      -0.0877
     18  N         72.3280  -19.1210   -0.0140 N.3    20  GLN20      -0.1231
     19  CA        72.0500  -20.3410   -0.7200 C.3    20  GLN20       0.1698
     20  C         71.1990  -21.3050    0.0840 C.2    20  GLN20       0.2592
     21  O         70.3160  -21.9790   -0.4350 O.2    20  GLN20      -0.2718
     22  CB        73.3760  -21.0180   -1.0590 C.3    20  GLN20       0.0381
     23  CG        74.0740  -20.3280   -2.1870 C.3    20  GLN20       0.0905
     24  CD        75.2100  -21.1490   -2.7490 C.2    20  GLN20       0.2608
     25  OE1       76.0750  -21.5410   -2.0350 O.2    20  GLN20      -0.2717
     26  NE2       75.2300  -21.3460   -4.0440 N.am   20  GLN20      -0.0878
     27  N         71.4610  -21.4170    1.3680 N.am   21  GLY21      -0.1957
     28  CA        70.6210  -22.3350    2.0880 C.3    21  GLY21       0.1869
     29  C         69.2150  -21.8090    2.1040 C.2    21  GLY21       0.2309
     30  O         68.2690  -22.6180    2.0250 O.2    21  GLY21      -0.2863
     31  N         67.5680  -22.4330   -1.2620 N.3    24  LEU24      -0.1301
     32  CA        67.2880  -23.8550   -1.3470 C.3    24  LEU24       0.1247
     33  C         66.0280  -24.2570   -0.5980 C.3    24  LEU24       0.2009
     34  O         65.1310  -25.0370   -1.1240 O.3    24  LEU24      -0.2188
     35  CB        68.4920  -24.6360   -0.7730 C.3    24  LEU24       0.0217
     36  CG        68.2840  -26.1650   -0.8340 C.3    24  LEU24       0.0015
     37  CD1       67.9830  -26.6470   -2.2390 C.3    24  LEU24       0.0000
     38  CD2       69.4940  -26.8950   -0.2390 C.3    24  LEU24       0.0000
     39  N         66.4700  -32.8550   -5.3200 N.3    36  PHE36      -0.1241
     40  CA        67.5650  -32.0210   -4.8230 C.3    36  PHE36       0.1605
     41  C         68.3960  -31.4630   -5.9890 C.2    36  PHE36       0.2264
     42  O         68.7180  -30.2540   -6.0370 O.2    36  PHE36      -0.2867
     43  CB        68.4240  -32.8660   -3.8850 C.3    36  PHE36       0.0534
     44  CG        69.5740  -32.1380   -3.3090 C.ar   36  PHE36      -0.0203
     45  CD1       69.3860  -31.0840   -2.4190 C.ar   36  PHE36      -0.0042
     46  CD2       70.8730  -32.5020   -3.6440 C.ar   36  PHE36      -0.0042
     47  CE1       70.4750  -30.3830   -1.8750 C.ar   36  PHE36      -0.0003
     48  CE2       71.9570  -31.8240   -3.1170 C.ar   36  PHE36      -0.0003
     49  CZ        71.7550  -30.7570   -2.2240 C.ar   36  PHE36      -0.0000
     50  N         69.3110  -27.6580   -6.5150 N.3    40  VAL40      -0.1245
     51  CA        70.6880  -27.1550   -6.4810 C.3    40  VAL40       0.1561
     52  C         71.0110  -26.3080   -7.7230 C.2    40  VAL40       0.2260
     53  O         71.7150  -25.2610   -7.6250 O.2    40  VAL40      -0.2867
     54  CB        71.6570  -28.3370   -6.2180 C.3    40  VAL40       0.0252
     55  CG1       73.1020  -27.9440   -6.4110 C.3    40  VAL40       0.0019
     56  CG2       71.4190  -28.8240   -4.8000 C.3    40  VAL40       0.0019
     57  N         69.2790  -22.9550   -7.3490 N.3    43  VAL43      -0.1231
     58  CA        69.9340  -22.1260   -6.3440 C.3    43  VAL43       0.1692
     59  C         71.2360  -21.5320   -6.9320 C.2    43  VAL43       0.2591
     60  O         71.5680  -20.3730   -6.7030 O.2    43  VAL43      -0.2718
     61  CB        70.3260  -22.9600   -5.0580 C.3    43  VAL43       0.0266
     62  CG1       71.3270  -22.1580   -4.1710 C.3    43  VAL43       0.0020
     63  CG2       69.0880  -23.4520   -4.2880 C.3    43  VAL43       0.0020
     64  N         71.9680  -22.3430   -7.6790 N.am   44  LYS44      -0.1980
     65  CA        73.1580  -21.8520   -8.3400 C.3    44  LYS44       0.1596
     66  C         72.8940  -20.7990   -9.4140 C.2    44  LYS44       0.2287
     67  O         73.6630  -19.8300   -9.5050 O.2    44  LYS44      -0.2864
     68  CB        73.9690  -22.9910   -8.9320 C.3    44  LYS44       0.0298
     69  CG        74.9450  -23.5830   -7.9380 C.3    44  LYS44       0.0038
     70  CD        75.6950  -24.6790   -8.6980 C.3    44  LYS44       0.0206
     71  CE        76.5270  -25.6110   -7.8310 C.3    44  LYS44       0.1093
     72  NZ        76.7880  -26.8250   -8.6580 N.3    44  LYS44      -0.1314
     73  N         80.5200  -32.2700    2.9090 N.3   130  GLU130     -0.1231
     74  CA        79.7730  -31.7530    4.0720 C.3   130  GLU130      0.1699
     75  C         78.7190  -30.7950    3.6190 C.2   130  GLU130      0.2592
     76  O         77.6690  -30.7670    4.2280 O.2   130  GLU130     -0.2718
     77  CB        80.6570  -31.0510    5.1210 C.3   130  GLU130      0.0402
     78  CG        81.7470  -31.9590    5.7170 C.3   130  GLU130      0.1161
     79  CD        82.4540  -31.3790    6.9420 C.2   130  GLU130      0.3649
     80  OE1       81.9320  -30.4260    7.5700 O.co2 130  GLU130     -0.2457
     81  OE2       83.5410  -31.8960    7.2770 O.co2 130  GLU130     -0.2457
     82  N         78.9700  -30.0540    2.5410 N.am  131  LYS131     -0.1966
     83  CA        78.0960  -28.9610    2.1530 C.3   131  LYS131      0.1728
     84  C         76.9030  -29.5060    1.3490 C.2   131  LYS131      0.2616
     85  O         75.8160  -28.9950    1.4240 O.2   131  LYS131     -0.2715
     86  CB        78.9030  -27.9090    1.3530 C.3   131  LYS131      0.0311
     87  CG        78.1650  -26.6060    1.1260 C.3   131  LYS131      0.0038
     88  CD        78.6930  -25.9220   -0.1250 C.3   131  LYS131      0.0206
     89  CE        77.7640  -24.8130   -0.6290 C.3   131  LYS131      0.1093
     90  NZ        78.4760  -24.0260   -1.6950 N.3   131  LYS131     -0.1314
     91  N         77.1210  -30.5790    0.6010 N.am  132  LYS132     -0.1977
     92  CA        76.0520  -31.1990   -0.1160 C.3   132  LYS132      0.1596
     93  C         75.1880  -31.9700    0.9010 C.2   132  LYS132      0.2287
     94  O         73.9820  -31.9530    0.8320 O.2   132  LYS132     -0.2864
     95  CB        76.6400  -32.0540   -1.2070 C.3   132  LYS132      0.0298
     96  CG        75.6990  -32.9100   -2.0360 C.3   132  LYS132      0.0038
     97  CD        76.4150  -34.1290   -2.6680 C.3   132  LYS132      0.0206
     98  CE        75.4500  -35.1060   -3.3850 C.3   132  LYS132      0.1093
     99  NZ        74.1310  -35.3390   -2.6630 N.3   132  LYS132     -0.1314
    100  N         74.5400  -31.2450    4.0280 N.3   134  TRP134     -0.1227
    101  CA        73.6530  -30.2950    4.6920 C.3   134  TRP134      0.1737
    102  C         72.5660  -29.7340    3.7960 C.2   134  TRP134      0.2596
    103  O         71.3960  -29.5490    4.2380 O.2   134  TRP134     -0.2718
    104  CB        74.4220  -29.2060    5.4620 C.3   134  TRP134      0.0564
    105  CG        75.0460  -29.8600    6.7860 C.ar  134  TRP134      0.0003
    106  CD1       76.3950  -29.9460    7.1140 C.ar  134  TRP134      0.0946
    107  CD2       74.3480  -30.5700    7.8520 C.ar  134  TRP134      0.0152
    108  NE1       76.5540  -30.6030    8.3010 N.ar  134  TRP134     -0.2442
    109  CE2       75.3330  -30.9930    8.7870 C.ar  134  TRP134      0.0810
    110  CE3       72.9890  -30.8480    8.1290 C.ar  134  TRP134      0.0012
    111  CZ2       75.0050  -31.6940    9.9810 C.ar  134  TRP134      0.0191
    112  CZ3       72.6620  -31.5540    9.3320 C.ar  134  TRP134      0.0001
    113  CH2       73.6750  -31.9640   10.2350 C.ar  134  TRP134      0.0015
    114  N         72.9070  -29.5490    2.5320 N.am  135  GLY135     -0.1957
    115  CA        71.9230  -29.0910    1.5680 C.3   135  GLY135      0.1869
    116  C         70.8010  -30.1240    1.4890 C.2   135  GLY135      0.2309
    117  O         69.6230  -29.7780    1.5490 O.2   135  GLY135     -0.2863
    118  N         68.5290  -29.8410    4.4350 N.3   138  LEU138     -0.1245
    119  CA        67.5760  -28.7000    4.2920 C.3   138  LEU138      0.1561
    120  C         66.4740  -29.0300    3.3030 C.2   138  LEU138      0.2260
    121  O         65.2590  -28.8700    3.5910 O.2   138  LEU138     -0.2867
    122  CB        68.2700  -27.4240    3.7880 C.3   138  LEU138      0.0270
    123  CG        69.4210  -26.8030    4.5840 C.3   138  LEU138      0.0019
    124  CD1       69.9840  -25.5190    3.9320 C.3   138  LEU138      0.0001
    125  CD2       69.0310  -26.5720    6.0490 C.3   138  LEU138      0.0001
    126  N         68.2060  -23.4020    9.0180 N.3   154  LEU154     -0.1245
    127  CA        69.6600  -23.2170    8.7900 C.3   154  LEU154      0.1561
    128  C         70.4170  -23.5170   10.0500 C.2   154  LEU154      0.2260
    129  O         71.4540  -24.1620    9.9830 O.2   154  LEU154     -0.2867
    130  CB        70.0210  -21.8030    8.3980 C.3   154  LEU154      0.0270
    131  CG        69.4140  -21.3030    7.1130 C.3   154  LEU154      0.0019
    132  CD1       69.8920  -19.8660    7.0030 C.3   154  LEU154      0.0001
    133  CD2       69.8850  -22.1210    5.9280 C.3   154  LEU154      0.0001
    134  N         70.9380  -27.3130   10.7970 N.3   157  ALA157     -0.1231
    135  CA        72.0380  -27.8290   10.0180 C.3   157  ALA157      0.1694
    136  C         73.3780  -27.4300   10.6180 C.2   157  ALA157      0.2592
    137  O         74.2830  -28.2300   10.6900 O.2   157  ALA157     -0.2718
    138  CB        71.9170  -27.3630    8.5810 C.3   157  ALA157      0.0304
    139  N         73.5300  -26.2080   11.0730 N.am  158  ASN158     -0.1974
    140  CA        74.7960  -25.8640   11.7070 C.3   158  ASN158      0.1688
    141  C         75.0330  -26.6030   13.0130 C.2   158  ASN158      0.2292
    142  O         76.1640  -26.9800   13.2910 O.2   158  ASN158     -0.2864
    143  CB        74.8840  -24.3760   12.0100 C.3   158  ASN158      0.1181
    144  CG        75.3590  -23.5750   10.8340 C.2   158  ASN158      0.2629
    145  OD1       74.5760  -22.8580   10.2050 O.2   158  ASN158     -0.2716
    146  ND2       76.6590  -23.6700   10.5310 N.am  158  ASN158     -0.0877
    147  N         75.9700  -30.3810   12.9360 N.3   161  ASN161     -0.1240
    148  CA        77.1200  -30.6850   12.1260 C.3   161  ASN161      0.1653
    149  C         78.1090  -31.2870   13.0660 C.2   161  ASN161      0.2266
    150  O         78.8130  -32.2200   12.7150 O.2   161  ASN161     -0.2867
    151  CB        77.6820  -29.4350   11.4760 C.3   161  ASN161      0.1155
    152  CG        78.8450  -29.7390   10.5670 C.2   161  ASN161      0.2627
    153  OD1       78.7430  -30.5080    9.5990 O.2   161  ASN161     -0.2716
    154  ND2       79.9700  -29.1520   10.8820 N.am  161  ASN161     -0.0877
@<TRIPOS>BOND
     1    67    66    2
     2    66    65    1
     3    68    65    1
     4    68    69    1
     5    70    69    1
     6    70    71    1
     7    72    71    1
     8    65    64    1
     9    52    53    2
    10    52    51    1
    11    64    59   am
    12    57    58    1
    13    59    60    2
    14    59    58    1
    15    50    51    1
    16    51    54    1
    17    55    54    1
    18    58    61    1
    19    54    56    1
    20    42    41    2
    21    41    40    1
    22    39    40    1
    23    61    63    1
    24    61    62    1
    25    40    43    1
    26    26    24   am
    27    43    44    1
    28    46    44   ar
    29    46    48   ar
    30    98    97    1
    31    98    99    1
    32    44    45   ar
    33    48    49   ar
    34    24    23    1
    35    24    25    2
    36    97    96    1
    37    45    47   ar
    38    37    36    1
    39    49    47   ar
    40    23    22    1
    41    96    95    1
    42    90    89    1
    43    32    31    1
    44    32    35    1
    45    32    33    1
    46    95    92    1
    47    34    33    1
    48    22    19    1
    49    36    35    1
    50    36    38    1
    51    19    18    1
    52    19    20    1
    53    89    88    1
    54    21    20    2
    55    88    87    1
    56    92    91    1
    57    92    93    1
    58    20    27   am
    59    91    84   am
    60    94    93    2
    61    87    86    1
    62    84    85    2
    63    84    83    1
    64    86    83    1
    65    27    28    1
    66   116   117    2
    67   116   115    1
    68   115   114    1
    69     1     2    1
    70    30    29    2
    71    28    29    1
    72    83    82    1
    73     4     3    2
    74     2     3    1
    75     2     5    1
    76   114   102   am
    77    82    75   am
    78    73    74    1
    79     3    10   am
    80    13    12    2
    81    12    11    1
    82   120   121    2
    83   120   119    1
    84    75    74    1
    85    75    76    2
    86     5     6    1
    87    10    11    1
    88   122   119    1
    89   122   123    1
    90   102   103    2
    91   102   101    1
    92   124   123    1
    93   100   101    1
    94    74    77    1
    95    11    14    1
    96   119   118    1
    97     6     7    1
    98   123   125    1
    99   101   104    1
   100    77    78    1
   101    14    15    1
   102     9     7   ar
   103   104   105    1
   104     7     8   ar
   105    78    79    1
   106   133   131    1
   107    15    16    2
   108    15    17   am
   109   105   106   ar
   110   105   107   ar
   111    79    81   ar
   112    79    80   ar
   113   132   131    1
   114   131   130    1
   115   106   108   ar
   116   107   110   ar
   117   107   109   ar
   118   110   112   ar
   119   108   109   ar
   120   130   127    1
   121   138   135    1
   122   109   111   ar
   123   127   126    1
   124   127   128    1
   125   112   113   ar
   126   153   152    2
   127   111   113   ar
   128   129   128    2
   129   135   136    1
   130   135   134    1
   131   145   144    2
   132   146   144   am
   133   152   154   am
   134   152   151    1
   135   136   137    2
   136   136   139   am
   137   144   143    1
   138   139   140    1
   139   151   148    1
   140   140   143    1
   141   140   141    1
   142   148   147    1
   143   148   149    1
   144   150   149    2
   145   141   142    2
