@<TRIPOS>MOLECULE
tmp/4luhA08.pdb
 75 68 0 0 0
SMALL
GASTEIGER

@<TRIPOS>ATOM
      1  N         47.3720  -45.0790   33.0780 N.3   397  HIS397     -0.1241
      2  CA        47.4160  -46.0490   31.9850 C.3   397  HIS397      0.1621
      3  C         48.6480  -46.0260   31.1370 C.2   397  HIS397      0.2264
      4  O         48.7610  -46.8510   30.2330 O.2   397  HIS397     -0.2867
      5  CB        46.2730  -45.8160   31.0120 C.3   397  HIS397      0.0745
      6  CG        44.9190  -46.0570   31.5910 C.ar  397  HIS397      0.0817
      7  ND1       44.5510  -47.2690   32.1390 N.ar  397  HIS397     -0.2268
      8  CD2       43.8270  -45.2580   31.6630 C.ar  397  HIS397      0.1154
      9  CE1       43.2980  -47.1920   32.5600 C.ar  397  HIS397      0.1986
     10  NE2       42.8350  -45.9860   32.2740 N.ar  397  HIS397     -0.2212
     11  N         48.0610  -46.5880   26.4500 N.3   401  GLY401     -0.1225
     12  CA        46.6840  -46.6560   27.0090 C.3   401  GLY401      0.1811
     13  C         45.9830  -45.2740   26.9740 C.2   401  GLY401      0.2280
     14  O         44.7810  -45.1490   26.6770 O.2   401  GLY401     -0.2866
     15  N         44.8780  -44.5060   23.5780 N.3   404  ASN404     -0.1225
     16  CA        43.7110  -45.2320   23.1890 C.3   404  ASN404      0.1785
     17  C         42.4490  -44.5970   23.7290 C.2   404  ASN404      0.2597
     18  O         41.4100  -44.5830   23.0570 O.2   404  ASN404     -0.2718
     19  CB        43.7920  -46.6930   23.6590 C.3   404  ASN404      0.1169
     20  CG        44.8880  -47.4590   22.9380 C.2   404  ASN404      0.2627
     21  OD1       45.3380  -47.0320   21.9050 O.2   404  ASN404     -0.2716
     22  ND2       45.3440  -48.5840   23.5180 N.am  404  ASN404     -0.0877
     23  N         42.5150  -44.1500   24.9740 N.am  405  ALA405     -0.1979
     24  CA        41.3730  -43.4180   25.5770 C.3   405  ALA405      0.1597
     25  C         41.1070  -42.1650   24.7640 C.2   405  ALA405      0.2287
     26  O         39.9440  -41.7450   24.6740 O.2   405  ALA405     -0.2864
     27  CB        41.6490  -42.9960   27.0250 C.3   405  ALA405      0.0319
     28  N         39.2540  -43.0470   21.5250 N.3   408  VAL408     -0.1245
     29  CA        37.8570  -43.2460   21.7880 C.3   408  VAL408      0.1561
     30  C         37.1510  -41.8770   21.8460 C.2   408  VAL408      0.2260
     31  O         36.1270  -41.6860   21.1670 O.2   408  VAL408     -0.2867
     32  CB        37.6610  -44.1010   23.0460 C.3   408  VAL408      0.0252
     33  CG1       36.2020  -44.1570   23.4330 C.3   408  VAL408      0.0019
     34  CG2       38.1850  -45.4960   22.7630 C.3   408  VAL408      0.0019
     35  N         40.8440  -49.7440   16.3710 N.3   528  LEU528     -0.1245
     36  CA        40.0240  -49.1550   17.4500 C.3   528  LEU528      0.1561
     37  C         39.1520  -48.0440   16.9020 C.2   528  LEU528      0.2260
     38  O         37.9440  -47.9850   17.1740 O.2   528  LEU528     -0.2867
     39  CB        40.8900  -48.6440   18.5940 C.3   528  LEU528      0.0270
     40  CG        40.1750  -48.0040   19.7830 C.3   528  LEU528      0.0019
     41  CD1       39.1140  -48.9650   20.3160 C.3   528  LEU528      0.0001
     42  CD2       41.2280  -47.6220   20.8790 C.3   528  LEU528      0.0001
     43  N         32.9730  -49.5430   27.1410 N.3   540  ASP540     -0.1239
     44  CA        34.3710  -49.8240   27.4540 C.3   540  ASP540      0.1674
     45  C         34.6650  -51.3320   27.4330 C.2   540  ASP540      0.2266
     46  O         35.6540  -51.7730   26.8640 O.2   540  ASP540     -0.2867
     47  CB        34.7350  -49.2280   28.8200 C.3   540  ASP540      0.1410
     48  CG        34.6500  -47.6710   28.8520 C.2   540  ASP540      0.3668
     49  OD1       34.6530  -47.0260   27.7840 O.co2 540  ASP540     -0.2456
     50  OD2       34.5950  -47.0890   29.9570 O.co2 540  ASP540     -0.2456
     51  N         34.7360  -52.6650   23.9800 N.3   543  LEU543     -0.1231
     52  CA        35.9420  -52.2450   23.2380 C.3   543  LEU543      0.1693
     53  C         37.1070  -53.0740   23.7580 C.2   543  LEU543      0.2591
     54  O         37.8920  -53.5580   22.9970 O.2   543  LEU543     -0.2718
     55  CB        36.2210  -50.7450   23.3850 C.3   543  LEU543      0.0284
     56  CG        35.2220  -49.7280   22.8150 C.3   543  LEU543      0.0019
     57  CD1       35.5010  -48.2700   23.2000 C.3   543  LEU543      0.0001
     58  CD2       35.1840  -49.9110   21.2890 C.3   543  LEU543      0.0001
     59  N         37.1820  -53.2930   25.0660 N.am  544  LYS544     -0.1980
     60  CA        38.2830  -54.0320   25.6420 C.3   544  LYS544      0.1596
     61  C         38.2220  -55.4620   25.2030 C.2   544  LYS544      0.2287
     62  O         39.2550  -56.0530   24.8800 O.2   544  LYS544     -0.2864
     63  CB        38.1950  -53.9650   27.1670 C.3   544  LYS544      0.0298
     64  CG        39.5220  -54.1870   27.8660 C.3   544  LYS544      0.0038
     65  CD        39.4440  -53.9250   29.3910 C.3   544  LYS544      0.0206
     66  CE        38.6430  -52.6650   29.8250 C.3   544  LYS544      0.1093
     67  NZ        38.9760  -51.3870   29.1100 N.3   544  LYS544     -0.1314
     68  N         39.5260  -55.7290   21.5070 N.3   547  MET547     -0.1245
     69  CA        40.9910  -55.5130   21.3170 C.3   547  MET547      0.1570
     70  C         41.8620  -56.6160   21.9160 C.2   547  MET547      0.2261
     71  O         42.8920  -57.0440   21.3470 O.2   547  MET547     -0.2867
     72  CB        41.3740  -54.1400   21.8360 C.3   547  MET547      0.0387
     73  CG        40.7230  -52.9900   21.0080 C.3   547  MET547      0.0595
     74  SD        40.8480  -53.1610   19.1960 S.3   547  MET547     -0.1393
     75  CE        42.6140  -52.8880   19.0020 C.3   547  MET547      0.0692
@<TRIPOS>BOND
     1    35    36    1
     2    37    38    2
     3    37    36    1
     4    36    39    1
     5    39    40    1
     6    75    74    1
     7    74    73    1
     8    40    41    1
     9    40    42    1
    10    73    72    1
    11    31    30    2
    12    58    56    1
    13    69    68    1
    14    69    72    1
    15    69    70    1
    16    71    70    2
    17    28    29    1
    18    29    30    1
    19    29    32    1
    20    21    20    2
    21    34    32    1
    22    56    57    1
    23    56    55    1
    24    20    22   am
    25    20    19    1
    26    54    53    2
    27    32    33    1
    28    18    17    2
    29    16    15    1
    30    16    19    1
    31    16    17    1
    32    52    55    1
    33    52    53    1
    34    52    51    1
    35    17    23   am
    36    53    59   am
    37    26    25    2
    38    25    24    1
    39    62    61    2
    40    23    24    1
    41    59    60    1
    42    61    60    1
    43    24    27    1
    44    60    63    1
    45    11    12    1
    46    14    13    2
    47    46    45    2
    48    13    12    1
    49    43    44    1
    50    63    64    1
    51    45    44    1
    52    44    47    1
    53    49    48   ar
    54    64    65    1
    55    47    48    1
    56    48    50   ar
    57    67    66    1
    58    65    66    1
    59     4     3    2
    60     5     6    1
    61     5     2    1
    62     3     2    1
    63     6     8   ar
    64     6     7   ar
    65     8    10   ar
    66     2     1    1
    67     7     9   ar
    68    10     9   ar
