@<TRIPOS>MOLECULE
tmp/4lujA00.pdb
 180 170 0 0 0
SMALL
GASTEIGER

@<TRIPOS>ATOM
      1  N        -32.4520  -19.3550   36.5320 N.3     8  ALA8       -0.1245
      2  CA       -32.4750  -18.2930   35.5260 C.3     8  ALA8        0.1562
      3  C        -31.2670  -17.3920   35.7490 C.2     8  ALA8        0.2260
      4  O        -31.2640  -16.5600   36.6510 O.2     8  ALA8       -0.2867
      5  CB       -33.7590  -17.4800   35.6210 C.3     8  ALA8        0.0290
      6  N        -29.5860  -14.5980   34.9720 N.3    10  ASP10      -0.1239
      7  CA       -29.7040  -13.2960   34.3260 C.3    10  ASP10       0.1674
      8  C        -28.7720  -12.2600   34.9480 C.2    10  ASP10       0.2266
      9  O        -29.1670  -11.1140   35.1930 O.2    10  ASP10      -0.2867
     10  CB       -31.1510  -12.8060   34.3730 C.3    10  ASP10       0.1410
     11  CG       -32.1080  -13.7510   33.6810 C.2    10  ASP10       0.3668
     12  OD1      -31.8230  -14.1670   32.5340 O.co2  10  ASP10      -0.2456
     13  OD2      -33.1500  -14.0840   34.2860 O.co2  10  ASP10      -0.2456
     14  N        -30.9450  -21.8580   32.7460 N.3    32  LYS32      -0.1245
     15  CA       -31.5710  -21.0650   31.6940 C.3    32  LYS32       0.1561
     16  C        -30.7550  -19.7980   31.4740 C.2    32  LYS32       0.2260
     17  O        -30.5660  -18.9900   32.3980 O.2    32  LYS32      -0.2867
     18  CB       -33.0200  -20.7280   32.0740 C.3    32  LYS32       0.0271
     19  CG       -33.8250  -20.0620   30.9520 C.3    32  LYS32       0.0035
     20  CD       -35.2830  -19.8350   31.3760 C.3    32  LYS32       0.0206
     21  CE       -35.4410  -18.6730   32.3560 C.3    32  LYS32       0.1093
     22  NZ       -35.0810  -17.3450   31.7500 N.3    32  LYS32      -0.1314
     23  N        -32.9660  -18.9640   26.6560 N.3    60  ASP60      -0.1239
     24  CA       -34.2410  -18.2850   26.7400 C.3    60  ASP60       0.1674
     25  C        -34.1720  -17.0280   25.9080 C.2    60  ASP60       0.2266
     26  O        -33.9050  -15.9270   26.4120 O.2    60  ASP60      -0.2867
     27  CB       -34.5810  -17.9400   28.1970 C.3    60  ASP60       0.1410
     28  CG       -35.9550  -17.3310   28.3360 C.2    60  ASP60       0.3668
     29  OD1      -36.6610  -17.2010   27.3010 O.co2  60  ASP60      -0.2456
     30  OD2      -36.3420  -16.9770   29.4720 O.co2  60  ASP60      -0.2456
     31  N        -36.7110  -16.0560   23.8060 N.3    62  LYS62      -0.1245
     32  CA       -38.0550  -15.5230   23.5290 C.3    62  LYS62       0.1561
     33  C        -38.2410  -15.3100   22.0300 C.2    62  LYS62       0.2260
     34  O        -38.6510  -14.2270   21.5930 O.2    62  LYS62      -0.2867
     35  CB       -38.2850  -14.1790   24.2710 C.3    62  LYS62       0.0271
     36  CG       -38.3390  -14.2860   25.8320 C.3    62  LYS62       0.0035
     37  CD       -39.4600  -15.2190   26.2590 C.3    62  LYS62       0.0206
     38  CE       -39.6980  -15.1520   27.7790 C.3    62  LYS62       0.1093
     39  NZ       -38.4500  -15.4980   28.5220 N.3    62  LYS62      -0.1314
     40  N        -36.2080  -21.3570   23.8360 N.3    85  ILE85      -0.1245
     41  CA       -37.5540  -20.9090   24.1700 C.3    85  ILE85       0.1561
     42  C        -38.0550  -19.9490   23.1060 C.2    85  ILE85       0.2260
     43  O        -37.3520  -19.0180   22.7340 O.2    85  ILE85      -0.2867
     44  CB       -37.5650  -20.2440   25.5530 C.3    85  ILE85       0.0252
     45  CG1      -37.2480  -21.3050   26.6160 C.3    85  ILE85       0.0019
     46  CG2      -38.9010  -19.5680   25.8360 C.3    85  ILE85       0.0019
     47  CD1      -36.9490  -20.7210   27.9970 C.3    85  ILE85       0.0001
     48  N        -43.5510  -20.3860   24.9650 N.3   112  VAL112     -0.1245
     49  CA       -44.1800  -19.5480   25.9800 C.3   112  VAL112      0.1561
     50  C        -45.6860  -19.5020   25.7650 C.2   112  VAL112      0.2260
     51  O        -46.1590  -19.2210   24.6450 O.2   112  VAL112     -0.2867
     52  CB       -43.6690  -18.1030   25.9020 C.3   112  VAL112      0.0252
     53  CG1      -44.3240  -17.2580   26.9940 C.3   112  VAL112      0.0019
     54  CG2      -42.1540  -18.0530   26.0530 C.3   112  VAL112      0.0019
     55  N        -48.9060  -18.3060   28.7040 N.3   114  GLU114     -0.1231
     56  CA       -49.1720  -17.1140   29.5070 C.3   114  GLU114      0.1699
     57  C        -47.9210  -16.7480   30.3070 C.2   114  GLU114      0.2592
     58  O        -47.2590  -17.6280   30.8560 O.2   114  GLU114     -0.2718
     59  CB       -50.3570  -17.3520   30.4590 C.3   114  GLU114      0.0402
     60  CG       -50.7670  -16.1170   31.2560 C.3   114  GLU114      0.1161
     61  CD       -52.1050  -16.2970   31.9410 C.2   114  GLU114      0.3649
     62  OE1      -52.9640  -16.9980   31.3750 O.co2 114  GLU114     -0.2457
     63  OE2      -52.3000  -15.7500   33.0480 O.co2 114  GLU114     -0.2457
     64  N        -47.5970  -15.4540   30.3730 N.am  115  MET115     -0.1965
     65  CA       -46.4280  -15.0190   31.1330 C.3   115  MET115      0.1736
     66  C        -46.7750  -14.6050   32.5590 C.2   115  MET115      0.2617
     67  O        -47.9530  -14.4760   32.9170 O.2   115  MET115     -0.2715
     68  CB       -45.6660  -13.9180   30.3900 C.3   115  MET115      0.0427
     69  CG       -44.9210  -14.4660   29.1670 C.3   115  MET115      0.0599
     70  SD       -44.0780  -13.1740   28.2270 S.3   115  MET115     -0.1393
     71  CE       -42.7700  -12.6980   29.3590 C.3   115  MET115      0.0692
     72  N        -45.7520  -14.4010   33.3860 N.am  116  SER116     -0.1936
     73  CA       -45.9620  -14.2580   34.8340 C.3   116  SER116      0.2055
     74  C        -46.1940  -12.8400   35.3490 C.2   116  SER116      0.2643
     75  O        -46.7340  -12.6600   36.4500 O.2   116  SER116     -0.2714
     76  CB       -44.7820  -14.8810   35.5870 C.3   116  SER116      0.2130
     77  OG       -43.5850  -14.2020   35.2500 O.3   116  SER116     -0.2179
     78  N        -45.8140  -11.8400   34.5570 N.am  117  HIS117     -0.1973
     79  CA       -45.8680  -10.4390   34.9920 C.3   117  HIS117      0.1656
     80  C        -47.2550   -9.8460   34.7540 C.2   117  HIS117      0.2291
     81  O        -48.0350  -10.3840   33.9720 O.2   117  HIS117     -0.2864
     82  CB       -44.8330   -9.6370   34.2020 C.3   117  HIS117      0.0771
     83  CG       -45.0790   -9.6340   32.7300 C.ar  117  HIS117      0.0820
     84  ND1      -45.0040  -10.7770   31.9630 N.ar  117  HIS117     -0.2267
     85  CD2      -45.4100   -8.6310   31.8820 C.ar  117  HIS117      0.1154
     86  CE1      -45.2650  -10.4760   30.7030 C.ar  117  HIS117      0.1986
     87  NE2      -45.5250   -9.1810   30.6280 N.ar  117  HIS117     -0.2212
     88  N        -43.7960  -22.7230   28.7990 N.3   144  VAL144     -0.1245
     89  CA       -43.5970  -21.8270   29.9400 C.3   144  VAL144      0.1561
     90  C        -44.9810  -21.3600   30.3680 C.2   144  VAL144      0.2260
     91  O        -45.7760  -20.9050   29.5360 O.2   144  VAL144     -0.2867
     92  CB       -42.7470  -20.5930   29.5650 C.3   144  VAL144      0.0252
     93  CG1      -42.3380  -19.8270   30.8410 C.3   144  VAL144      0.0019
     94  CG2      -41.5160  -20.9960   28.7290 C.3   144  VAL144      0.0019
     95  N        -47.1400  -19.6370   34.1430 N.3   146  PRO146     -0.2116
     96  CA       -46.7300  -18.7480   35.2420 C.3   146  PRO146      0.1372
     97  C        -46.9640  -19.2480   36.6730 C.2   146  PRO146      0.2244
     98  O        -48.0810  -19.6490   37.0310 O.2   146  PRO146     -0.2868
     99  CB       -47.5900  -17.5110   35.0030 C.3   146  PRO146      0.0268
    100  CG       -48.8580  -18.0580   34.4230 C.3   146  PRO146      0.0207
    101  CD       -48.4400  -19.2390   33.5680 C.3   146  PRO146      0.0892
    102  N        -41.8850  -19.8180   35.8460 N.3   167  PRO167     -0.2102
    103  CA       -41.1970  -18.7220   36.5260 C.3   167  PRO167      0.1504
    104  C        -42.1420  -17.8860   37.3790 C.2   167  PRO167      0.2576
    105  O        -43.3540  -17.8970   37.1830 O.2   167  PRO167     -0.2718
    106  CB       -40.6890  -17.8830   35.3500 C.3   167  PRO167      0.0282
    107  CG       -41.8180  -18.0060   34.3430 C.3   167  PRO167      0.0208
    108  CD       -42.3300  -19.4340   34.4920 C.3   167  PRO167      0.0893
    109  N        -41.5820  -17.1550   38.3260 N.am  168  GLY168     -0.1943
    110  CA       -42.3910  -16.2610   39.1350 C.3   168  GLY168      0.2014
    111  C        -42.1950  -16.3950   40.6290 C.2   168  GLY168      0.2638
    112  O        -42.5660  -15.5090   41.3870 O.2   168  GLY168     -0.2714
    113  N        -41.6170  -17.5080   41.0670 N.am  169  VAL169     -0.1977
    114  CA       -41.3520  -17.7000   42.4890 C.3   169  VAL169      0.1596
    115  C        -40.2150  -16.8000   42.9620 C.2   169  VAL169      0.2287
    116  O        -39.1940  -16.6840   42.2950 O.2   169  VAL169     -0.2864
    117  CB       -41.0170  -19.1760   42.7840 C.3   169  VAL169      0.0276
    118  CG1      -40.3750  -19.3320   44.1620 C.3   169  VAL169      0.0022
    119  CG2      -42.2720  -20.0140   42.6890 C.3   169  VAL169      0.0022
    120  N        -38.7580  -13.3300   43.4790 N.3   171  ALA171     -0.1231
    121  CA       -38.7770  -11.8970   43.1890 C.3   171  ALA171      0.1694
    122  C        -40.1490  -11.4000   42.7440 C.2   171  ALA171      0.2591
    123  O        -40.5680  -10.3070   43.1240 O.2   171  ALA171     -0.2718
    124  CB       -37.7160  -11.5480   42.1440 C.3   171  ALA171      0.0304
    125  N        -40.8530  -12.2090   41.9600 N.am  172  GLN172     -0.1979
    126  CA       -42.1400  -11.7940   41.4100 C.3   172  GLN172      0.1601
    127  C        -43.3080  -12.1130   42.3380 C.2   172  GLN172      0.2287
    128  O        -44.4590  -11.8480   42.0030 O.2   172  GLN172     -0.2864
    129  CB       -42.3770  -12.4150   40.0420 C.3   172  GLN172      0.0394
    130  CG       -41.4250  -11.9150   38.9980 C.3   172  GLN172      0.0908
    131  CD       -41.6580  -12.5710   37.6730 C.2   172  GLN172      0.2608
    132  OE1      -42.7340  -12.4410   37.0840 O.2   172  GLN172     -0.2717
    133  NE2      -40.6670  -13.3230   37.2070 N.am  172  GLN172     -0.0878
    134  N        -38.5740  -22.3900   37.7700 N.3   190  ILE190     -0.1231
    135  CA       -37.5380  -21.4350   37.4190 C.3   190  ILE190      0.1692
    136  C        -37.3450  -20.4480   38.5680 C.2   190  ILE190      0.2592
    137  O        -38.3040  -19.8420   39.0380 O.2   190  ILE190     -0.2718
    138  CB       -37.9340  -20.6420   36.1660 C.3   190  ILE190      0.0266
    139  CG1      -38.0260  -21.5800   34.9500 C.3   190  ILE190      0.0019
    140  CG2      -36.9380  -19.5200   35.9210 C.3   190  ILE190      0.0020
    141  CD1      -38.6840  -20.9490   33.7270 C.3   190  ILE190      0.0001
    142  N        -36.1060  -20.3070   39.0290 N.am  191  VAL191     -0.1966
    143  CA       -35.7720  -19.2790   40.0010 C.3   191  VAL191      0.1727
    144  C        -34.5410  -18.5240   39.5280 C.2   191  VAL191      0.2617
    145  O        -33.5090  -19.1270   39.2170 O.2   191  VAL191     -0.2715
    146  CB       -35.4930  -19.8590   41.4160 C.3   191  VAL191      0.0290
    147  CG1      -35.1830  -18.7330   42.3940 C.3   191  VAL191      0.0023
    148  CG2      -36.6710  -20.7040   41.9030 C.3   191  VAL191      0.0023
    149  N        -34.6620  -17.2020   39.4670 N.am  192  GLY192     -0.1940
    150  CA       -33.5480  -16.3460   39.1100 C.3   192  GLY192      0.2014
    151  C        -33.0330  -15.5390   40.2950 C.2   192  GLY192      0.2639
    152  O        -32.2020  -16.0140   41.0700 O.2   192  GLY192     -0.2714
    153  N        -33.5270  -14.3100   40.4240 N.am  193  ARG193     -0.1963
    154  CA       -33.0350  -13.3520   41.4170 C.3   193  ARG193      0.1729
    155  C        -32.9080  -13.8660   42.8550 C.2   193  ARG193      0.2616
    156  O        -31.9170  -13.5990   43.5350 O.2   193  ARG193     -0.2715
    157  CB       -33.9050  -12.0910   41.3930 C.3   193  ARG193      0.0348
    158  CG       -33.5840  -11.1640   40.2360 C.3   193  ARG193      0.0492
    159  CD       -34.6790  -10.1350   40.0000 C.3   193  ARG193      0.2205
    160  NE       -35.8670  -10.7430   39.4090 N.pl3 193  ARG193     -0.0865
    161  CZ       -36.9820  -10.0770   39.1230 C.cat 193  ARG193      0.5346
    162  NH1      -37.0580   -8.7650   39.3660 N.pl3 193  ARG193      0.1354
    163  NH2      -38.0190  -10.7180   38.5950 N.pl3 193  ARG193      0.1354
    164  N        -33.9100  -14.6050   43.3130 N.am  194  ALA194     -0.1977
    165  CA       -33.8940  -15.1310   44.6730 C.3   194  ALA194      0.1597
    166  C        -32.6300  -15.9490   44.9300 C.2   194  ALA194      0.2287
    167  O        -32.1430  -16.0240   46.0590 O.2   194  ALA194     -0.2864
    168  CB       -35.1330  -15.9610   44.9370 C.3   194  ALA194      0.0319
    169  N        -29.6270  -15.7760   42.4150 N.3   196  TYR196     -0.1241
    170  CA       -28.4090  -15.0770   41.9840 C.3   196  TYR196      0.1605
    171  C        -28.1110  -13.7300   42.6440 C.2   196  TYR196      0.2264
    172  O        -26.9760  -13.2640   42.5870 O.2   196  TYR196     -0.2867
    173  CB       -28.2590  -14.9940   40.4590 C.3   196  TYR196      0.0534
    174  CG       -29.2220  -14.0810   39.7160 C.ar  196  TYR196     -0.0201
    175  CD1      -29.0930  -12.6970   39.7760 C.ar  196  TYR196     -0.0009
    176  CD2      -30.2170  -14.6070   38.9000 C.ar  196  TYR196     -0.0009
    177  CE1      -29.9530  -11.8640   39.0680 C.ar  196  TYR196      0.0417
    178  CE2      -31.0840  -13.7760   38.1910 C.ar  196  TYR196      0.0417
    179  CZ       -30.9490  -12.4040   38.2900 C.ar  196  TYR196      0.1957
    180  OH       -31.7940  -11.5490   37.5870 O.3   196  TYR196     -0.2866
@<TRIPOS>BOND
     1    34    33    2
     2    33    32    1
     3    43    42    2
     4    42    41    1
     5    32    31    1
     6    32    35    1
     7    40    41    1
     8    41    44    1
     9    35    36    1
    10    51    50    2
    11    48    49    1
    12    44    46    1
    13    44    45    1
    14    50    49    1
    15    36    37    1
    16    52    49    1
    17    52    54    1
    18    52    53    1
    19    25    26    2
    20    25    24    1
    21    37    38    1
    22    45    47    1
    23    23    24    1
    24    24    27    1
    25    29    28   ar
    26    38    39    1
    27    27    28    1
    28    70    69    1
    29    70    71    1
    30    28    30   ar
    31    55    56    1
    32    94    92    1
    33    88    89    1
    34    69    68    1
    35    56    57    1
    36    56    59    1
    37    91    90    2
    38    92    89    1
    39    92    93    1
    40    89    90    1
    41    57    64   am
    42    57    58    2
    43    64    65    1
    44    68    65    1
    45    59    60    1
    46    87    86   ar
    47    87    85   ar
    48    86    84   ar
    49    19    20    1
    50    19    18    1
    51    65    66    1
    52    60    61    1
    53    62    61   ar
    54    20    21    1
    55    16    15    1
    56    16    17    2
    57    15    18    1
    58    15    14    1
    59    22    21    1
    60    85    83   ar
    61    61    63   ar
    62    84    83   ar
    63    12    11   ar
    64    66    67    2
    65    66    72   am
    66    83    82    1
    67    72    73    1
    68   101    95    1
    69   101   100    1
    70    11    13   ar
    71    11    10    1
    72   141   139    1
    73    81    80    2
    74    95    96    1
    75    82    79    1
    76     7    10    1
    77     7     8    1
    78     7     6    1
    79   107   108    1
    80   107   106    1
    81   100    99    1
    82   108   102    1
    83    78    79    1
    84    78    74   am
    85    80    79    1
    86    73    74    1
    87    73    76    1
    88     8     9    2
    89   139   138    1
    90    99    96    1
    91    96    97    1
    92    77    76    1
    93    74    75    2
    94   106   103    1
    95     2     5    1
    96     2     3    1
    97     2     1    1
    98     3     4    2
    99   102   103    1
   100   140   138    1
   101   138   135    1
   102   103   104    1
   103    97    98    2
   104   132   131    2
   105   105   104    2
   106   133   131   am
   107   104   109   am
   108   135   134    1
   109   135   136    1
   110   180   179    1
   111   131   130    1
   112   178   179   ar
   113   178   176   ar
   114   179   177   ar
   115   109   110    1
   116   136   142   am
   117   136   137    2
   118   163   161    1
   119   176   174   ar
   120   130   129    1
   121   142   143    1
   122   177   175   ar
   123   150   149    1
   124   150   151    1
   125   161   162    1
   126   161   160    2
   127   110   111    1
   128   145   144    2
   129   160   159    1
   130   149   144   am
   131   144   143    1
   132   174   175   ar
   133   174   173    1
   134   159   158    1
   135   143   146    1
   136   129   126    1
   137   158   157    1
   138   151   153   am
   139   151   152    2
   140   153   154    1
   141   173   170    1
   142   111   113   am
   143   111   112    2
   144   113   114    1
   145   157   154    1
   146   126   125    1
   147   126   127    1
   148   146   148    1
   149   146   147    1
   150   154   155    1
   151   125   122   am
   152   170   169    1
   153   170   171    1
   154   128   127    2
   155   124   121    1
   156   116   115    2
   157   114   117    1
   158   114   115    1
   159   172   171    2
   160   119   117    1
   161   122   123    2
   162   122   121    1
   163   117   118    1
   164   155   164   am
   165   155   156    2
   166   121   120    1
   167   164   165    1
   168   165   166    1
   169   165   168    1
   170   166   167    2
