@<TRIPOS>MOLECULE
tmp/4lumA00.pdb
 170 163 0 0 0
SMALL
GASTEIGER

@<TRIPOS>ATOM
      1  N         12.1080   24.3670   10.9300 N.3    26  ARG26      -0.1245
      2  CA        11.0000   24.7330   11.8030 C.3    26  ARG26       0.1563
      3  C         11.5200   25.5660   12.9610 C.2    26  ARG26       0.2260
      4  O         12.3110   25.0800   13.7700 O.2    26  ARG26      -0.2867
      5  CB        10.3020   23.4810   12.3370 C.3    26  ARG26       0.0307
      6  CG         9.5280   22.7100   11.2860 C.3    26  ARG26       0.0489
      7  CD         8.0810   23.1830   11.1910 C.3    26  ARG26       0.2205
      8  NE         7.2960   22.2840   10.3480 N.pl3  26  ARG26      -0.0865
      9  CZ         6.1550   22.6090    9.7430 C.cat  26  ARG26       0.5346
     10  NH1        5.6430   23.8280    9.8710 N.pl3  26  ARG26       0.1354
     11  NH2        5.5250   21.7090    9.0000 N.pl3  26  ARG26       0.1354
     12  N         13.8870   22.4580   14.8580 N.3    53  TYR53      -0.1241
     13  CA        14.3900   21.3370   14.0780 C.3    53  TYR53       0.1605
     14  C         14.5380   21.6180   12.5990 C.2    53  TYR53       0.2264
     15  O         13.8510   22.4750   12.0320 O.2    53  TYR53      -0.2867
     16  CB        13.5770   20.0460   14.3100 C.3    53  TYR53       0.0534
     17  CG        12.0960   20.0760   13.9910 C.ar   53  TYR53      -0.0201
     18  CD1       11.5960   19.4310   12.8610 C.ar   53  TYR53      -0.0009
     19  CD2       11.1820   20.6870   14.8590 C.ar   53  TYR53      -0.0009
     20  CE1       10.2160   19.4070   12.5940 C.ar   53  TYR53       0.0417
     21  CE2        9.8160   20.6810   14.5880 C.ar   53  TYR53       0.0417
     22  CZ         9.3390   20.0310   13.4710 C.ar   53  TYR53       0.1957
     23  OH         7.9790   20.0350   13.2180 O.3    53  TYR53      -0.2866
     24  N         14.8740   19.3990    8.7690 N.3    55  VAL55      -0.1245
     25  CA        14.5860   18.1230    8.1120 C.3    55  VAL55       0.1561
     26  C         15.2260   18.1390    6.7280 C.2    55  VAL55       0.2260
     27  O         15.0650   19.1190    5.9580 O.2    55  VAL55      -0.2867
     28  CB        13.0490   17.8460    8.0180 C.3    55  VAL55       0.0252
     29  CG1       12.7540   16.5520    7.2400 C.3    55  VAL55       0.0019
     30  CG2       12.4170   17.7630    9.4130 C.3    55  VAL55       0.0019
     31  N         14.1130   10.6080    5.3940 N.3    70  ALA70      -0.1245
     32  CA        14.4440   11.9490    5.8270 C.3    70  ALA70       0.1562
     33  C         15.2050   11.8700    7.1110 C.2    70  ALA70       0.2260
     34  O         14.8990   11.0450    7.9720 O.2    70  ALA70      -0.2867
     35  CB        13.1780   12.7970    6.0350 C.3    70  ALA70       0.0290
     36  N         16.1290   14.1690   10.5290 N.3    72  THR72      -0.1218
     37  CA        15.7810   15.3180   11.3290 C.3    72  THR72       0.1862
     38  C         16.9130   15.6130   12.3070 C.2    72  THR72       0.2287
     39  O         17.4910   14.7180   12.9240 O.2    72  THR72      -0.2866
     40  CB        14.5180   15.0740   12.1390 C.3    72  THR72       0.1770
     41  OG1       13.4760   14.6190   11.2740 O.3    72  THR72      -0.2211
     42  CG2       14.0680   16.3540   12.8480 C.3    72  THR72       0.0375
     43  N          9.3920   17.7760   17.9350 N.3    86  THR86      -0.1203
     44  CA         8.7650   17.9840   16.6230 C.3    86  THR86       0.1994
     45  C          7.2690   18.1850   16.8050 C.2    86  THR86       0.2618
     46  O          6.6850   17.7450   17.8060 O.2    86  THR86      -0.2717
     47  CB         9.0190   16.7920   15.6580 C.3    86  THR86       0.1784
     48  OG1        8.5040   15.5820   16.2430 O.3    86  THR86      -0.2211
     49  CG2       10.5380   16.6440   15.4030 C.3    86  THR86       0.0376
     50  N          6.6520   18.8520   15.8290 N.am   87  LYS87      -0.1965
     51  CA         5.2170   19.1240   15.8670 C.3    87  LYS87       0.1728
     52  C          4.4310   17.8590   16.1750 C.2    87  LYS87       0.2617
     53  O          3.5420   17.8760   17.0240 O.2    87  LYS87      -0.2715
     54  CB         4.7390   19.7580   14.5560 C.3    87  LYS87       0.0311
     55  CG         5.1300   21.2320   14.4370 C.3    87  LYS87       0.0038
     56  CD         4.5930   21.8230   13.1630 C.3    87  LYS87       0.0206
     57  CE         4.6330   23.3340   13.1970 C.3    87  LYS87       0.1093
     58  NZ         3.7820   23.9090   12.1150 N.3    87  LYS87      -0.1314
     59  N          4.7550   16.7690   15.4710 N.am   88  GLY88      -0.1940
     60  CA         4.0680   15.5160   15.6650 C.3    88  GLY88       0.2014
     61  C          2.9100   15.3860   14.6990 C.2    88  GLY88       0.2638
     62  O          2.2940   16.3800   14.2970 O.2    88  GLY88      -0.2714
     63  N          2.5940   14.1520   14.3300 N.am   89  HIS89      -0.1973
     64  CA         1.4940   13.9430   13.3980 C.3    89  HIS89       0.1656
     65  C          1.0220   12.5030   13.4200 C.2    89  HIS89       0.2291
     66  O          1.7360   11.6080   13.8970 O.2    89  HIS89      -0.2864
     67  CB         1.9320   14.3010   11.9690 C.3    89  HIS89       0.0771
     68  CG         3.1130   13.5160   11.4800 C.ar   89  HIS89       0.0820
     69  ND1        4.4090   13.9380   11.6570 N.ar   89  HIS89      -0.2267
     70  CD2        3.1890   12.3320   10.8280 C.ar   89  HIS89       0.1154
     71  CE1        5.2380   13.0530   11.1250 C.ar   89  HIS89       0.1986
     72  NE2        4.5220   12.0660   10.6160 N.ar   89  HIS89      -0.2212
     73  N         -0.2930    9.8730   10.3090 N.3    91  HIS91      -0.1241
     74  CA        -0.2710    9.8280    8.8570 C.3    91  HIS91       0.1621
     75  C         -1.6950   10.0640    8.3630 C.2    91  HIS91       0.2264
     76  O         -2.6600    9.7630    9.0890 O.2    91  HIS91      -0.2867
     77  CB         0.3400    8.5130    8.3800 C.3    91  HIS91       0.0745
     78  CG         1.7840    8.3860    8.7590 C.ar   91  HIS91       0.0817
     79  ND1        2.3570    7.1980    9.1620 N.ar   91  HIS91      -0.2268
     80  CD2        2.7620    9.3190    8.8290 C.ar   91  HIS91       0.1154
     81  CE1        3.6320    7.4020    9.4490 C.ar   91  HIS91       0.1986
     82  NE2        3.9000    8.6830    9.2680 N.ar   91  HIS91      -0.2212
     83  N          6.0670    3.3130   10.1150 N.3    98  GLU98      -0.1245
     84  CA         7.2990    4.0680    9.8670 C.3    98  GLU98       0.1567
     85  C          8.4040    3.4440   10.7150 C.2    98  GLU98       0.2260
     86  O          8.1160    2.8620   11.7570 O.2    98  GLU98      -0.2867
     87  CB         7.0740    5.5290   10.2530 C.3    98  GLU98       0.0388
     88  CG         8.2520    6.4660   10.0500 C.3    98  GLU98       0.1160
     89  CD         7.8230    7.9110    9.9620 C.2    98  GLU98       0.3649
     90  OE1        6.6410    8.2140   10.2140 O.co2  98  GLU98      -0.2457
     91  OE2        8.6820    8.7480    9.6320 O.co2  98  GLU98      -0.2457
     92  N         12.1960    4.4310   12.4490 N.3   100  TYR100     -0.1241
     93  CA        13.1590    5.4850   12.7600 C.3   100  TYR100      0.1605
     94  C         14.4600    4.8360   13.1780 C.2   100  TYR100      0.2264
     95  O         14.4550    3.7780   13.8230 O.2   100  TYR100     -0.2867
     96  CB        12.6730    6.3370   13.9330 C.3   100  TYR100      0.0534
     97  CG        11.6780    7.4280   13.6380 C.ar  100  TYR100     -0.0201
     98  CD1       10.4080    7.1430   13.1300 C.ar  100  TYR100     -0.0009
     99  CD2       11.9720    8.7450   13.9480 C.ar  100  TYR100     -0.0009
    100  CE1        9.4690    8.1710   12.9130 C.ar  100  TYR100      0.0417
    101  CE2       11.0490    9.7670   13.7310 C.ar  100  TYR100      0.0417
    102  CZ         9.8150    9.4800   13.2060 C.ar  100  TYR100      0.1957
    103  OH         8.9320   10.5140   13.0080 O.3   100  TYR100     -0.2866
    104  N          3.0100   10.3950   16.3090 N.3   137  HIS137     -0.1241
    105  CA         4.3800   10.2810   16.7990 C.3   137  HIS137      0.1621
    106  C          5.0760   11.6320   16.7760 C.2   137  HIS137      0.2264
    107  O          4.8890   12.4080   15.8410 O.2   137  HIS137     -0.2867
    108  CB         5.1700    9.2210   16.0010 C.3   137  HIS137      0.0745
    109  CG         4.8920    9.2220   14.5290 C.ar  137  HIS137      0.0817
    110  ND1        3.7380    8.6950   13.9880 N.ar  137  HIS137     -0.2268
    111  CD2        5.6210    9.6770   13.4830 C.ar  137  HIS137      0.1154
    112  CE1        3.7650    8.8330   12.6750 C.ar  137  HIS137      0.1986
    113  NE2        4.9060    9.4130   12.3410 N.ar  137  HIS137     -0.2212
    114  N          8.9720   13.3520   18.2060 N.3   139  THR139     -0.1218
    115  CA        10.2760   13.0910   18.7960 C.3   139  THR139      0.1862
    116  C         10.6680   14.2520   19.6940 C.2   139  THR139      0.2287
    117  O         10.2290   15.3820   19.4930 O.2   139  THR139     -0.2866
    118  CB        11.3850   12.8400   17.7390 C.3   139  THR139      0.1770
    119  OG1       11.3420   13.8880   16.7770 O.3   139  THR139     -0.2211
    120  CG2       11.1780   11.5120   17.0410 C.3   139  THR139      0.0375
    121  N         18.1820   11.7580   13.7720 N.3   149  PHE149     -0.1241
    122  CA        17.6440   10.4520   13.4300 C.3   149  PHE149      0.1605
    123  C         17.2350   10.4010   11.9630 C.2   149  PHE149      0.2264
    124  O         17.0250   11.4390   11.3410 O.2   149  PHE149     -0.2867
    125  CB        16.4530   10.0930   14.3390 C.3   149  PHE149      0.0534
    126  CG        15.3600   11.1350   14.3630 C.ar  149  PHE149     -0.0203
    127  CD1       15.3690   12.1470   15.3200 C.ar  149  PHE149     -0.0042
    128  CD2       14.3330   11.1110   13.4310 C.ar  149  PHE149     -0.0042
    129  CE1       14.3540   13.1050   15.3580 C.ar  149  PHE149     -0.0003
    130  CE2       13.3100   12.0610   13.4570 C.ar  149  PHE149     -0.0003
    131  CZ        13.3140   13.0540   14.4260 C.ar  149  PHE149     -0.0000
    132  N         14.3280    8.7540    9.3670 N.3   151  ALA151     -0.1245
    133  CA        13.0400    8.0970    9.3160 C.3   151  ALA151      0.1562
    134  C         12.7920    7.5760    7.9120 C.2   151  ALA151      0.2260
    135  O         13.1530    8.2330    6.9440 O.2   151  ALA151     -0.2867
    136  CB        11.9390    9.0370    9.7400 C.3   151  ALA151      0.0290
    137  N          9.6310    5.9720    5.6100 N.3   153  TYR153     -0.1241
    138  CA         8.1730    5.9440    5.6740 C.3   153  TYR153      0.1605
    139  C          7.5190    5.7790    4.2850 C.2   153  TYR153      0.2264
    140  O          8.1030    6.1670    3.2930 O.2   153  TYR153     -0.2867
    141  CB         7.6730    7.2130    6.3960 C.3   153  TYR153      0.0534
    142  CG         8.1810    8.5510    5.8550 C.ar  153  TYR153     -0.0201
    143  CD1        9.4630    9.0170    6.1710 C.ar  153  TYR153     -0.0009
    144  CD2        7.3620    9.3770    5.0780 C.ar  153  TYR153     -0.0009
    145  CE1        9.9320   10.2480    5.6940 C.ar  153  TYR153      0.0417
    146  CE2        7.8130   10.6210    4.6120 C.ar  153  TYR153      0.0417
    147  CZ         9.1050   11.0480    4.9230 C.ar  153  TYR153      0.1957
    148  OH         9.5820   12.2660    4.4620 O.3   153  TYR153     -0.2866
    149  N          0.6640   13.3720    5.8590 N.3   159  HIS159     -0.1241
    150  CA         0.8160   13.9780    7.1660 C.3   159  HIS159      0.1621
    151  C         -0.5080   14.5930    7.5990 C.2   159  HIS159      0.2264
    152  O         -1.1440   15.3440    6.8410 O.2   159  HIS159     -0.2867
    153  CB         1.8990   15.0670    7.1410 C.3   159  HIS159      0.0745
    154  CG         3.2900   14.5570    6.9320 C.ar  159  HIS159      0.0817
    155  ND1        3.8150   14.3160    5.6780 N.ar  159  HIS159     -0.2268
    156  CD2        4.2810   14.2890    7.8120 C.ar  159  HIS159      0.1154
    157  CE1        5.0630   13.9000    5.7980 C.ar  159  HIS159      0.1986
    158  NE2        5.3700   13.8720    7.0830 N.ar  159  HIS159     -0.2212
    159  N         -1.1910   16.8630   10.5410 N.3   161  TYR161     -0.1241
    160  CA        -0.7170   17.7080   11.6340 C.3   161  TYR161      0.1605
    161  C         -1.8570   18.3070   12.4430 C.2   161  TYR161      0.2264
    162  O         -1.6990   18.6040   13.6310 O.2   161  TYR161     -0.2867
    163  CB         0.1130   18.8570   11.0700 C.3   161  TYR161      0.0534
    164  CG         1.4740   18.4350   10.6020 C.ar  161  TYR161     -0.0201
    165  CD1        1.7590   18.3110    9.2430 C.ar  161  TYR161     -0.0009
    166  CD2        2.4790   18.1460   11.5180 C.ar  161  TYR161     -0.0009
    167  CE1        3.0110   17.9230    8.8140 C.ar  161  TYR161      0.0417
    168  CE2        3.7340   17.7540   11.0950 C.ar  161  TYR161      0.0417
    169  CZ         3.9860   17.6360    9.7450 C.ar  161  TYR161      0.1957
    170  OH         5.2270   17.2550    9.3250 O.3   161  TYR161     -0.2866
@<TRIPOS>BOND
     1   140   139    2
     2   139   138    1
     3   148   147    1
     4   146   147   ar
     5   146   144   ar
     6   147   145   ar
     7   144   142   ar
     8    31    32    1
     9   137   138    1
    10   138   141    1
    11   155   157   ar
    12   155   154   ar
    13   145   143   ar
    14   157   158   ar
    15    32    35    1
    16    32    33    1
    17   142   143   ar
    18   142   141    1
    19   149   150    1
    20    27    26    2
    21    26    25    1
    22   152   151    2
    23   154   153    1
    24   154   156   ar
    25   135   134    2
    26   158   156   ar
    27    33    34    2
    28   153   150    1
    29   150   151    1
    30    29    28    1
    31   134   133    1
    32    28    25    1
    33    28    30    1
    34    25    24    1
    35    75    74    1
    36    75    76    2
    37    77    78    1
    38    77    74    1
    39    78    80   ar
    40    78    79   ar
    41   167   165   ar
    42   167   169   ar
    43    80    82   ar
    44    74    73    1
    45    11     9    1
    46    79    81   ar
    47   165   164   ar
    48    82    81   ar
    49   133   132    1
    50   133   136    1
    51   170   169    1
    52    91    89   ar
    53     9    10    1
    54     9     8    2
    55   169   168   ar
    56    84    83    1
    57    84    87    1
    58    84    85    1
    59    89    88    1
    60    89    90   ar
    61    88    87    1
    62     8     7    1
    63    36    37    1
    64   159   160    1
    65   164   163    1
    66   164   166   ar
    67    72    70   ar
    68    72    71   ar
    69    85    86    2
    70    70    68   ar
    71     1     2    1
    72   163   160    1
    73   168   166   ar
    74    71    69   ar
    75     7     6    1
    76    41    40    1
    77     6     5    1
    78    37    40    1
    79    37    38    1
    80   124   123    2
    81    68    69   ar
    82    68    67    1
    83   160   161    1
    84     2     5    1
    85     2     3    1
    86   123   122    1
    87    67    64    1
    88    15    14    2
    89    58    57    1
    90    40    42    1
    91    38    39    2
    92   113   112   ar
    93   113   111   ar
    94   161   162    2
    95    92    93    1
    96    20    18   ar
    97    20    22   ar
    98    14    13    1
    99   112   110   ar
   100    93    94    1
   101    93    96    1
   102    18    17   ar
   103   100    98   ar
   104   100   102   ar
   105     3     4    2
   106   103   102    1
   107    98    97   ar
   108    56    57    1
   109    56    55    1
   110    94    95    2
   111   102   101   ar
   112    23    22    1
   113    64    65    1
   114    64    63    1
   115    65    66    2
   116   122   121    1
   117   122   125    1
   118   128   130   ar
   119   128   126   ar
   120   130   131   ar
   121    22    21   ar
   122   111   109   ar
   123    97    96    1
   124    97    99   ar
   125   101    99   ar
   126   110   109   ar
   127    17    16    1
   128    17    19   ar
   129    13    16    1
   130    13    12    1
   131    62    61    2
   132    63    61   am
   133   125   126    1
   134   126   127   ar
   135   131   129   ar
   136    55    54    1
   137   109   108    1
   138    54    51    1
   139    21    19   ar
   140    61    60    1
   141   127   129   ar
   142    49    47    1
   143    59    60    1
   144    59    52   am
   145    47    48    1
   146    47    44    1
   147    50    51    1
   148    50    45   am
   149   107   106    2
   150    51    52    1
   151   108   105    1
   152    52    53    2
   153   104   105    1
   154    44    45    1
   155    44    43    1
   156   106   105    1
   157   119   118    1
   158    45    46    2
   159   120   118    1
   160   118   115    1
   161   114   115    1
   162   115   116    1
   163   117   116    2
