@<TRIPOS>MOLECULE
tmp/4luoA01.pdb
 93 84 0 0 0
SMALL
GASTEIGER

@<TRIPOS>ATOM
      1  N          4.9160  -18.6640  -19.5940 N.3    36  ILE36      -0.1245
      2  CA         4.5680  -18.2830  -20.9460 C.3    36  ILE36       0.1561
      3  C          4.9450  -19.4430  -21.8430 C.2    36  ILE36       0.2260
      4  O          5.7320  -20.2960  -21.4510 O.2    36  ILE36      -0.2867
      5  CB         5.2740  -17.0090  -21.4010 C.3    36  ILE36       0.0252
      6  CG1        6.7890  -17.1800  -21.3950 C.3    36  ILE36       0.0019
      7  CG2        4.8850  -15.8580  -20.5030 C.3    36  ILE36       0.0019
      8  CD1        7.5030  -16.1550  -22.2600 C.3    36  ILE36       0.0001
      9  N          9.6370  -19.9090  -18.8760 N.3    44  ARG44      -0.1245
     10  CA         9.7370  -18.4910  -18.5620 C.3    44  ARG44       0.1563
     11  C          8.4750  -18.0710  -17.8380 C.2    44  ARG44       0.2260
     12  O          7.3720  -18.4760  -18.2050 O.2    44  ARG44      -0.2867
     13  CB         9.8970  -17.6480  -19.8270 C.3    44  ARG44       0.0307
     14  CG        11.1320  -17.9610  -20.6390 C.3    44  ARG44       0.0489
     15  CD        12.3850  -17.8490  -19.8030 C.3    44  ARG44       0.2205
     16  NE        12.5290  -16.5220  -19.1970 N.pl3  44  ARG44      -0.0865
     17  CZ        13.2570  -15.5340  -19.7100 C.cat  44  ARG44       0.5346
     18  NH1       13.9230  -15.7080  -20.8440 N.pl3  44  ARG44       0.1354
     19  NH2       13.3230  -14.3650  -19.0830 N.pl3  44  ARG44       0.1354
     20  N          8.8130  -10.1050  -16.4900 N.3    60  MET60      -0.1245
     21  CA         9.2910  -11.4560  -16.7520 C.3    60  MET60       0.1570
     22  C         10.4340  -11.7580  -15.7890 C.2    60  MET60       0.2261
     23  O         11.3070  -10.9170  -15.5820 O.2    60  MET60      -0.2867
     24  CB         9.8050  -11.5820  -18.1900 C.3    60  MET60       0.0387
     25  CG         8.7370  -11.5130  -19.2740 C.3    60  MET60       0.0595
     26  SD         7.5830  -12.9050  -19.2910 S.3    60  MET60      -0.1393
     27  CE         8.6920  -14.3070  -19.3940 C.3    60  MET60       0.0692
     28  N         13.9140  -13.3170  -14.9490 N.3    62  ALA62      -0.1231
     29  CA        15.1030  -13.8620  -15.5780 C.3    62  ALA62       0.1694
     30  C         15.1110  -15.3550  -15.2500 C.2    62  ALA62       0.2592
     31  O         14.6700  -15.7590  -14.1810 O.2    62  ALA62      -0.2718
     32  CB        16.3560  -13.1900  -15.0490 C.3    62  ALA62       0.0304
     33  N         15.6090  -16.1850  -16.1600 N.am   63  THR63      -0.1953
     34  CA        15.5720  -17.6310  -15.9750 C.3    63  THR63       0.1897
     35  C         16.3180  -18.0630  -14.7090 C.2    63  THR63       0.2313
     36  O         15.9460  -19.0480  -14.0630 O.2    63  THR63      -0.2863
     37  CB        16.1630  -18.3600  -17.1980 C.3    63  THR63       0.1794
     38  OG1       15.6750  -17.7550  -18.4030 O.3    63  THR63      -0.2208
     39  CG2       15.7760  -19.8290  -17.1810 C.3    63  THR63       0.0378
     40  N         15.9810   -4.8820  -15.8100 N.3    86  ILE86      -0.1245
     41  CA        16.2090   -4.1330  -17.0380 C.3    86  ILE86       0.1561
     42  C         14.9180   -4.0740  -17.8190 C.2    86  ILE86       0.2260
     43  O         14.0450   -4.9290  -17.6660 O.2    86  ILE86      -0.2867
     44  CB        17.3120   -4.7450  -17.9100 C.3    86  ILE86       0.0252
     45  CG1       17.0320   -6.2190  -18.1710 C.3    86  ILE86       0.0019
     46  CG2       18.6630   -4.5770  -17.2410 C.3    86  ILE86       0.0019
     47  CD1       17.9000   -6.8060  -19.2690 C.3    86  ILE86       0.0001
     48  N         13.3620   -4.1450  -21.5850 N.3    88  ASN88      -0.1225
     49  CA        13.5950   -4.4440  -22.9800 C.3    88  ASN88       0.1785
     50  C         12.3680   -4.0550  -23.7560 C.2    88  ASN88       0.2598
     51  O         11.2750   -4.0260  -23.2220 O.2    88  ASN88      -0.2718
     52  CB        13.8820   -5.9290  -23.1590 C.3    88  ASN88       0.1169
     53  CG        15.3380   -6.2570  -22.9860 C.2    88  ASN88       0.2627
     54  OD1       15.7070   -7.1380  -22.2170 O.2    88  ASN88      -0.2716
     55  ND2       16.1800   -5.5440  -23.7030 N.am   88  ASN88      -0.0877
     56  N         12.5540   -3.7370  -25.0230 N.am   89  THR89      -0.1939
     57  CA        11.4480   -3.2900  -25.8470 C.3    89  THR89       0.2028
     58  C         11.3920   -4.2050  -27.0410 C.2    89  THR89       0.2642
     59  O         12.4050   -4.4240  -27.7060 O.2    89  THR89      -0.2714
     60  CB        11.6540   -1.8340  -26.2660 C.3    89  THR89       0.1808
     61  OG1       11.8350   -1.0220  -25.0920 O.3    89  THR89      -0.2208
     62  CG2       10.4750   -1.3120  -27.0580 C.3    89  THR89       0.0379
     63  N         10.2070   -4.7470  -27.2990 N.am   90  LEU90      -0.1977
     64  CA         9.9690   -5.6100  -28.4430 C.3    90  LEU90       0.1596
     65  C          9.8710   -4.7800  -29.7100 C.2    90  LEU90       0.2287
     66  O          9.6870   -3.5670  -29.6570 O.2    90  LEU90      -0.2864
     67  CB         8.6580   -6.3610  -28.2500 C.3    90  LEU90       0.0297
     68  CG         8.5520   -7.2160  -26.9850 C.3    90  LEU90       0.0022
     69  CD1        7.1630   -7.8290  -26.8950 C.3    90  LEU90       0.0001
     70  CD2        9.6130   -8.2900  -26.9950 C.3    90  LEU90       0.0001
     71  N          9.0390   -5.0750  -21.9420 N.3    96  VAL96      -0.1245
     72  CA         9.0950   -6.1660  -20.9960 C.3    96  VAL96       0.1561
     73  C         10.0760   -5.7250  -19.9270 C.2    96  VAL96       0.2260
     74  O         11.1100   -5.1270  -20.2220 O.2    96  VAL96      -0.2867
     75  CB         9.5380   -7.4860  -21.6660 C.3    96  VAL96       0.0252
     76  CG1        8.6960   -7.7630  -22.9000 C.3    96  VAL96       0.0019
     77  CG2       10.9880   -7.4390  -22.0580 C.3    96  VAL96       0.0019
     78  N         12.4400   -7.1630  -17.2310 N.3    98  ILE98      -0.1245
     79  CA        13.0610   -8.4010  -16.7870 C.3    98  ILE98       0.1561
     80  C         13.6230   -8.2040  -15.3960 C.2    98  ILE98       0.2260
     81  O         14.4490   -7.3010  -15.1660 O.2    98  ILE98      -0.2867
     82  CB        14.1630   -8.8640  -17.7390 C.3    98  ILE98       0.0252
     83  CG1       13.5790   -9.1040  -19.1290 C.3    98  ILE98       0.0019
     84  CG2       14.8030  -10.1510  -17.2330 C.3    98  ILE98       0.0019
     85  CD1       14.5460   -8.8230  -20.2090 C.3    98  ILE98       0.0001
     86  N         15.9110   -9.3580  -12.5660 N.3   100  MET100     -0.1245
     87  CA        17.1960  -10.0510  -12.5350 C.3   100  MET100      0.1570
     88  C         17.5560  -10.4940  -11.1250 C.2   100  MET100      0.2261
     89  O         18.0880  -11.5870  -10.9130 O.2   100  MET100     -0.2867
     90  CB        18.2930   -9.1200  -13.0540 C.3   100  MET100      0.0387
     91  CG        18.1070   -8.6780  -14.4880 C.3   100  MET100      0.0595
     92  SD        18.1130  -10.0610  -15.6400 S.3   100  MET100     -0.1393
     93  CE        19.7570  -10.7310  -15.3910 C.3   100  MET100      0.0692
@<TRIPOS>BOND
     1    65    66    2
     2    65    64    1
     3    64    67    1
     4    64    63    1
     5    67    68    1
     6    59    58    2
     7    63    58   am
     8    62    60    1
     9    58    57    1
    10    70    68    1
    11    68    69    1
    12    60    57    1
    13    60    61    1
    14    57    56    1
    15    56    50   am
    16    50    51    2
    17    50    49    1
    18    55    53   am
    19    52    53    1
    20    52    49    1
    21    53    54    2
    22    49    48    1
    23    76    75    1
    24     8     6    1
    25    77    75    1
    26    71    72    1
    27     3     4    2
    28     3     2    1
    29    75    72    1
    30     5     6    1
    31     5     2    1
    32     5     7    1
    33    72    73    1
    34     2     1    1
    35    18    17    1
    36    14    13    1
    37    14    15    1
    38    74    73    2
    39    85    83    1
    40    13    10    1
    41    15    16    1
    42    17    16    2
    43    17    19    1
    44    27    26    1
    45    26    25    1
    46    25    24    1
    47    47    45    1
    48    83    82    1
    49     9    10    1
    50    10    11    1
    51    38    37    1
    52    12    11    2
    53    24    21    1
    54    45    44    1
    55    44    46    1
    56    44    41    1
    57    42    43    2
    58    42    41    1
    59    82    84    1
    60    82    79    1
    61    78    79    1
    62    37    39    1
    63    37    34    1
    64    41    40    1
    65    79    80    1
    66    21    20    1
    67    21    22    1
    68    33    34    1
    69    33    30   am
    70    34    35    1
    71    22    23    2
    72    92    93    1
    73    92    91    1
    74    29    30    1
    75    29    32    1
    76    29    28    1
    77    80    81    2
    78    30    31    2
    79    35    36    2
    80    91    90    1
    81    90    87    1
    82    86    87    1
    83    87    88    1
    84    88    89    2
