@<TRIPOS>MOLECULE
tmp/4luoA00.pdb
 94 87 0 0 0
SMALL
GASTEIGER

@<TRIPOS>ATOM
      1  N          2.4930  -16.6560  -14.0910 N.3    34  ARG34      -0.1245
      2  CA         2.1650  -17.7760  -14.9590 C.3    34  ARG34       0.1563
      3  C          3.2660  -18.0440  -15.9630 C.2    34  ARG34       0.2260
      4  O          3.9990  -17.1300  -16.3400 O.2    34  ARG34      -0.2867
      5  CB         0.8200  -17.5760  -15.6450 C.3    34  ARG34       0.0307
      6  CG         0.7920  -16.5690  -16.7370 C.3    34  ARG34       0.0489
      7  CD        -0.4600  -16.8050  -17.5750 C.3    34  ARG34       0.2205
      8  NE        -0.6160  -15.8090  -18.6240 N.pl3  34  ARG34      -0.0865
      9  CZ        -0.0600  -15.8880  -19.8270 C.cat  34  ARG34       0.5346
     10  NH1        0.7050  -16.9270  -20.1530 N.pl3  34  ARG34       0.1354
     11  NH2       -0.2730  -14.9180  -20.7070 N.pl3  34  ARG34       0.1354
     12  N          4.9160  -18.6640  -19.5940 N.3    36  ILE36      -0.1231
     13  CA         4.5680  -18.2830  -20.9460 C.3    36  ILE36       0.1692
     14  C          4.9450  -19.4430  -21.8430 C.2    36  ILE36       0.2592
     15  O          5.7320  -20.2960  -21.4510 O.2    36  ILE36      -0.2718
     16  CB         5.2740  -17.0090  -21.4010 C.3    36  ILE36       0.0266
     17  CG1        6.7890  -17.1800  -21.3950 C.3    36  ILE36       0.0019
     18  CG2        4.8850  -15.8580  -20.5030 C.3    36  ILE36       0.0020
     19  CD1        7.5030  -16.1550  -22.2600 C.3    36  ILE36       0.0001
     20  N          4.3710  -19.4860  -23.0340 N.am   37  THR37      -0.1953
     21  CA         4.6520  -20.5770  -23.9520 C.3    37  THR37       0.1897
     22  C          6.0740  -20.4970  -24.4980 C.2    37  THR37       0.2313
     23  O          6.4580  -19.5090  -25.1210 O.2    37  THR37      -0.2863
     24  CB         3.6430  -20.5810  -25.0930 C.3    37  THR37       0.1794
     25  OG1        2.3320  -20.7070  -24.5330 O.3    37  THR37      -0.2208
     26  CG2        3.8990  -21.7380  -26.0480 C.3    37  THR37       0.0378
     27  N          5.9110  -15.0620  -16.3760 N.3    46  ARG46      -0.1245
     28  CA         5.4050  -13.7060  -16.4770 C.3    46  ARG46       0.1563
     29  C          4.7110  -13.3720  -15.1680 C.2    46  ARG46       0.2260
     30  O          4.0330  -14.2310  -14.5820 O.2    46  ARG46      -0.2867
     31  CB         4.4060  -13.6360  -17.6300 C.3    46  ARG46       0.0307
     32  CG         3.7820  -12.2770  -17.8790 C.3    46  ARG46       0.0489
     33  CD         2.7910  -12.3190  -19.0360 C.3    46  ARG46       0.2205
     34  NE         2.1720  -11.0120  -19.2410 N.pl3  46  ARG46      -0.0865
     35  CZ         1.2200  -10.7700  -20.1320 C.cat  46  ARG46       0.5346
     36  NH1        0.7660  -11.7510  -20.9040 N.pl3  46  ARG46       0.1354
     37  NH2        0.7210   -9.5490  -20.2480 N.pl3  46  ARG46       0.1354
     38  N          1.5030   -6.1470  -16.0690 N.3    57  SER57      -0.1202
     39  CA         1.7440   -7.5620  -16.3670 C.3    57  SER57       0.2020
     40  C          2.9360   -7.7640  -17.3030 C.2    57  SER57       0.2619
     41  O          3.1460   -8.8600  -17.8150 O.2    57  SER57      -0.2717
     42  CB         0.5020   -8.2030  -16.9870 C.3    57  SER57       0.2103
     43  OG         0.1790   -7.5740  -18.2020 O.3    57  SER57      -0.2182
     44  N          3.7230   -6.7100  -17.4820 N.am   58  SER58      -0.1951
     45  CA         4.8710   -6.6990  -18.3880 C.3    58  SER58       0.1924
     46  C          6.1520   -7.2900  -17.7930 C.2    58  SER58       0.2314
     47  O          7.2050   -7.2240  -18.4160 O.2    58  SER58      -0.2863
     48  CB         5.1720   -5.2480  -18.7830 C.3    58  SER58       0.2116
     49  OG         4.0270   -4.5880  -19.2850 O.3    58  SER58      -0.2180
     50  N          8.8130  -10.1050  -16.4900 N.3    60  MET60      -0.1245
     51  CA         9.2910  -11.4560  -16.7520 C.3    60  MET60       0.1570
     52  C         10.4340  -11.7580  -15.7890 C.2    60  MET60       0.2261
     53  O         11.3070  -10.9170  -15.5820 O.2    60  MET60      -0.2867
     54  CB         9.8050  -11.5820  -18.1900 C.3    60  MET60       0.0387
     55  CG         8.7370  -11.5130  -19.2740 C.3    60  MET60       0.0595
     56  SD         7.5830  -12.9050  -19.2910 S.3    60  MET60      -0.1393
     57  CE         8.6920  -14.3070  -19.3940 C.3    60  MET60       0.0692
     58  N         10.2070   -4.7470  -27.2990 N.3    90  LEU90      -0.1245
     59  CA         9.9690   -5.6100  -28.4430 C.3    90  LEU90       0.1561
     60  C          9.8710   -4.7800  -29.7100 C.2    90  LEU90       0.2260
     61  O          9.6870   -3.5670  -29.6570 O.2    90  LEU90      -0.2867
     62  CB         8.6580   -6.3610  -28.2500 C.3    90  LEU90       0.0270
     63  CG         8.5520   -7.2160  -26.9850 C.3    90  LEU90       0.0019
     64  CD1        7.1630   -7.8290  -26.8950 C.3    90  LEU90       0.0001
     65  CD2        9.6130   -8.2900  -26.9950 C.3    90  LEU90       0.0001
     66  N          6.0770   -2.8160  -27.3460 N.3    94  ARG94      -0.1231
     67  CA         5.7200   -3.1870  -25.9900 C.3    94  ARG94       0.1694
     68  C          6.9860   -3.3990  -25.1840 C.2    94  ARG94       0.2592
     69  O          8.0030   -3.8810  -25.6950 O.2    94  ARG94      -0.2718
     70  CB         4.8720   -4.4540  -25.9800 C.3    94  ARG94       0.0321
     71  CG         3.4360   -4.2230  -26.4220 C.3    94  ARG94       0.0489
     72  CD         2.6580   -5.5210  -26.4230 C.3    94  ARG94       0.2205
     73  NE         3.2770   -6.5050  -27.3020 N.pl3  94  ARG94      -0.0865
     74  CZ         2.9370   -7.7890  -27.3490 C.cat  94  ARG94       0.5346
     75  NH1        1.9790   -8.2570  -26.5610 N.pl3  94  ARG94       0.1354
     76  NH2        3.5620   -8.6050  -28.1850 N.pl3  94  ARG94       0.1354
     77  N          6.9240   -3.0210  -23.9210 N.am   95  ARG95      -0.1966
     78  CA         8.0670   -3.1800  -23.0590 C.3    95  ARG95       0.1729
     79  C          7.9190   -4.4160  -22.1890 C.2    95  ARG95       0.2616
     80  O          6.8140   -4.7970  -21.8100 O.2    95  ARG95      -0.2715
     81  CB         8.3310   -1.8870  -22.2780 C.3    95  ARG95       0.0348
     82  CG         9.3730   -1.0120  -23.0290 C.3    95  ARG95       0.0492
     83  CD         9.1440    0.4940  -22.9870 C.3    95  ARG95       0.2205
     84  NE        10.1740    1.2210  -23.7450 N.pl3  95  ARG95      -0.0865
     85  CZ        10.3840    2.5310  -23.6580 C.cat  95  ARG95       0.5346
     86  NH1        9.6430    3.2730  -22.8470 N.pl3  95  ARG95       0.1354
     87  NH2       11.3390    3.1050  -24.3790 N.pl3  95  ARG95       0.1354
     88  N          9.0390   -5.0750  -21.9420 N.am   96  VAL96      -0.1977
     89  CA         9.0950   -6.1660  -20.9960 C.3    96  VAL96       0.1596
     90  C         10.0760   -5.7250  -19.9270 C.2    96  VAL96       0.2287
     91  O         11.1100   -5.1270  -20.2220 O.2    96  VAL96      -0.2864
     92  CB         9.5380   -7.4860  -21.6660 C.3    96  VAL96       0.0276
     93  CG1        8.6960   -7.7630  -22.9000 C.3    96  VAL96       0.0022
     94  CG2       10.9880   -7.4390  -22.0580 C.3    96  VAL96       0.0022
@<TRIPOS>BOND
     1    60    61    2
     2    60    59    1
     3    59    62    1
     4    59    58    1
     5    62    63    1
     6    76    74    1
     7    74    73    2
     8    74    75    1
     9    66    67    1
    10    73    72    1
    11    65    63    1
    12    63    64    1
    13    72    71    1
    14    71    70    1
    15    26    24    1
    16    67    70    1
    17    67    68    1
    18    69    68    2
    19    68    77   am
    20    23    22    2
    21    24    25    1
    22    24    21    1
    23    22    21    1
    24    87    85    1
    25    21    20    1
    26    77    78    1
    27    84    85    2
    28    84    83    1
    29    85    86    1
    30    78    81    1
    31    78    79    1
    32    20    14   am
    33    82    83    1
    34    82    81    1
    35    93    92    1
    36    19    17    1
    37    79    88   am
    38    79    80    2
    39    94    92    1
    40    88    89    1
    41    14    15    2
    42    14    13    1
    43    92    89    1
    44    16    17    1
    45    16    13    1
    46    16    18    1
    47    89    90    1
    48    13    12    1
    49    36    35    1
    50    11     9    1
    51    37    35    1
    52    91    90    2
    53    10     9    1
    54    35    34    2
    55     9     8    2
    56    57    56    1
    57    56    55    1
    58    49    48    1
    59    55    54    1
    60    34    33    1
    61    33    32    1
    62    48    45    1
    63     8     7    1
    64    47    46    2
    65    45    46    1
    66    45    44    1
    67    43    42    1
    68    54    51    1
    69    32    31    1
    70    41    40    2
    71    31    28    1
    72     7     6    1
    73    44    40   am
    74    40    39    1
    75    42    39    1
    76    51    50    1
    77    51    52    1
    78     6     5    1
    79    28    27    1
    80    28    29    1
    81    39    38    1
    82     4     3    2
    83     3     2    1
    84    52    53    2
    85     5     2    1
    86    29    30    2
    87     2     1    1
