@<TRIPOS>MOLECULE
tmp/4lurA01.pdb
 139 128 0 0 0
SMALL
GASTEIGER

@<TRIPOS>ATOM
      1  N        -30.4400   50.6230   20.1450 N.3     6  ILE6       -0.1245
      2  CA       -29.3120   50.1620   20.9620 C.3     6  ILE6        0.1561
      3  C        -29.5220   48.7040   21.3390 C.2     6  ILE6        0.2260
      4  O        -28.6340   47.8750   21.1480 O.2     6  ILE6       -0.2867
      5  CB       -29.0780   51.0260   22.2330 C.3     6  ILE6        0.0252
      6  CG1      -29.1830   52.5250   21.9290 C.3     6  ILE6        0.0019
      7  CG2      -27.7320   50.6920   22.8820 C.3     6  ILE6        0.0019
      8  CD1      -28.1570   53.0640   20.9400 C.3     6  ILE6        0.0001
      9  N        -27.1460   45.5580   20.1800 N.3     9  ALA9       -0.1245
     10  CA       -26.5720   44.8040   21.2770 C.3     9  ALA9        0.1562
     11  C        -26.8670   43.3180   21.1420 C.2     9  ALA9        0.2260
     12  O        -25.9780   42.4990   21.3470 O.2     9  ALA9       -0.2867
     13  CB       -27.0880   45.3290   22.5930 C.3     9  ALA9        0.0290
     14  N        -24.6640   41.8330   18.3800 N.3    12  PHE12      -0.1241
     15  CA       -23.3260   41.6650   18.9420 C.3    12  PHE12       0.1605
     16  C        -23.2430   40.4620   19.8950 C.2    12  PHE12       0.2264
     17  O        -22.3650   39.6010   19.7380 O.2    12  PHE12      -0.2867
     18  CB       -22.8340   42.9470   19.6370 C.3    12  PHE12       0.0534
     19  CG       -21.5490   42.7460   20.3900 C.ar   12  PHE12      -0.0203
     20  CD1      -20.3280   42.7070   19.7070 C.ar   12  PHE12      -0.0042
     21  CD2      -21.5530   42.5330   21.7660 C.ar   12  PHE12      -0.0042
     22  CE1      -19.1240   42.4860   20.3890 C.ar   12  PHE12      -0.0003
     23  CE2      -20.3540   42.3080   22.4600 C.ar   12  PHE12      -0.0003
     24  CZ       -19.1340   42.2960   21.7620 C.ar   12  PHE12      -0.0000
     25  N        -23.7280   47.2200   30.6430 N.3    26  ALA26      -0.1231
     26  CA       -23.3470   48.4200   29.8920 C.3    26  ALA26       0.1694
     27  C        -24.3670   48.7470   28.7970 C.2    26  ALA26       0.2591
     28  O        -24.5420   49.9140   28.4360 O.2    26  ALA26      -0.2718
     29  CB       -21.9510   48.2870   29.3130 C.3    26  ALA26       0.0304
     30  N        -25.0230   47.7080   28.2780 N.am   27  ILE27      -0.1980
     31  CA       -26.1380   47.8380   27.3310 C.3    27  ILE27       0.1595
     32  C        -27.2990   48.5940   27.9740 C.2    27  ILE27       0.2287
     33  O        -27.7830   49.6000   27.4330 O.2    27  ILE27      -0.2864
     34  CB       -26.6060   46.4330   26.8170 C.3    27  ILE27       0.0276
     35  CG1      -25.5750   45.8590   25.8360 C.3    27  ILE27       0.0022
     36  CG2      -27.9920   46.4910   26.1630 C.3    27  ILE27       0.0022
     37  CD1      -25.5770   44.3200   25.7460 C.3    27  ILE27       0.0001
     38  N        -26.3100   52.2440   28.6040 N.3    30  ALA30      -0.1245
     39  CA       -26.2570   52.9490   27.3220 C.3    30  ALA30       0.1562
     40  C        -27.6440   53.3370   26.8050 C.2    30  ALA30       0.2260
     41  O        -27.8060   54.3940   26.1930 O.2    30  ALA30      -0.2867
     42  CB       -25.5090   52.1090   26.2860 C.3    30  ALA30       0.0290
     43  N        -28.5930   56.4460   28.7180 N.3    33  ASN33      -0.1240
     44  CA       -27.6050   57.5050   28.7130 C.3    33  ASN33       0.1653
     45  C        -28.1630   58.6420   27.8590 C.2    33  ASN33       0.2266
     46  O        -28.3990   58.4850   26.6620 O.2    33  ASN33      -0.2867
     47  CB       -26.2580   56.9860   28.1910 C.3    33  ASN33       0.1155
     48  CG       -25.1370   58.0160   28.3030 C.2    33  ASN33       0.2627
     49  OD1      -25.2850   59.1750   27.9130 O.2    33  ASN33      -0.2716
     50  ND2      -23.9920   57.5820   28.8150 N.am   33  ASN33      -0.0877
     51  N        -26.8690   61.5630   27.0390 N.3    35  GLU35      -0.1231
     52  CA       -25.9360   62.0780   26.0100 C.3    35  GLU35       0.1699
     53  C        -26.0440   61.3070   24.6780 C.2    35  GLU35       0.2592
     54  O        -26.0880   61.9170   23.6050 O.2    35  GLU35      -0.2718
     55  CB       -24.4900   62.0950   26.5050 C.3    35  GLU35       0.0402
     56  CG       -23.4530   62.4390   25.3980 C.3    35  GLU35       0.1161
     57  CD       -23.6250   63.8550   24.8290 C.2    35  GLU35       0.3649
     58  OE1      -24.1990   64.7120   25.5360 O.co2  35  GLU35      -0.2457
     59  OE2      -23.1940   64.1070   23.6750 O.co2  35  GLU35      -0.2457
     60  N        -26.0890   59.9740   24.7580 N.am   36  ILE36      -0.1980
     61  CA       -26.3770   59.1090   23.5940 C.3    36  ILE36       0.1595
     62  C        -27.7370   59.4510   22.9710 C.2    36  ILE36       0.2287
     63  O        -27.8450   59.6750   21.7660 O.2    36  ILE36      -0.2864
     64  CB       -26.3270   57.6040   23.9710 C.3    36  ILE36       0.0276
     65  CG1      -24.8930   57.2110   24.3330 C.3    36  ILE36       0.0022
     66  CG2      -26.8570   56.7160   22.8110 C.3    36  ILE36       0.0022
     67  CD1      -24.7460   55.7910   24.8330 C.3    36  ILE36       0.0001
     68  N        -19.7020   56.7730   18.6080 N.3    47  VAL47      -0.1231
     69  CA       -19.8160   56.7870   20.0470 C.3    47  VAL47       0.1692
     70  C        -20.0310   55.3740   20.5790 C.2    47  VAL47       0.2591
     71  O        -19.3780   54.9650   21.5330 O.2    47  VAL47      -0.2718
     72  CB       -20.9570   57.7340   20.4910 C.3    47  VAL47       0.0266
     73  CG1      -21.3150   57.5390   21.9490 C.3    47  VAL47       0.0020
     74  CG2      -20.5550   59.1940   20.2180 C.3    47  VAL47       0.0020
     75  N        -20.9380   54.6290   19.9640 N.am   48  LEU48      -0.1980
     76  CA       -21.2120   53.2840   20.4430 C.3    48  LEU48       0.1596
     77  C        -19.9770   52.3870   20.2490 C.2    48  LEU48       0.2287
     78  O        -19.7150   51.5000   21.0690 O.2    48  LEU48      -0.2864
     79  CB       -22.4540   52.6980   19.7650 C.3    48  LEU48       0.0297
     80  CG       -23.7770   53.4330   20.0250 C.3    48  LEU48       0.0022
     81  CD1      -24.8830   52.8780   19.1180 C.3    48  LEU48       0.0001
     82  CD2      -24.1970   53.3640   21.5010 C.3    48  LEU48       0.0001
     83  N        -17.5070   53.2130   22.9050 N.3    51  GLY51      -0.1210
     84  CA       -18.1090   52.7070   24.1280 C.3    51  GLY51       0.1956
     85  C        -17.8450   51.2310   24.3560 C.2    51  GLY51       0.2611
     86  O        -17.5380   50.8240   25.4770 O.2    51  GLY51      -0.2717
     87  N        -17.9690   50.4290   23.2980 N.am   52  VAL52      -0.1979
     88  CA       -17.6810   48.9930   23.3820 C.3    52  VAL52       0.1595
     89  C        -16.1690   48.7310   23.5700 C.2    52  VAL52       0.2287
     90  O        -15.7830   47.8220   24.3040 O.2    52  VAL52      -0.2864
     91  CB       -18.3390   48.1710   22.2010 C.3    52  VAL52       0.0276
     92  CG1      -17.8860   48.6700   20.8390 C.3    52  VAL52       0.0022
     93  CG2      -18.0770   46.6710   22.3340 C.3    52  VAL52       0.0022
     94  N        -13.9550   50.5780   25.2690 N.3    54  LYS54      -0.1231
     95  CA       -13.6780   50.7670   26.6930 C.3    54  LYS54       0.1693
     96  C        -14.4850   49.7890   27.5530 C.2    54  LYS54       0.2592
     97  O        -14.6360   49.9930   28.7620 O.2    54  LYS54      -0.2718
     98  CB       -13.9520   52.2220   27.1170 C.3    54  LYS54       0.0285
     99  CG       -13.0090   53.3060   26.4070 C.3    54  LYS54       0.0035
    100  CD       -13.3980   54.6780   26.9450 C.3    54  LYS54       0.0206
    101  CE       -12.5140   55.7730   26.3650 C.3    54  LYS54       0.1093
    102  NZ       -12.9000   57.1260   26.8630 N.3    54  LYS54      -0.1314
    103  N        -14.9870   48.7240   26.9280 N.am   55  THR55      -0.1953
    104  CA       -15.7400   47.6800   27.6360 C.3    55  THR55       0.1897
    105  C        -15.2370   46.2680   27.2850 C.2    55  THR55       0.2313
    106  O        -15.2060   45.3790   28.1420 O.2    55  THR55      -0.2863
    107  CB       -17.2630   47.7710   27.3320 C.3    55  THR55       0.1794
    108  OG1      -17.7180   49.1200   27.5110 O.3    55  THR55      -0.2208
    109  CG2      -18.0750   46.8350   28.2440 C.3    55  THR55       0.0378
    110  N        -14.4520   45.1460   16.6090 N.3    61  VAL61      -0.1231
    111  CA       -15.8910   45.3130   16.7640 C.3    61  VAL61       0.1692
    112  C        -16.2250   46.7710   16.4810 C.2    61  VAL61       0.2592
    113  O        -15.6140   47.6700   17.0510 O.2    61  VAL61      -0.2718
    114  CB       -16.3590   44.9080   18.1730 C.3    61  VAL61       0.0266
    115  CG1      -17.8030   45.3560   18.4150 C.3    61  VAL61       0.0020
    116  CG2      -16.2400   43.3800   18.3600 C.3    61  VAL61       0.0020
    117  N        -17.2140   46.9890   15.6300 N.am   62  LYS62      -0.1966
    118  CA       -17.5250   48.3230   15.1320 C.3    62  LYS62       0.1728
    119  C        -19.0320   48.4370   14.8710 C.2    62  LYS62       0.2616
    120  O        -19.6790   47.4640   14.5220 O.2    62  LYS62      -0.2715
    121  CB       -16.7390   48.5570   13.8400 C.3    62  LYS62       0.0311
    122  CG       -16.8410   49.9740   13.2470 C.3    62  LYS62       0.0038
    123  CD       -15.8370   50.1700   12.0900 C.3    62  LYS62       0.0206
    124  CE       -15.9960   49.1010   10.9770 C.3    62  LYS62       0.1093
    125  NZ       -15.3410   49.4860    9.6680 N.3    62  LYS62      -0.1314
    126  N        -19.5900   49.6250   15.0660 N.am   63  VAL63      -0.1977
    127  CA       -20.9140   49.9070   14.5270 C.3    63  VAL63       0.1596
    128  C        -20.7530   51.0230   13.4950 C.2    63  VAL63       0.2287
    129  O        -20.0160   51.9890   13.7050 O.2    63  VAL63      -0.2864
    130  CB       -22.0010   50.1890   15.6240 C.3    63  VAL63       0.0276
    131  CG1      -21.5830   51.2490   16.5610 C.3    63  VAL63       0.0022
    132  CG2      -23.3540   50.5630   14.9700 C.3    63  VAL63       0.0022
    133  N        -23.5260   46.1270   12.3630 N.3   243  VAL243     -0.1245
    134  CA       -22.6500   45.6740   13.4340 C.3   243  VAL243      0.1561
    135  C        -21.6180   44.7430   12.8030 C.2   243  VAL243      0.2260
    136  O        -21.9660   43.7610   12.1600 O.2   243  VAL243     -0.2867
    137  CB       -23.4390   44.9730   14.5790 C.3   243  VAL243      0.0252
    138  CG1      -22.4880   44.4060   15.6440 C.3   243  VAL243      0.0019
    139  CG2      -24.4310   45.9530   15.2280 C.3   243  VAL243      0.0019
@<TRIPOS>BOND
     1   125   124    1
     2   124   123    1
     3   123   122    1
     4   136   135    2
     5   133   134    1
     6   135   134    1
     7   122   121    1
     8   134   137    1
     9   128   129    2
    10   128   127    1
    11   121   118    1
    12   120   119    2
    13   127   126    1
    14   127   130    1
    15   137   139    1
    16   137   138    1
    17   119   126   am
    18   119   118    1
    19   132   130    1
    20   118   117    1
    21   130   131    1
    22   117   112   am
    23   112   111    1
    24   112   113    2
    25   110   111    1
    26   111   114    1
    27   114   116    1
    28   114   115    1
    29    14    15    1
    30    68    69    1
    31    15    18    1
    32    15    16    1
    33    81    80    1
    34    18    19    1
    35    20    22   ar
    36    20    19   ar
    37    17    16    2
    38    79    80    1
    39    79    76    1
    40    75    76    1
    41    75    70   am
    42    80    82    1
    43    69    72    1
    44    69    70    1
    45     1     2    1
    46     9    10    1
    47    74    72    1
    48    77    76    1
    49    77    78    2
    50    22    24   ar
    51    19    21   ar
    52    72    73    1
    53    70    71    2
    54    92    91    1
    55     8     6    1
    56     2     3    1
    57     2     5    1
    58    11    10    1
    59    11    12    2
    60     4     3    2
    61    10    13    1
    62    24    23   ar
    63    21    23   ar
    64    63    62    2
    65     6     5    1
    66    91    93    1
    67    91    88    1
    68     5     7    1
    69    66    64    1
    70    83    84    1
    71    62    61    1
    72    87    88    1
    73    87    85   am
    74    88    89    1
    75    89    90    2
    76    61    64    1
    77    61    60    1
    78    54    53    2
    79    59    57   ar
    80    64    65    1
    81    84    85    1
    82    65    67    1
    83    85    86    2
    84    53    60   am
    85    53    52    1
    86    57    56    1
    87    57    58   ar
    88    94    95    1
    89    56    55    1
    90    37    35    1
    91    35    34    1
    92    52    55    1
    93    52    51    1
    94    36    34    1
    95    41    40    2
    96    42    39    1
    97   101   102    1
    98   101   100    1
    99    99   100    1
   100    99    98    1
   101    46    45    2
   102    95    98    1
   103    95    96    1
   104    40    39    1
   105    34    31    1
   106   103    96   am
   107   103   104    1
   108   105   104    1
   109   105   106    2
   110    39    38    1
   111    31    32    1
   112    31    30    1
   113   107   108    1
   114   107   104    1
   115   107   109    1
   116    33    32    2
   117    96    97    2
   118    45    44    1
   119    49    48    2
   120    47    48    1
   121    47    44    1
   122    30    27   am
   123    48    50   am
   124    28    27    2
   125    44    43    1
   126    27    26    1
   127    29    26    1
   128    26    25    1
