@<TRIPOS>MOLECULE
tmp/4lusB00.pdb
 123 116 0 0 0
SMALL
GASTEIGER

@<TRIPOS>ATOM
      1  N          0.4240   -5.2490  -64.5730 N.3    58  TYR58      -0.1241
      2  CA        -0.0370   -5.2910  -63.2130 C.3    58  TYR58       0.1605
      3  C         -1.5480   -5.1350  -63.1930 C.2    58  TYR58       0.2264
      4  O         -2.1230   -4.6330  -64.1260 O.2    58  TYR58      -0.2867
      5  CB         0.5980   -4.1830  -62.3910 C.3    58  TYR58       0.0534
      6  CG         1.3230   -4.6140  -61.1930 C.ar   58  TYR58      -0.0201
      7  CD1        0.6750   -5.0520  -60.0830 C.ar   58  TYR58      -0.0009
      8  CD2        2.6870   -4.5780  -61.1720 C.ar   58  TYR58      -0.0009
      9  CE1        1.3690   -5.4300  -58.9730 C.ar   58  TYR58       0.0417
     10  CE2        3.3930   -4.9740  -60.0750 C.ar   58  TYR58       0.0417
     11  CZ         2.7500   -5.3800  -58.9730 C.ar   58  TYR58       0.1957
     12  OH         3.4970   -5.7800  -57.9490 O.3    58  TYR58      -0.2866
     13  N         -7.1270  -14.5850  -57.4220 N.3    71  ARG71      -0.1245
     14  CA        -6.3230  -15.7860  -57.3160 C.3    71  ARG71       0.1563
     15  C         -7.1760  -17.0450  -57.3900 C.2    71  ARG71       0.2260
     16  O         -6.8470  -17.9840  -58.0170 O.2    71  ARG71      -0.2867
     17  CB        -5.4990  -15.7510  -56.0680 C.3    71  ARG71       0.0307
     18  CG        -4.4800  -14.6630  -56.0010 C.3    71  ARG71       0.0489
     19  CD        -3.5420  -14.6340  -57.1690 C.3    71  ARG71       0.2205
     20  NE        -2.4810  -13.6390  -57.0480 N.pl3  71  ARG71      -0.0865
     21  CZ        -1.8370  -13.1160  -58.0630 C.cat  71  ARG71       0.5346
     22  NH1       -2.1180  -13.5000  -59.2650 N.pl3  71  ARG71       0.1354
     23  NH2       -0.9220  -12.2370  -57.8640 N.pl3  71  ARG71       0.1354
     24  N         -2.9960  -14.9360  -62.7710 N.3    76  THR76      -0.1218
     25  CA        -1.5950  -15.0370  -62.4330 C.3    76  THR76       0.1862
     26  C         -0.7950  -13.7370  -62.4100 C.2    76  THR76       0.2287
     27  O          0.2850  -13.7140  -61.9470 O.2    76  THR76      -0.2866
     28  CB        -0.8710  -16.1010  -63.2780 C.3    76  THR76       0.1770
     29  OG1       -0.9010  -15.7580  -64.6460 O.3    76  THR76      -0.2211
     30  CG2       -1.4850  -17.4010  -63.1160 C.3    76  THR76       0.0375
     31  N          0.7280  -10.0190  -61.6040 N.3    78  PRO78      -0.2102
     32  CA         0.9350   -9.3180  -60.3280 C.3    78  PRO78       0.1504
     33  C         -0.2860   -8.4720  -59.9380 C.2    78  PRO78       0.2575
     34  O         -0.9380   -7.9260  -60.7780 O.2    78  PRO78      -0.2718
     35  CB         2.1430   -8.4360  -60.5870 C.3    78  PRO78       0.0282
     36  CG         2.8940   -9.0940  -61.6310 C.3    78  PRO78       0.0208
     37  CD         1.8870   -9.6080  -62.5430 C.3    78  PRO78       0.0893
     38  N         -0.6080   -8.4530  -58.6650 N.am   79  ILE79      -0.1980
     39  CA        -1.7210   -7.6970  -58.1320 C.3    79  ILE79       0.1595
     40  C         -1.2850   -6.7300  -57.0500 C.2    79  ILE79       0.2287
     41  O         -0.7010   -7.1100  -56.0900 O.2    79  ILE79      -0.2864
     42  CB        -2.8150   -8.6000  -57.5170 C.3    79  ILE79       0.0276
     43  CG1       -3.4230   -9.5220  -58.5310 C.3    79  ILE79       0.0022
     44  CG2       -3.9080   -7.8170  -56.8620 C.3    79  ILE79       0.0022
     45  CD1       -4.3360  -10.5230  -57.9310 C.3    79  ILE79       0.0001
     46  N          0.2650  -12.2570  -48.3110 N.3    94  ILE94      -0.1245
     47  CA         1.5370  -12.8640  -48.6860 C.3    94  ILE94       0.1561
     48  C          1.3840  -14.2200  -49.3330 C.2    94  ILE94       0.2260
     49  O          1.9750  -14.4990  -50.2980 O.2    94  ILE94      -0.2867
     50  CB         2.5390  -12.8890  -47.5260 C.3    94  ILE94       0.0252
     51  CG1        2.9610  -11.4940  -47.1830 C.3    94  ILE94       0.0019
     52  CG2        3.7820  -13.6430  -47.8940 C.3    94  ILE94       0.0019
     53  CD1        2.8960  -11.2060  -45.7280 C.3    94  ILE94       0.0001
     54  N          0.0840  -13.8570  -52.8930 N.3    97  LYS97      -0.1231
     55  CA         0.9640  -13.0310  -53.6750 C.3    97  LYS97       0.1693
     56  C          0.3450  -11.6950  -54.0890 C.2    97  LYS97       0.2592
     57  O          0.3360  -11.3790  -55.2300 O.2    97  LYS97      -0.2718
     58  CB         1.5030  -13.7860  -54.8750 C.3    97  LYS97       0.0285
     59  CG         1.9790  -15.1840  -54.6200 C.3    97  LYS97       0.0035
     60  CD         2.9010  -15.7040  -55.7030 C.3    97  LYS97       0.0206
     61  CE         3.0510  -17.2140  -55.6700 C.3    97  LYS97       0.1093
     62  NZ         3.2200  -17.7530  -54.3150 N.3    97  LYS97      -0.1314
     63  N         -0.1830  -10.9560  -53.1330 N.am   98  ILE98      -0.1966
     64  CA        -0.7450   -9.6410  -53.3660 C.3    98  ILE98       0.1727
     65  C          0.2130   -8.5790  -52.8920 C.2    98  ILE98       0.2616
     66  O          0.4940   -8.5110  -51.7570 O.2    98  ILE98      -0.2715
     67  CB        -2.0420   -9.4320  -52.5430 C.3    98  ILE98       0.0290
     68  CG1       -3.0130  -10.5790  -52.6430 C.3    98  ILE98       0.0022
     69  CG2       -2.7140   -8.1410  -52.8810 C.3    98  ILE98       0.0023
     70  CD1       -3.3910  -10.9060  -54.0030 C.3    98  ILE98       0.0001
     71  N          0.7050   -7.7600  -53.7790 N.am   99  THR99      -0.1951
     72  CA         1.5310   -6.6620  -53.4050 C.3    99  THR99       0.1897
     73  C          0.7310   -5.6760  -52.5810 C.2    99  THR99       0.2313
     74  O         -0.3140   -5.2590  -52.9520 O.2    99  THR99      -0.2863
     75  CB         2.1260   -5.9800  -54.6450 C.3    99  THR99       0.1794
     76  OG1        2.6690   -6.9520  -55.5050 O.3    99  THR99      -0.2208
     77  CG2        3.1910   -5.0520  -54.2700 C.3    99  THR99       0.0378
     78  N          8.7370  -16.1950  -46.9160 N.3   120  GLU120     -0.1231
     79  CA         8.4860  -15.5530  -48.1770 C.3   120  GLU120      0.1699
     80  C          8.8950  -14.1280  -48.0540 C.2   120  GLU120      0.2592
     81  O          8.7100  -13.5460  -47.0300 O.2   120  GLU120     -0.2718
     82  CB         7.0180  -15.5920  -48.4720 C.3   120  GLU120      0.0402
     83  CG         6.7370  -15.7760  -49.9260 C.3   120  GLU120      0.1161
     84  CD         6.7250  -17.2310  -50.3230 C.2   120  GLU120      0.3649
     85  OE1        6.7410  -17.5130  -51.5280 O.co2 120  GLU120     -0.2457
     86  OE2        6.6970  -18.0930  -49.4370 O.co2 120  GLU120     -0.2457
     87  N          9.4560  -13.5580  -49.0910 N.am  121  LYS121     -0.1966
     88  CA         9.5620  -12.1290  -49.1650 C.3   121  LYS121      0.1728
     89  C          8.2450  -11.5240  -49.6060 C.2   121  LYS121      0.2616
     90  O          7.6850  -11.9610  -50.5780 O.2   121  LYS121     -0.2715
     91  CB        10.5910  -11.7440  -50.1730 C.3   121  LYS121      0.0311
     92  CG        11.9570  -12.1750  -49.7870 C.3   121  LYS121      0.0038
     93  CD        12.8970  -11.7330  -50.8710 C.3   121  LYS121      0.0206
     94  CE        14.2820  -12.1830  -50.5590 C.3   121  LYS121      0.1093
     95  NZ        14.6610  -11.5060  -49.3170 N.3   121  LYS121     -0.1314
     96  N          7.7970  -10.5000  -48.8790 N.am  122  ALA122     -0.1963
     97  CA         6.5940   -9.7420  -49.1670 C.3   122  ALA122      0.1728
     98  C          6.8810   -8.5980  -50.0980 C.2   122  ALA122      0.2616
     99  O          7.6770   -7.7840  -49.8280 O.2   122  ALA122     -0.2715
    100  CB         6.0090   -9.2020  -47.9080 C.3   122  ALA122      0.0334
    101  N          6.1980   -8.5560  -51.2000 N.am  123  CYS123     -0.1968
    102  CA         6.3580   -7.4790  -52.1400 C.3   123  CYS123      0.1712
    103  C          5.5290   -6.2690  -51.7230 C.2   123  CYS123      0.2296
    104  O          4.4020   -6.4030  -51.4470 O.2   123  CYS123     -0.2864
    105  CB         5.9650   -7.9810  -53.5000 C.3   123  CYS123      0.0983
    106  SG         6.2660   -6.9450  -54.8690 S.3   123  CYS123     -0.0798
    107  N         10.4190   -7.1180  -50.2310 N.3   152  ASP152     -0.1239
    108  CA        10.8010   -6.6750  -51.5390 C.3   152  ASP152      0.1674
    109  C         10.1310   -5.3500  -51.8300 C.2   152  ASP152      0.2266
    110  O          9.0150   -5.2800  -52.2360 O.2   152  ASP152     -0.2867
    111  CB        10.4440   -7.7390  -52.5660 C.3   152  ASP152      0.1410
    112  CG        10.6070   -7.2970  -53.9570 C.2   152  ASP152      0.3668
    113  OD1       11.1870   -6.2920  -54.2400 O.co2 152  ASP152     -0.2456
    114  OD2       10.1180   -7.9600  -54.8220 O.co2 152  ASP152     -0.2456
    115  N          9.5050   -3.2300  -54.1780 N.3   154  GLU154     -0.1245
    116  CA         9.3340   -3.0540  -55.6020 C.3   154  GLU154      0.1567
    117  C          8.9680   -1.6850  -56.1500 C.2   154  GLU154      0.2260
    118  O          9.4640   -1.3070  -57.1370 O.2   154  GLU154     -0.2867
    119  CB         8.3900   -4.1180  -56.1600 C.3   154  GLU154      0.0388
    120  CG         8.0630   -3.9570  -57.6150 C.3   154  GLU154      0.1160
    121  CD         6.9940   -4.8690  -58.1060 C.2   154  GLU154      0.3649
    122  OE1        7.2580   -5.9980  -58.3200 O.co2 154  GLU154     -0.2457
    123  OE2        5.8970   -4.4580  -58.3020 O.co2 154  GLU154     -0.2457
@<TRIPOS>BOND
     1    29    28    1
     2     1     2    1
     3     4     3    2
     4    28    30    1
     5    28    25    1
     6     2     3    1
     7     2     5    1
     8    24    25    1
     9    37    36    1
    10    37    31    1
    11    25    26    1
    12    26    27    2
    13     5     6    1
    14    36    35    1
    15    31    32    1
    16     6     8   ar
    17     6     7   ar
    18     8    10   ar
    19    34    33    2
    20    35    32    1
    21    32    33    1
    22     7     9   ar
    23    10    11   ar
    24    33    38   am
    25    22    21    1
    26    11     9   ar
    27    11    12    1
    28    38    39    1
    29    43    45    1
    30    43    42    1
    31   122   121   ar
    32   123   121   ar
    33    39    42    1
    34    39    40    1
    35   121   120    1
    36    21    23    1
    37    21    20    2
    38    16    15    2
    39   120   119    1
    40    42    44    1
    41    13    14    1
    42    15    14    1
    43    14    17    1
    44    19    20    1
    45    19    18    1
    46   118   117    2
    47    40    41    2
    48   119   116    1
    49   117   116    1
    50    17    18    1
    51    60    61    1
    52    60    59    1
    53    61    62    1
    54   116   115    1
    55    76    75    1
    56    57    56    2
    57    58    59    1
    58    58    55    1
    59   106   105    1
    60   114   112   ar
    61    75    77    1
    62    75    72    1
    63   113   112   ar
    64    56    55    1
    65    56    63   am
    66    70    68    1
    67   112   111    1
    68    71    72    1
    69    71    65   am
    70    55    54    1
    71   105   102    1
    72    72    73    1
    73    64    63    1
    74    64    65    1
    75    64    67    1
    76    74    73    2
    77    65    66    2
    78    69    67    1
    79    68    67    1
    80   111   108    1
    81   110   109    2
    82   102   103    1
    83   102   101    1
    84   109   108    1
    85   103   104    2
    86   108   107    1
    87    85    84   ar
    88   101    98   am
    89    93    94    1
    90    93    92    1
    91    90    89    2
    92    94    95    1
    93    84    83    1
    94    84    86   ar
    95    49    48    2
    96    91    92    1
    97    91    88    1
    98    98    99    2
    99    98    97    1
   100    83    82    1
   101    89    88    1
   102    89    96   am
   103    48    47    1
   104    97    96    1
   105    97   100    1
   106    88    87    1
   107    87    80   am
   108    47    46    1
   109    47    50    1
   110    82    79    1
   111    79    80    1
   112    79    78    1
   113    80    81    2
   114    52    50    1
   115    50    51    1
   116    51    53    1
