@<TRIPOS>MOLECULE
tmp/4lutA00.pdb
 135 127 0 0 0
SMALL
GASTEIGER

@<TRIPOS>ATOM
      1  N         22.0320   45.0740   88.5530 N.3    35  VAL35      -0.1245
      2  CA        23.4120   44.9320   88.9840 C.3    35  VAL35       0.1561
      3  C         23.8460   43.4690   88.7870 C.2    35  VAL35       0.2260
      4  O         23.3210   42.5770   89.4380 O.2    35  VAL35      -0.2867
      5  CB        23.5810   45.3320   90.4560 C.3    35  VAL35       0.0252
      6  CG1       25.0260   45.1270   90.9010 C.3    35  VAL35       0.0019
      7  CG2       23.1560   46.7770   90.6670 C.3    35  VAL35       0.0019
      8  N         27.3150   42.3550   88.4840 N.3    37  LYS37      -0.1245
      9  CA        28.7310   42.1890   88.7060 C.3    37  LYS37       0.1561
     10  C         29.0000   40.8570   89.3790 C.2    37  LYS37       0.2260
     11  O         28.0920   40.2220   89.9070 O.2    37  LYS37      -0.2867
     12  CB        29.2870   43.3470   89.5290 C.3    37  LYS37       0.0271
     13  CG        28.6980   43.5240   90.9160 C.3    37  LYS37       0.0035
     14  CD        28.8240   44.9750   91.3640 C.3    37  LYS37       0.0206
     15  CE        28.1670   45.1980   92.7050 C.3    37  LYS37       0.1093
     16  NZ        28.9220   44.5110   93.7780 N.3    37  LYS37      -0.1314
     17  N         26.4340   37.7980   90.5530 N.3    41  TYR41      -0.1241
     18  CA        26.4960   37.1830   91.8800 C.3    41  TYR41       0.1605
     19  C         26.4770   35.6470   91.7430 C.2    41  TYR41       0.2264
     20  O         25.7360   34.9430   92.4540 O.2    41  TYR41      -0.2867
     21  CB        25.3390   37.6550   92.7700 C.3    41  TYR41       0.0534
     22  CG        25.2580   39.1530   93.1150 C.ar   41  TYR41      -0.0201
     23  CD1       25.7560   40.1550   92.2680 C.ar   41  TYR41      -0.0009
     24  CD2       24.6380   39.5650   94.2850 C.ar   41  TYR41      -0.0009
     25  CE1       25.6510   41.5070   92.6010 C.ar   41  TYR41       0.0417
     26  CE2       24.5390   40.9070   94.6260 C.ar   41  TYR41       0.0417
     27  CZ        25.0420   41.8730   93.7800 C.ar   41  TYR41       0.1957
     28  OH        24.9280   43.2000   94.1130 O.3    41  TYR41      -0.2866
     29  N         30.6290   50.2340   87.8550 N.3    83  LEU83      -0.1245
     30  CA        30.4160   50.8720   89.1600 C.3    83  LEU83       0.1561
     31  C         31.7020   51.0860   89.8990 C.2    83  LEU83       0.2260
     32  O         31.7740   51.9810   90.7390 O.2    83  LEU83      -0.2867
     33  CB        29.5430   50.0090   90.0630 C.3    83  LEU83       0.0270
     34  CG        28.0780   49.8560   89.6570 C.3    83  LEU83       0.0019
     35  CD1       27.4920   48.6690   90.3850 C.3    83  LEU83       0.0001
     36  CD2       27.2590   51.1080   89.9370 C.3    83  LEU83       0.0001
     37  N         30.5660   59.9730   90.6730 N.3   128  LYS128     -0.1245
     38  CA        30.3390   59.3850   91.9880 C.3   128  LYS128      0.1561
     39  C         30.5420   60.4580   93.0950 C.2   128  LYS128      0.2260
     40  O         31.5050   61.2380   93.0700 O.2   128  LYS128     -0.2867
     41  CB        31.3230   58.2380   92.1670 C.3   128  LYS128      0.0271
     42  CG        30.8360   57.0750   93.0290 C.3   128  LYS128      0.0035
     43  CD        31.0460   57.3300   94.5270 C.3   128  LYS128      0.0206
     44  CE        31.4710   56.0340   95.2210 C.3   128  LYS128      0.1093
     45  NZ        30.3670   55.0410   95.2120 N.3   128  LYS128     -0.1314
     46  N         25.7900   59.5590   90.9440 N.3   156  PHE156     -0.1241
     47  CA        25.3040   58.6540   91.9740 C.3   156  PHE156      0.1605
     48  C         26.1210   58.6100   93.2350 C.2   156  PHE156      0.2264
     49  O         27.2540   59.0540   93.2750 O.2   156  PHE156     -0.2867
     50  CB        25.1570   57.2380   91.4170 C.3   156  PHE156      0.0534
     51  CG        26.4570   56.4940   91.1840 C.ar  156  PHE156     -0.0203
     52  CD1       27.1220   56.6070   89.9810 C.ar  156  PHE156     -0.0042
     53  CD2       26.9470   55.6000   92.1270 C.ar  156  PHE156     -0.0042
     54  CE1       28.2770   55.8820   89.7360 C.ar  156  PHE156     -0.0003
     55  CE2       28.1090   54.8740   91.8960 C.ar  156  PHE156     -0.0003
     56  CZ        28.7720   55.0120   90.6950 C.ar  156  PHE156     -0.0000
     57  N         26.2950   55.7860   96.9470 N.3   158  HIS158     -0.1241
     58  CA        25.9470   54.4550   97.4040 C.3   158  HIS158      0.1621
     59  C         25.8660   54.4630   98.9010 C.2   158  HIS158      0.2264
     60  O         26.7270   55.0230   99.5670 O.2   158  HIS158     -0.2867
     61  CB        27.0160   53.4590   96.9420 C.3   158  HIS158      0.0745
     62  CG        26.6610   52.0200   97.1640 C.ar  158  HIS158      0.0817
     63  ND1       25.4790   51.4610   96.7150 N.ar  158  HIS158     -0.2268
     64  CD2       27.3600   51.0080   97.7340 C.ar  158  HIS158      0.1154
     65  CE1       25.4580   50.1740   97.0180 C.ar  158  HIS158      0.1986
     66  NE2       26.5880   49.8730   97.6340 N.ar  158  HIS158     -0.2212
     67  N         20.2070   51.3110   96.3760 N.3   198  ASN198     -0.1225
     68  CA        20.4870   49.8930   96.1900 C.3   198  ASN198      0.1785
     69  C         19.2530   49.0640   96.5650 C.2   198  ASN198      0.2598
     70  O         18.1720   49.6300   96.7780 O.2   198  ASN198     -0.2718
     71  CB        21.6990   49.4940   97.0210 C.3   198  ASN198      0.1169
     72  CG        21.5220   49.7670   98.5000 C.2   198  ASN198      0.2627
     73  OD1       20.5620   50.4060   98.9330 O.2   198  ASN198     -0.2716
     74  ND2       22.4700   49.2810   99.2880 N.am  198  ASN198     -0.0877
     75  N         19.3980   47.7430   96.6440 N.am  199  SER199     -0.1938
     76  CA        18.2820   46.8580   96.9870 C.3   199  SER199      0.2055
     77  C         17.6060   47.2940   98.2870 C.2   199  SER199      0.2642
     78  O         16.3860   47.4580   98.3300 O.2   199  SER199     -0.2714
     79  CB        18.7490   45.4010   97.1150 C.3   199  SER199      0.2130
     80  OG        19.1980   44.8690   95.8740 O.3   199  SER199     -0.2179
     81  N         18.3950   47.5100   99.3390 N.am  200  ALA200     -0.1977
     82  CA        17.8340   47.8980  100.6400 C.3   200  ALA200      0.1597
     83  C         16.9990   49.1820  100.5570 C.2   200  ALA200      0.2287
     84  O         15.9010   49.2640  101.0950 O.2   200  ALA200     -0.2864
     85  CB        18.9440   48.0570  101.6650 C.3   200  ALA200      0.0319
     86  N         19.1440   50.8210   91.6060 N.3   214  ARG214     -0.1245
     87  CA        20.1210   49.7790   91.3280 C.3   214  ARG214      0.1563
     88  C         19.7230   48.5120   92.0820 C.2   214  ARG214      0.2260
     89  O         19.9180   48.4200   93.2950 O.2   214  ARG214     -0.2867
     90  CB        21.5190   50.2280   91.7750 C.3   214  ARG214      0.0307
     91  CG        22.2350   51.1770   90.8330 C.3   214  ARG214      0.0489
     92  CD        23.6040   51.5430   91.3860 C.3   214  ARG214      0.2205
     93  NE        23.5580   52.9110   91.8420 N.pl3 214  ARG214     -0.0865
     94  CZ        23.6460   53.3550   93.0960 C.cat 214  ARG214      0.5346
     95  NH1       23.9530   52.5880   94.1200 N.pl3 214  ARG214      0.1354
     96  NH2       23.5270   54.6440   93.2930 N.pl3 214  ARG214      0.1354
     97  N         20.2910   44.6900   92.9220 N.3   216  GLY216     -0.1210
     98  CA        21.3100   43.6370   92.9390 C.3   216  GLY216      0.1956
     99  C         20.8170   42.3480   93.5810 C.2   216  GLY216      0.2611
    100  O         20.1920   41.5170   92.9270 O.2   216  GLY216     -0.2717
    101  N         21.0910   42.1910   94.8700 N.am  217  ILE217     -0.1979
    102  CA        20.8000   40.9380   95.5860 C.3   217  ILE217      0.1595
    103  C         19.3550   40.4880   95.3900 C.2   217  ILE217      0.2287
    104  O         19.0850   39.2930   95.2560 O.2   217  ILE217     -0.2864
    105  CB        21.1710   41.0530   97.1050 C.3   217  ILE217      0.0276
    106  CG1       21.1060   39.6900   97.8110 C.3   217  ILE217      0.0022
    107  CG2       20.2980   42.0580   97.8450 C.3   217  ILE217      0.0022
    108  CD1       22.2170   38.7530   97.4220 C.3   217  ILE217      0.0001
    109  N         18.9830   41.7840  101.2180 N.3   224  PRO224     -0.2116
    110  CA        20.2900   42.2880  101.6410 C.3   224  PRO224      0.1372
    111  C         20.5150   42.1490  103.1410 C.2   224  PRO224      0.2244
    112  O         21.6440   42.1950  103.5760 O.2   224  PRO224     -0.2868
    113  CB        20.2750   43.7600  101.2070 C.3   224  PRO224      0.0268
    114  CG        18.8390   44.1270  101.0790 C.3   224  PRO224      0.0207
    115  CD        18.0770   42.8620  100.7730 C.3   224  PRO224      0.0892
    116  N         27.9830   36.5880  104.6560 N.3   345  ILE345     -0.1245
    117  CA        26.6940   37.0210  104.1420 C.3   345  ILE345      0.1561
    118  C         26.3540   36.2330  102.8970 C.2   345  ILE345      0.2260
    119  O         27.2570   35.7050  102.2270 O.2   345  ILE345     -0.2867
    120  CB        26.7140   38.5230  103.8190 C.3   345  ILE345      0.0252
    121  CG1       27.8900   38.8610  102.8830 C.3   345  ILE345      0.0019
    122  CG2       26.8130   39.3210  105.1140 C.3   345  ILE345      0.0019
    123  CD1       28.0410   40.3380  102.5370 C.3   345  ILE345      0.0001
    124  N         25.5260   37.0950   99.9810 N.3   347  TYR347     -0.1241
    125  CA        26.2510   37.6260   98.8310 C.3   347  TYR347      0.1605
    126  C         27.5080   36.7930   98.5400 C.2   347  TYR347      0.2264
    127  O         27.7480   36.3910   97.3940 O.2   347  TYR347     -0.2867
    128  CB        26.7130   39.0670   99.0950 C.3   347  TYR347      0.0534
    129  CG        25.6600   40.1880   99.1860 C.ar  347  TYR347     -0.0201
    130  CD1       25.0700   40.5460  100.4070 C.ar  347  TYR347     -0.0009
    131  CD2       25.3360   40.9520   98.0650 C.ar  347  TYR347     -0.0009
    132  CE1       24.1530   41.5940  100.4890 C.ar  347  TYR347      0.0417
    133  CE2       24.4280   41.9990   98.1430 C.ar  347  TYR347      0.0417
    134  CZ        23.8420   42.3220   99.3550 C.ar  347  TYR347      0.1957
    135  OH        22.9330   43.3640   99.4180 O.3   347  TYR347     -0.2866
@<TRIPOS>BOND
     1    29    30    1
     2     8     9    1
     3     1     2    1
     4     9    10    1
     5     9    12    1
     6     3     2    1
     7     3     4    2
     8     2     5    1
     9    30    31    1
    10    30    33    1
    11    10    11    2
    12    12    13    1
    13    34    36    1
    14    34    33    1
    15    34    35    1
    16    54    52   ar
    17    54    56   ar
    18    31    32    2
    19    52    51   ar
    20     5     7    1
    21     5     6    1
    22    17    18    1
    23    37    38    1
    24    56    55   ar
    25    91    92    1
    26    91    90    1
    27    13    14    1
    28    46    47    1
    29    51    50    1
    30    51    53   ar
    31    87    86    1
    32    87    90    1
    33    87    88    1
    34    14    15    1
    35    92    93    1
    36    50    47    1
    37    19    18    1
    38    19    20    2
    39    93    94    2
    40    18    21    1
    41    55    53   ar
    42    47    48    1
    43    38    41    1
    44    38    39    1
    45    88    89    2
    46    41    42    1
    47    23    25   ar
    48    23    22   ar
    49    25    27   ar
    50    15    16    1
    51    21    22    1
    52    97    98    1
    53   100    99    2
    54    98    99    1
    55    42    43    1
    56    40    39    2
    57    94    96    1
    58    94    95    1
    59    22    24   ar
    60    48    49    2
    61    99   101   am
    62    27    28    1
    63    27    26   ar
    64    24    26   ar
    65    43    44    1
    66   101   102    1
    67    45    44    1
    68   104   103    2
    69   103   102    1
    70   102   105    1
    71    80    79    1
    72    68    67    1
    73    68    69    1
    74    68    71    1
    75    69    75   am
    76    69    70    2
    77    75    76    1
    78    63    65   ar
    79    63    62   ar
    80    61    62    1
    81    61    58    1
    82    57    58    1
    83    76    79    1
    84    76    77    1
    85    65    66   ar
    86    71    72    1
    87   105   106    1
    88   105   107    1
    89    62    64   ar
    90   127   126    2
    91    58    59    1
    92   108   106    1
    93    66    64   ar
    94   131   133   ar
    95   131   129   ar
    96   133   134   ar
    97    77    78    2
    98    77    81   am
    99    72    73    2
   100    72    74   am
   101   126   125    1
   102   125   128    1
   103   125   124    1
   104    59    60    2
   105   128   129    1
   106   129   130   ar
   107    81    82    1
   108   134   135    1
   109   134   132   ar
   110   130   132   ar
   111    83    82    1
   112    83    84    2
   113    82    85    1
   114   115   114    1
   115   115   109    1
   116   114   113    1
   117   113   110    1
   118   109   110    1
   119   110   111    1
   120   119   118    2
   121   123   121    1
   122   121   120    1
   123   118   117    1
   124   111   112    2
   125   120   117    1
   126   120   122    1
   127   117   116    1
