@<TRIPOS>MOLECULE
tmp/4luzA00.pdb
 152 139 0 0 0
SMALL
GASTEIGER

@<TRIPOS>ATOM
      1  N         -2.5430   16.6620  -14.3330 N.3    34  ARG34      -0.1245
      2  CA        -2.1150   17.6720  -15.2870 C.3    34  ARG34       0.1563
      3  C         -3.3130   18.0230  -16.1520 C.2    34  ARG34       0.2260
      4  O         -4.1360   17.1570  -16.4680 O.2    34  ARG34      -0.2867
      5  CB        -0.9540   17.1380  -16.1370 C.3    34  ARG34       0.0307
      6  CG        -1.3920   16.4780  -17.4410 C.3    34  ARG34       0.0489
      7  CD        -0.8240   15.0760  -17.6390 C.3    34  ARG34       0.2205
      8  NE         0.3620   15.0740  -18.4920 N.pl3  34  ARG34      -0.0865
      9  CZ         0.3340   15.0380  -19.8230 C.cat  34  ARG34       0.5346
     10  NH1        1.4690   15.0440  -20.5060 N.pl3  34  ARG34       0.1354
     11  NH2       -0.8210   15.0030  -20.4760 N.pl3  34  ARG34       0.1354
     12  N         -5.0340   18.8300  -19.6710 N.3    36  ILE36      -0.1231
     13  CA        -4.7130   18.5020  -21.0530 C.3    36  ILE36       0.1692
     14  C         -5.2290   19.6350  -21.9250 C.2    36  ILE36       0.2592
     15  O         -6.1540   20.3560  -21.5390 O.2    36  ILE36      -0.2718
     16  CB        -5.3410   17.1790  -21.5030 C.3    36  ILE36       0.0266
     17  CG1       -6.8610   17.2760  -21.4560 C.3    36  ILE36       0.0019
     18  CG2       -4.8480   16.0300  -20.6450 C.3    36  ILE36       0.0020
     19  CD1       -7.5460   15.9760  -21.7520 C.3    36  ILE36       0.0001
     20  N         -4.6290   19.8020  -23.0970 N.am   37  THR37      -0.1953
     21  CA        -5.0080   20.9060  -23.9680 C.3    37  THR37       0.1897
     22  C         -6.3820   20.6730  -24.5980 C.2    37  THR37       0.2313
     23  O         -6.5980   19.6940  -25.3180 O.2    37  THR37      -0.2863
     24  CB        -3.9430   21.1460  -25.0370 C.3    37  THR37       0.1794
     25  OG1       -3.8290   19.9850  -25.8710 O.3    37  THR37      -0.2208
     26  CG2       -2.6130   21.3930  -24.3650 C.3    37  THR37       0.0378
     27  N         -9.7960   19.8540  -19.0140 N.3    44  ARG44      -0.1245
     28  CA        -9.8930   18.4640  -18.6340 C.3    44  ARG44       0.1563
     29  C         -8.6160   18.0730  -17.9120 C.2    44  ARG44       0.2260
     30  O         -7.5220   18.5150  -18.2790 O.2    44  ARG44      -0.2867
     31  CB       -10.1070   17.5890  -19.8640 C.3    44  ARG44       0.0307
     32  CG       -11.3470   17.9570  -20.6740 C.3    44  ARG44       0.0489
     33  CD       -11.9710   16.7040  -21.2470 C.3    44  ARG44       0.2205
     34  NE       -12.3760   15.8140  -20.1660 N.pl3  44  ARG44      -0.0865
     35  CZ       -13.6300   15.4530  -19.9370 C.cat  44  ARG44       0.5346
     36  NH1      -14.5930   15.8860  -20.7430 N.pl3  44  ARG44       0.1354
     37  NH2      -13.9170   14.6460  -18.9200 N.pl3  44  ARG44       0.1354
     38  N         -6.0290   15.0930  -16.6030 N.3    46  ARG46      -0.1245
     39  CA        -5.5120   13.7280  -16.7070 C.3    46  ARG46       0.1563
     40  C         -4.8150   13.3540  -15.3930 C.2    46  ARG46       0.2260
     41  O         -4.0970   14.1720  -14.8210 O.2    46  ARG46      -0.2867
     42  CB        -4.5170   13.6650  -17.8600 C.3    46  ARG46       0.0307
     43  CG        -3.8910   12.3150  -18.0920 C.3    46  ARG46       0.0489
     44  CD        -3.0420   12.3340  -19.3560 C.3    46  ARG46       0.2205
     45  NE        -2.4570   11.0270  -19.6190 N.pl3  46  ARG46      -0.0865
     46  CZ        -1.8610   10.6910  -20.7540 C.cat  46  ARG46       0.5346
     47  NH1       -1.7740   11.5710  -21.7410 N.pl3  46  ARG46       0.1354
     48  NH2       -1.3580    9.4730  -20.9020 N.pl3  46  ARG46       0.1354
     49  N         -3.7260    6.8030  -17.6400 N.3    58  SER58      -0.1217
     50  CA        -4.8560    7.0030  -18.5450 C.3    58  SER58       0.1889
     51  C         -6.1780    7.3510  -17.8560 C.2    58  SER58       0.2288
     52  O         -7.2490    7.0980  -18.4040 O.2    58  SER58      -0.2866
     53  CB        -5.0460    5.7690  -19.4330 C.3    58  SER58       0.2089
     54  OG        -5.3090    4.6160  -18.6530 O.3    58  SER58      -0.2183
     55  N         -8.9510   10.0630  -16.5620 N.3    60  MET60      -0.1245
     56  CA        -9.4450   11.4000  -16.8880 C.3    60  MET60       0.1570
     57  C        -10.5890   11.7330  -15.9460 C.2    60  MET60       0.2261
     58  O        -11.4540   10.8990  -15.7110 O.2    60  MET60      -0.2867
     59  CB        -9.9960   11.4400  -18.3170 C.3    60  MET60       0.0387
     60  CG        -8.9900   11.1470  -19.3960 C.3    60  MET60       0.0595
     61  SD        -8.6040   12.6660  -20.2620 S.3    60  MET60      -0.1393
     62  CE       -10.2590   13.2430  -20.6260 C.3    60  MET60       0.0692
     63  N        -14.0710   13.4330  -14.8880 N.3    62  ALA62      -0.1231
     64  CA       -15.2900   13.9960  -15.4430 C.3    62  ALA62       0.1694
     65  C        -15.3140   15.4940  -15.1330 C.2    62  ALA62       0.2593
     66  O        -14.8450   15.9330  -14.0770 O.2    62  ALA62      -0.2718
     67  CB       -16.5230   13.2970  -14.8710 C.3    62  ALA62       0.0304
     68  N        -15.8430   16.2800  -16.0640 N.am   63  THR63      -0.1939
     69  CA       -15.8130   17.7280  -15.9330 C.3    63  THR63       0.2028
     70  C        -16.5000   18.2090  -14.6580 C.2    63  THR63       0.2642
     71  O        -16.0510   19.1610  -14.0270 O.2    63  THR63      -0.2714
     72  CB       -16.4350   18.4010  -17.1790 C.3    63  THR63       0.1808
     73  OG1      -15.7350   17.9480  -18.3430 O.3    63  THR63      -0.2208
     74  CG2      -16.3070   19.9020  -17.0920 C.3    63  THR63       0.0379
     75  N        -17.5660   17.5190  -14.2620 N.am   64  GLN64      -0.1976
     76  CA       -18.3020   17.8470  -13.0400 C.3    64  GLN64       0.1601
     77  C        -17.4110   17.8170  -11.8030 C.2    64  GLN64       0.2287
     78  O        -17.6990   18.4890  -10.8180 O.2    64  GLN64      -0.2864
     79  CB       -19.4850   16.8870  -12.8420 C.3    64  GLN64       0.0394
     80  CG       -19.0590   15.4610  -12.4670 C.3    64  GLN64       0.0908
     81  CD       -20.0880   14.4060  -12.8260 C.2    64  GLN64       0.2608
     82  OE1      -21.0630   14.6800  -13.5250 O.2    64  GLN64      -0.2717
     83  NE2      -19.8680   13.1860  -12.3520 N.am   64  GLN64      -0.0878
     84  N        -16.1300    4.9480  -15.7910 N.3    86  ILE86      -0.1245
     85  CA       -16.4390    4.2780  -17.0440 C.3    86  ILE86       0.1561
     86  C        -15.1860    4.2050  -17.9100 C.2    86  ILE86       0.2260
     87  O        -14.3530    5.1100  -17.8930 O.2    86  ILE86      -0.2867
     88  CB       -17.5980    4.9750  -17.8140 C.3    86  ILE86       0.0252
     89  CG1      -17.2020    6.3820  -18.2540 C.3    86  ILE86       0.0019
     90  CG2      -18.8710    5.0020  -16.9740 C.3    86  ILE86       0.0019
     91  CD1      -18.1050    6.9440  -19.3460 C.3    86  ILE86       0.0001
     92  N        -13.5570    4.1490  -21.6240 N.3    88  ASN88      -0.1240
     93  CA       -13.8160    4.5050  -23.0000 C.3    88  ASN88       0.1653
     94  C        -12.6230    4.1080  -23.8580 C.2    88  ASN88       0.2266
     95  O        -11.4800    4.2890  -23.4530 O.2    88  ASN88      -0.2867
     96  CB       -14.0630    6.0050  -23.1210 C.3    88  ASN88       0.1155
     97  CG       -14.8260    6.3590  -24.3800 C.2    88  ASN88       0.2627
     98  OD1      -15.8530    5.7540  -24.6690 O.2    88  ASN88      -0.2716
     99  ND2      -14.3220    7.3290  -25.1420 N.am   88  ASN88      -0.0877
    100  N        -10.4880    4.5120  -27.3660 N.3    90  LEU90      -0.1245
    101  CA       -10.2520    5.4200  -28.4850 C.3    90  LEU90       0.1561
    102  C        -10.1000    4.6490  -29.7950 C.2    90  LEU90       0.2260
    103  O         -9.9380    3.4320  -29.7910 O.2    90  LEU90      -0.2867
    104  CB        -9.0020    6.2740  -28.2390 C.3    90  LEU90       0.0270
    105  CG        -8.9160    7.0030  -26.8850 C.3    90  LEU90       0.0019
    106  CD1       -7.8090    8.0300  -26.9120 C.3    90  LEU90       0.0001
    107  CD2      -10.2590    7.6450  -26.5110 C.3    90  LEU90       0.0001
    108  N         -6.3540    2.6610  -27.5360 N.3    94  ARG94      -0.1231
    109  CA        -6.0210    3.0180  -26.1600 C.3    94  ARG94       0.1694
    110  C         -7.3010    3.1980  -25.3690 C.2    94  ARG94       0.2592
    111  O         -8.3380    3.5390  -25.9250 O.2    94  ARG94      -0.2718
    112  CB        -5.1900    4.3050  -26.1110 C.3    94  ARG94       0.0321
    113  CG        -3.7800    4.1520  -26.6690 C.3    94  ARG94       0.0489
    114  CD        -2.9980    5.4560  -26.5570 C.3    94  ARG94       0.2205
    115  NE        -3.6450    6.5490  -27.2760 N.pl3  94  ARG94      -0.0865
    116  CZ        -3.2580    7.8160  -27.2010 C.cat  94  ARG94       0.5346
    117  NH1       -3.9020    8.7480  -27.8890 N.pl3  94  ARG94       0.1354
    118  NH2       -2.2270    8.1490  -26.4340 N.pl3  94  ARG94       0.1354
    119  N         -7.2350    2.9650  -24.0670 N.am   95  ARG95      -0.1966
    120  CA        -8.4130    3.1060  -23.2410 C.3    95  ARG95       0.1729
    121  C         -8.2220    4.1900  -22.2100 C.2    95  ARG95       0.2616
    122  O         -7.1320    4.3430  -21.6580 O.2    95  ARG95      -0.2715
    123  CB        -8.7670    1.7790  -22.5830 C.3    95  ARG95       0.0348
    124  CG        -9.4620    0.8630  -23.5860 C.3    95  ARG95       0.0492
    125  CD        -9.7520   -0.4780  -23.0230 C.3    95  ARG95       0.2205
    126  NE       -10.6380   -1.2550  -23.8940 N.pl3  95  ARG95      -0.0865
    127  CZ       -10.7880   -2.5660  -23.7950 C.cat  95  ARG95       0.5346
    128  NH1      -10.0930   -3.2360  -22.8850 N.pl3  95  ARG95       0.1354
    129  NH2      -11.6120   -3.2030  -24.6110 N.pl3  95  ARG95       0.1354
    130  N         -9.2820    4.9570  -21.9830 N.am   96  VAL96      -0.1977
    131  CA        -9.2720    5.9950  -20.9600 C.3    96  VAL96       0.1596
    132  C        -10.2750    5.6470  -19.8590 C.2    96  VAL96       0.2287
    133  O        -11.3810    5.1690  -20.1240 O.2    96  VAL96      -0.2864
    134  CB        -9.5560    7.3840  -21.5600 C.3    96  VAL96       0.0276
    135  CG1       -8.6190    7.6420  -22.7380 C.3    96  VAL96       0.0022
    136  CG2      -10.9730    7.4980  -22.0280 C.3    96  VAL96       0.0022
    137  N        -12.5660    7.1250  -17.1780 N.3    98  ILE98      -0.1245
    138  CA       -13.1680    8.3850  -16.7760 C.3    98  ILE98       0.1561
    139  C        -13.7270    8.2700  -15.3600 C.2    98  ILE98       0.2260
    140  O        -14.5900    7.4400  -15.0950 O.2    98  ILE98      -0.2867
    141  CB       -14.2550    8.8240  -17.7660 C.3    98  ILE98       0.0252
    142  CG1      -13.7130    8.7070  -19.1950 C.3    98  ILE98       0.0019
    143  CG2      -14.6860   10.2560  -17.4730 C.3    98  ILE98       0.0019
    144  CD1      -14.7890    8.5800  -20.2290 C.3    98  ILE98       0.0001
    145  N        -16.0180    9.3860  -12.5790 N.3   100  MET100     -0.1245
    146  CA       -17.3120   10.0770  -12.5060 C.3   100  MET100      0.1570
    147  C        -17.6770   10.5160  -11.0970 C.2   100  MET100      0.2261
    148  O        -18.2560   11.5870  -10.8950 O.2   100  MET100     -0.2867
    149  CB       -18.4360    9.1770  -13.0260 C.3   100  MET100      0.0387
    150  CG       -18.2640    8.7000  -14.4610 C.3   100  MET100      0.0595
    151  SD       -18.0690   10.0400  -15.6480 S.3   100  MET100     -0.1393
    152  CE       -19.6330   10.8900  -15.4950 C.3   100  MET100      0.0692
@<TRIPOS>BOND
     1   102   103    2
     2   102   101    1
     3   101   104    1
     4   101   100    1
     5   104   105    1
     6   117   116    1
     7   108   109    1
     8   115   116    2
     9   115   114    1
    10   116   118    1
    11   106   105    1
    12   105   107    1
    13   113   114    1
    14   113   112    1
    15   109   112    1
    16   109   110    1
    17   111   110    2
    18    25    24    1
    19   110   119   am
    20    23    22    2
    21    99    97   am
    22    24    26    1
    23    24    21    1
    24    98    97    2
    25   129   127    1
    26    22    21    1
    27    97    96    1
    28   119   120    1
    29    21    20    1
    30   126   127    2
    31   126   125    1
    32    94    95    2
    33    94    93    1
    34   127   128    1
    35   124   125    1
    36   124   123    1
    37   120   123    1
    38   120   121    1
    39    96    93    1
    40    20    14   am
    41    93    92    1
    42   135   134    1
    43   121   130   am
    44   121   122    2
    45   136   134    1
    46   130   131    1
    47    14    15    2
    48    14    13    1
    49    19    17    1
    50    47    46    1
    51   134   131    1
    52    16    17    1
    53    16    13    1
    54    16    18    1
    55    33    32    1
    56    33    34    1
    57    13    12    1
    58   131   132    1
    59    48    46    1
    60    46    45    2
    61    36    35    1
    62    32    31    1
    63    62    61    1
    64    10     9    1
    65    11     9    1
    66    61    60    1
    67   144   142    1
    68    34    35    2
    69   133   132    2
    70    35    37    1
    71    31    28    1
    72     9     8    2
    73    45    44    1
    74    53    54    1
    75    53    50    1
    76    60    59    1
    77    44    43    1
    78    91    89    1
    79   142   141    1
    80    27    28    1
    81    28    29    1
    82    50    51    1
    83    50    49    1
    84     8     7    1
    85    52    51    2
    86    73    72    1
    87    59    56    1
    88    30    29    2
    89    89    88    1
    90    43    42    1
    91    86    87    2
    92    86    85    1
    93    42    39    1
    94    88    85    1
    95    88    90    1
    96   141   143    1
    97   141   138    1
    98     7     6    1
    99     6     5    1
   100    72    74    1
   101    72    69    1
   102   137   138    1
   103    85    84    1
   104    56    55    1
   105    56    57    1
   106   138   139    1
   107    39    38    1
   108    39    40    1
   109     4     3    2
   110     3     2    1
   111     5     2    1
   112    68    69    1
   113    68    65   am
   114    57    58    2
   115    69    70    1
   116   151   152    1
   117   151   150    1
   118    64    65    1
   119    64    63    1
   120    64    67    1
   121    40    41    2
   122   139   140    2
   123     2     1    1
   124    65    66    2
   125    70    75   am
   126    70    71    2
   127   150   149    1
   128    75    76    1
   129    82    81    2
   130    76    79    1
   131    76    77    1
   132   149   146    1
   133    79    80    1
   134    81    80    1
   135    81    83   am
   136   145   146    1
   137   146   147    1
   138    77    78    2
   139   147   148    2
