@<TRIPOS>MOLECULE
tmp/4lv0A00.pdb
 84 78 0 0 0
SMALL
GASTEIGER

@<TRIPOS>ATOM
      1  N         26.8480    1.3210   16.0260 N.3    61  SER61      -0.1217
      2  CA        28.2020    1.7550   16.3300 C.3    61  SER61       0.1889
      3  C         29.0470    0.8520   17.2610 C.2    61  SER61       0.2288
      4  O         30.2290    1.1280   17.4620 O.2    61  SER61      -0.2866
      5  CB        28.1980    3.1790   16.8960 C.3    61  SER61       0.2089
      6  OG        27.6480    4.0550   15.9440 O.3    61  SER61      -0.2183
      7  N         32.1170    0.0100   15.5400 N.3    64  LYS64      -0.1245
      8  CA        33.3630    0.7790   15.6620 C.3    64  LYS64       0.1561
      9  C         34.4260    0.0640   16.4690 C.2    64  LYS64       0.2260
     10  O         35.6240    0.3060   16.2950 O.2    64  LYS64      -0.2867
     11  CB        33.1130    2.1910   16.2560 C.3    64  LYS64       0.0271
     12  CG        32.2910    3.0840   15.3100 C.3    64  LYS64       0.0035
     13  CD        31.8670    4.3380   16.0970 C.3    64  LYS64       0.0206
     14  CE        31.1770    5.3930   15.1710 C.3    64  LYS64       0.1093
     15  NZ        29.8650    4.8650   14.5980 N.3    64  LYS64      -0.1314
     16  N         29.2330   13.9820   12.5330 N.3   116  LEU116     -0.1231
     17  CA        28.6730   12.7050   12.9860 C.3   116  LEU116      0.1693
     18  C         28.3190   11.8100   11.8210 C.2   116  LEU116      0.2591
     19  O         28.6620   10.6090   11.8060 O.2   116  LEU116     -0.2718
     20  CB        27.4100   12.9760   13.8200 C.3   116  LEU116      0.0284
     21  CG        26.7320   11.6580   14.2820 C.3   116  LEU116      0.0019
     22  CD1       27.7120   10.7700   15.0820 C.3   116  LEU116      0.0001
     23  CD2       25.5180   12.0090   15.1340 C.3   116  LEU116      0.0001
     24  N         27.5790   12.3770   10.8520 N.am  117  GLN117     -0.1979
     25  CA        27.1010   11.5900    9.7260 C.3   117  GLN117      0.1601
     26  C         27.7450   12.0360    8.4290 C.2   117  GLN117      0.2287
     27  O         27.9960   13.2420    8.1810 O.2   117  GLN117     -0.2864
     28  CB        25.5750   11.7390    9.5920 C.3   117  GLN117      0.0394
     29  CG        24.9010   11.3160   10.9100 C.3   117  GLN117      0.0908
     30  CD        23.4250   11.1070   10.8130 C.2   117  GLN117      0.2608
     31  OE1       22.9660   10.0840   10.2660 O.2   117  GLN117     -0.2717
     32  NE2       22.6440   12.0550   11.3880 N.am  117  GLN117     -0.0878
     33  N         32.4060   12.9310   18.3420 N.3   147  TYR147     -0.1241
     34  CA        32.1290   11.5540   17.8950 C.3   147  TYR147      0.1605
     35  C         31.5680   11.5750   16.4830 C.2   147  TYR147      0.2264
     36  O         30.6640   12.3640   16.1790 O.2   147  TYR147     -0.2867
     37  CB        31.1060   11.0080   18.8620 C.3   147  TYR147      0.0534
     38  CG        30.6220    9.6000   18.5850 C.ar  147  TYR147     -0.0201
     39  CD1       29.3390    9.3940   18.0620 C.ar  147  TYR147     -0.0009
     40  CD2       31.4190    8.5020   18.8640 C.ar  147  TYR147     -0.0009
     41  CE1       28.8400    8.1060   17.8500 C.ar  147  TYR147      0.0417
     42  CE2       30.9200    7.1740   18.6320 C.ar  147  TYR147      0.0417
     43  CZ        29.6500    7.0200   18.1280 C.ar  147  TYR147      0.1957
     44  OH        29.1450    5.7500   17.9510 O.3   147  TYR147     -0.2866
     45  N         31.0400    9.3260   12.5360 N.3   149  ASN149     -0.1240
     46  CA        31.2070    8.2530   11.5440 C.3   149  ASN149      0.1653
     47  C         32.1660    8.6630   10.4600 C.2   149  ASN149      0.2266
     48  O         32.9010    7.8400    9.9330 O.2   149  ASN149     -0.2867
     49  CB        29.8840    7.9430   10.8420 C.3   149  ASN149      0.1155
     50  CG        28.9050    7.2900   11.7530 C.2   149  ASN149      0.2627
     51  OD1       29.2750    6.7930   12.8140 O.2   149  ASN149     -0.2716
     52  ND2       27.6450    7.2590   11.3410 N.am  149  ASN149     -0.0877
     53  N         29.2150    1.4670   11.1680 N.3   218  TYR218     -0.1241
     54  CA        28.0320    0.9700   11.8960 C.3   218  TYR218      0.1605
     55  C         27.3550   -0.2250   11.2620 C.2   218  TYR218      0.2264
     56  O         26.2130   -0.5550   11.6220 O.2   218  TYR218     -0.2867
     57  CB        26.9820    2.0860   12.0610 C.3   218  TYR218      0.0534
     58  CG        26.5880    2.7290   10.7360 C.ar  218  TYR218     -0.0201
     59  CD1       25.5910    2.1550    9.9220 C.ar  218  TYR218     -0.0009
     60  CD2       27.1470    3.9430   10.3300 C.ar  218  TYR218     -0.0009
     61  CE1       25.2090    2.7460    8.7340 C.ar  218  TYR218      0.0417
     62  CE2       26.7680    4.5460    9.1170 C.ar  218  TYR218      0.0417
     63  CZ        25.8190    3.9210    8.3220 C.ar  218  TYR218      0.1957
     64  OH        25.4400    4.5230    7.1620 O.3   218  TYR218     -0.2866
     65  N         27.5530   12.7360   22.1630 N.3   290  LEU290     -0.1245
     66  CA        27.6820   13.2780   20.8220 C.3   290  LEU290      0.1561
     67  C         28.2050   14.7080   20.8460 C.2   290  LEU290      0.2260
     68  O         28.3420   15.2980   19.7580 O.2   290  LEU290     -0.2867
     69  CB        26.3260   13.2420   20.1100 C.3   290  LEU290      0.0270
     70  CG        25.6530   11.8760   19.9760 C.3   290  LEU290      0.0019
     71  CD1       24.3460   11.9690   19.1690 C.3   290  LEU290      0.0001
     72  CD2       26.5850   10.8800   19.3400 C.3   290  LEU290      0.0001
     73  N         23.6430    2.0580   17.9620 N.3   315  ALA315     -0.1231
     74  CA        22.2550    2.1720   17.5530 C.3   315  ALA315      0.1694
     75  C         22.1410    2.2360   16.0560 C.2   315  ALA315      0.2592
     76  O         23.0230    2.7680   15.3780 O.2   315  ALA315     -0.2718
     77  CB        21.5780    3.4050   18.1480 C.3   315  ALA315      0.0304
     78  N         21.0890    1.6330   15.5480 N.am  316  THR316     -0.1953
     79  CA        20.5830    1.9720   14.2230 C.3   316  THR316      0.1897
     80  C         19.1380    2.4160   14.4050 C.2   316  THR316      0.2313
     81  O         18.6570    2.5490   15.5370 O.2   316  THR316     -0.2863
     82  CB        20.6320    0.7730   13.2800 C.3   316  THR316      0.1794
     83  OG1       19.8210   -0.2670   13.8360 O.3   316  THR316     -0.2208
     84  CG2       22.0780    0.2840   13.1100 C.3   316  THR316      0.0378
@<TRIPOS>BOND
     1    64    63    1
     2    27    26    2
     3    63    61   ar
     4    63    62   ar
     5    26    25    1
     6    61    59   ar
     7    62    60   ar
     8    28    25    1
     9    28    29    1
    10    25    24    1
    11    59    58   ar
    12    48    47    2
    13    31    30    2
    14    60    58   ar
    15    47    46    1
    16    58    57    1
    17    30    29    1
    18    30    32   am
    19    49    46    1
    20    49    50    1
    21    24    18   am
    22    53    54    1
    23    55    56    2
    24    55    54    1
    25    52    50   am
    26    46    45    1
    27    50    51    2
    28    19    18    2
    29    18    17    1
    30    54    57    1
    31    16    17    1
    32    17    20    1
    33    84    82    1
    34    82    83    1
    35    82    79    1
    36    20    21    1
    37    79    80    1
    38    79    78    1
    39    21    22    1
    40    21    23    1
    41    80    81    2
    42    15    14    1
    43    14    13    1
    44    12    13    1
    45    12    11    1
    46    76    75    2
    47     7     8    1
    48    78    75   am
    49     8    11    1
    50     8     9    1
    51     6     5    1
    52     1     2    1
    53    75    74    1
    54    36    35    2
    55    10     9    2
    56     2     5    1
    57     2     3    1
    58    35    34    1
    59     3     4    2
    60    74    73    1
    61    74    77    1
    62    41    39   ar
    63    41    43   ar
    64    34    33    1
    65    34    37    1
    66    44    43    1
    67    39    38   ar
    68    43    42   ar
    69    38    37    1
    70    38    40   ar
    71    42    40   ar
    72    71    70    1
    73    72    70    1
    74    68    67    2
    75    70    69    1
    76    69    66    1
    77    66    67    1
    78    66    65    1
