@<TRIPOS>MOLECULE
tmp/4lv1A00.pdb
 120 111 0 0 0
SMALL
GASTEIGER

@<TRIPOS>ATOM
      1  N         26.6010    1.3500   16.1060 N.3    61  SER61      -0.1217
      2  CA        27.9680    1.7650   16.3760 C.3    61  SER61       0.1889
      3  C         28.8120    0.8650   17.2910 C.2    61  SER61       0.2288
      4  O         29.9860    1.1530   17.4940 O.2    61  SER61      -0.2866
      5  CB        27.9930    3.1840   16.9650 C.3    61  SER61       0.2089
      6  OG        27.4970    4.1190   16.0020 O.3    61  SER61      -0.2183
      7  N         31.8910    0.0150   15.5510 N.3    64  LYS64      -0.1245
      8  CA        33.1420    0.8030   15.7020 C.3    64  LYS64       0.1561
      9  C         34.2110    0.0640   16.4950 C.2    64  LYS64       0.2260
     10  O         35.4020    0.2890   16.2570 O.2    64  LYS64      -0.2867
     11  CB        32.8620    2.1860   16.3310 C.3    64  LYS64       0.0271
     12  CG        32.0410    3.0680   15.3910 C.3    64  LYS64       0.0035
     13  CD        31.6050    4.3580   16.1390 C.3    64  LYS64       0.0206
     14  CE        30.9760    5.3880   15.1550 C.3    64  LYS64       0.1093
     15  NZ        29.6310    4.8870   14.5850 N.3    64  LYS64      -0.1314
     16  N         29.1100   14.2250   12.4290 N.3   116  LEU116     -0.1231
     17  CA        28.5540   12.9470   12.8680 C.3   116  LEU116      0.1693
     18  C         28.2040   12.0650   11.6750 C.2   116  LEU116      0.2592
     19  O         28.5920   10.8750   11.6270 O.2   116  LEU116     -0.2718
     20  CB        27.3280   13.1910   13.7680 C.3   116  LEU116      0.0284
     21  CG        26.5490   11.9180   14.1610 C.3   116  LEU116      0.0019
     22  CD1       27.4560   10.9580   14.9340 C.3   116  LEU116      0.0001
     23  CD2       25.3680   12.3260   15.0140 C.3   116  LEU116      0.0001
     24  N         27.4610   12.6380   10.7140 N.am  117  GLN117     -0.1966
     25  CA        27.0420   11.8510    9.5520 C.3   117  GLN117      0.1733
     26  C         27.7020   12.3010    8.2580 C.2   117  GLN117      0.2616
     27  O         27.9640   13.5020    8.0440 O.2   117  GLN117     -0.2715
     28  CB        25.5150   11.9040    9.3400 C.3   117  GLN117      0.0408
     29  CG        24.6760   11.6000   10.6010 C.3   117  GLN117      0.0908
     30  CD        24.8230   10.1570   11.0610 C.2   117  GLN117      0.2608
     31  OE1       25.4780    9.3430   10.3950 O.2   117  GLN117     -0.2717
     32  NE2       24.1880    9.8180   12.2050 N.am  117  GLN117     -0.0878
     33  N         27.9230   11.3160    7.3850 N.am  118  VAL118     -0.1977
     34  CA        28.2840   11.6160    6.0010 C.3   118  VAL118      0.1596
     35  C         26.9780   12.0060    5.3610 C.2   118  VAL118      0.2287
     36  O         25.9660   11.3390    5.5810 O.2   118  VAL118     -0.2864
     37  CB        28.8700   10.3660    5.2940 C.3   118  VAL118      0.0276
     38  CG1       29.2210   10.7100    3.8210 C.3   118  VAL118      0.0022
     39  CG2       30.0970    9.8650    6.0510 C.3   118  VAL118      0.0022
     40  N         23.6590   12.3820    3.2440 N.3   120  ASP120     -0.1239
     41  CA        22.9470   11.3490    2.4940 C.3   120  ASP120      0.1674
     42  C         23.1810   11.4170    1.0080 C.2   120  ASP120      0.2266
     43  O         23.1420   10.3900    0.3090 O.2   120  ASP120     -0.2867
     44  CB        21.4500   11.4620    2.7180 C.3   120  ASP120      0.1410
     45  CG        20.8860   10.2050    3.2400 C.2   120  ASP120      0.3668
     46  OD1       20.3820   10.2380    4.3870 O.co2 120  ASP120     -0.2456
     47  OD2       21.0050    9.1680    2.5390 O.co2 120  ASP120     -0.2456
     48  N         32.2450   13.0180   18.2920 N.3   147  TYR147     -0.1241
     49  CA        31.9180   11.6560   17.8600 C.3   147  TYR147      0.1605
     50  C         31.3790   11.6950   16.4500 C.2   147  TYR147      0.2264
     51  O         30.4940   12.5020   16.1520 O.2   147  TYR147     -0.2867
     52  CB        30.8530   11.1450   18.7890 C.3   147  TYR147      0.0534
     53  CG        30.4140    9.7260   18.5120 C.ar  147  TYR147     -0.0201
     54  CD1       31.2020    8.6420   18.9010 C.ar  147  TYR147     -0.0009
     55  CD2       29.1770    9.4870   17.9280 C.ar  147  TYR147     -0.0009
     56  CE1       30.7290    7.2840   18.6800 C.ar  147  TYR147      0.0417
     57  CE2       28.7080    8.1810   17.6910 C.ar  147  TYR147      0.0417
     58  CZ        29.4840    7.0960   18.0650 C.ar  147  TYR147      0.1957
     59  OH        28.9360    5.8240   17.8660 O.3   147  TYR147     -0.2866
     60  N         30.8290    9.4810   12.4860 N.3   149  ASN149     -0.1240
     61  CA        30.9730    8.3920   11.4950 C.3   149  ASN149      0.1653
     62  C         31.9290    8.7670   10.3850 C.2   149  ASN149      0.2266
     63  O         32.6800    7.9290    9.8740 O.2   149  ASN149     -0.2867
     64  CB        29.6390    8.0040   10.8630 C.3   149  ASN149      0.1155
     65  CG        28.6940    7.4180   11.8610 C.2   149  ASN149      0.2627
     66  OD1       29.1250    6.6950   12.7580 O.2   149  ASN149     -0.2716
     67  ND2       27.4140    7.7190   11.7300 N.am  149  ASN149     -0.0877
     68  N         18.5070   -1.3580    8.4960 N.3   208  VAL208     -0.1231
     69  CA        19.3870   -0.2390    8.1000 C.3   208  VAL208      0.1692
     70  C         19.5180   -0.2070    6.5760 C.2   208  VAL208      0.2592
     71  O         19.5220   -1.2610    5.9220 O.2   208  VAL208     -0.2718
     72  CB        20.7730   -0.3750    8.8060 C.3   208  VAL208      0.0266
     73  CG1       21.5170   -1.6550    8.3640 C.3   208  VAL208      0.0020
     74  CG2       21.6450    0.8750    8.6170 C.3   208  VAL208      0.0020
     75  N         19.5440    1.0110    6.0230 N.am  209  SER209     -0.1952
     76  CA        19.6940    1.2380    4.5930 C.3   209  SER209      0.1924
     77  C         21.1580    1.4460    4.2510 C.2   209  SER209      0.2314
     78  O         21.9240    1.9040    5.0800 O.2   209  SER209     -0.2863
     79  CB        18.9420    2.5250    4.2380 C.3   209  SER209      0.2116
     80  OG        17.5460    2.3660    4.4590 O.3   209  SER209     -0.2180
     81  N         24.5400    3.2020    3.0920 N.3   211  GLY211     -0.1225
     82  CA        24.9930    4.5790    3.1590 C.3   211  GLY211      0.1811
     83  C         26.5060    4.6140    3.0890 C.2   211  GLY211      0.2280
     84  O         27.1790    3.5920    3.2730 O.2   211  GLY211     -0.2866
     85  N         29.0010    1.5670   11.1870 N.3   218  TYR218     -0.1241
     86  CA        27.8130    1.0680   11.9210 C.3   218  TYR218      0.1605
     87  C         27.1340   -0.1570   11.2930 C.2   218  TYR218      0.2264
     88  O         25.9580   -0.4520   11.5980 O.2   218  TYR218     -0.2867
     89  CB        26.7660    2.2030   12.0520 C.3   218  TYR218      0.0534
     90  CG        26.3560    2.8500   10.7070 C.ar  218  TYR218     -0.0201
     91  CD1       25.3560    2.2680    9.9050 C.ar  218  TYR218     -0.0009
     92  CD2       26.9050    4.0560   10.3110 C.ar  218  TYR218     -0.0009
     93  CE1       24.9590    2.8460    8.6830 C.ar  218  TYR218      0.0417
     94  CE2       26.5310    4.6410    9.0920 C.ar  218  TYR218      0.0417
     95  CZ        25.5670    4.0240    8.2990 C.ar  218  TYR218      0.1957
     96  OH        25.1980    4.6190    7.1310 O.3   218  TYR218     -0.2866
     97  N         27.4360   12.8960   22.1350 N.3   290  LEU290     -0.1245
     98  CA        27.5870   13.4500   20.7920 C.3   290  LEU290      0.1561
     99  C         28.1050   14.9000   20.7880 C.2   290  LEU290      0.2260
    100  O         28.2190   15.5090   19.7130 O.2   290  LEU290     -0.2867
    101  CB        26.2310   13.3930   20.0900 C.3   290  LEU290      0.0270
    102  CG        25.6230   12.0060   19.9140 C.3   290  LEU290      0.0019
    103  CD1       24.2590   12.0480   19.1810 C.3   290  LEU290      0.0001
    104  CD2       26.5530   11.0850   19.2020 C.3   290  LEU290      0.0001
    105  N         23.4390    2.0860   17.9080 N.3   315  ALA315     -0.1231
    106  CA        22.0370    2.1640   17.5080 C.3   315  ALA315      0.1694
    107  C         21.9390    2.2080   16.0210 C.2   315  ALA315      0.2593
    108  O         22.7810    2.8160   15.3750 O.2   315  ALA315     -0.2718
    109  CB        21.3800    3.4360   18.0830 C.3   315  ALA315      0.0304
    110  N         20.8640    1.6590   15.4900 N.am  316  THR316     -0.1939
    111  CA        20.4040    2.0290   14.1540 C.3   316  THR316      0.2028
    112  C         18.9200    2.4720   14.3100 C.2   316  THR316      0.2642
    113  O         18.4170    2.6560   15.4300 O.2   316  THR316     -0.2714
    114  CB        20.4700    0.8740   13.1900 C.3   316  THR316      0.1808
    115  OG1       19.6570   -0.1760   13.7190 O.3   316  THR316     -0.2208
    116  CG2       21.8970    0.3390   13.0520 C.3   316  THR316      0.0379
    117  N         18.2320    2.7090   13.2010 N.am  317  GLY317     -0.1954
    118  CA        16.8780    3.2590   13.2940 C.3   317  GLY317      0.1869
    119  C         15.9790    2.3540   14.1230 C.2   317  GLY317      0.2309
    120  O         15.1530    2.8400   14.8960 O.2   317  GLY317     -0.2863
@<TRIPOS>BOND
     1    43    42    2
     2    42    41    1
     3    41    44    1
     4    41    40    1
     5    47    45   ar
     6    44    45    1
     7    83    82    1
     8    83    84    2
     9    81    82    1
    10    45    46   ar
    11    38    37    1
    12    79    80    1
    13    79    76    1
    14    77    76    1
    15    77    78    2
    16    76    75    1
    17    37    34    1
    18    37    39    1
    19    35    36    2
    20    35    34    1
    21    71    70    2
    22    34    33    1
    23    75    70   am
    24    70    69    1
    25    96    95    1
    26    33    26   am
    27    27    26    2
    28    69    68    1
    29    69    72    1
    30    26    25    1
    31    95    93   ar
    32    95    94   ar
    33    73    72    1
    34    74    72    1
    35    93    91   ar
    36    94    92   ar
    37    28    25    1
    38    28    29    1
    39    25    24    1
    40    63    62    2
    41    91    90   ar
    42    92    90   ar
    43    62    61    1
    44    31    30    2
    45    29    30    1
    46    90    89    1
    47    24    18   am
    48    64    61    1
    49    64    65    1
    50    30    32   am
    51    85    86    1
    52    87    88    2
    53    87    86    1
    54    61    60    1
    55    19    18    2
    56    18    17    1
    57    67    65   am
    58    65    66    2
    59    86    89    1
    60    16    17    1
    61    17    20    1
    62   116   114    1
    63   114   115    1
    64   114   111    1
    65   117   118    1
    66   117   112   am
    67   118   119    1
    68    20    21    1
    69   119   120    2
    70   111   112    1
    71   111   110    1
    72    21    22    1
    73    21    23    1
    74   112   113    2
    75    15    14    1
    76    14    13    1
    77   108   107    2
    78    12    13    1
    79    12    11    1
    80   110   107   am
    81     7     8    1
    82     8    11    1
    83     8     9    1
    84     6     5    1
    85   107   106    1
    86     1     2    1
    87    51    50    2
    88    10     9    2
    89     2     5    1
    90     2     3    1
    91    50    49    1
    92     3     4    2
    93   106   105    1
    94   106   109    1
    95    57    55   ar
    96    57    58   ar
    97    49    48    1
    98    49    52    1
    99    59    58    1
   100    55    53   ar
   101    58    56   ar
   102    53    52    1
   103    53    54   ar
   104    56    54   ar
   105   103   102    1
   106   104   102    1
   107   100    99    2
   108   102   101    1
   109   101    98    1
   110    99    98    1
   111    98    97    1
