@<TRIPOS>MOLECULE
tmp/4lv2A00.pdb
 104 97 0 0 0
SMALL
GASTEIGER

@<TRIPOS>ATOM
      1  N         26.3460    1.0300   16.1320 N.3    61  SER61      -0.1217
      2  CA        27.6750    1.5270   16.4110 C.3    61  SER61       0.1889
      3  C         28.5600    0.6440   17.2790 C.2    61  SER61       0.2288
      4  O         29.7490    0.9490   17.4680 O.2    61  SER61      -0.2866
      5  CB        27.6060    2.9590   16.9870 C.3    61  SER61       0.2089
      6  OG        27.0890    3.8080   15.9580 O.3    61  SER61      -0.2183
      7  N         31.5990   -0.1400   15.4940 N.3    64  LYS64      -0.1245
      8  CA        32.8280    0.6500   15.6170 C.3    64  LYS64       0.1561
      9  C         33.9150   -0.0510   16.4270 C.2    64  LYS64       0.2260
     10  O         35.0840    0.2520   16.2190 O.2    64  LYS64      -0.2867
     11  CB        32.5240    2.0500   16.2120 C.3    64  LYS64       0.0271
     12  CG        31.7580    2.9200   15.2360 C.3    64  LYS64       0.0035
     13  CD        31.3120    4.2390   16.0000 C.3    64  LYS64       0.0206
     14  CE        30.6210    5.2270   15.0490 C.3    64  LYS64       0.1093
     15  NZ        29.2840    4.7130   14.5820 N.3    64  LYS64      -0.1314
     16  N         28.5590   13.9370   12.3750 N.3   116  LEU116     -0.1231
     17  CA        28.0530   12.6460   12.8590 C.3   116  LEU116      0.1693
     18  C         27.6530   11.7350   11.7130 C.2   116  LEU116      0.2592
     19  O         28.0270   10.5370   11.6730 O.2   116  LEU116     -0.2718
     20  CB        26.8530   12.9280   13.7620 C.3   116  LEU116      0.0284
     21  CG        26.0770   11.6720   14.2000 C.3   116  LEU116      0.0019
     22  CD1       26.9720   10.6400   14.9480 C.3   116  LEU116      0.0001
     23  CD2       24.8990   12.1400   15.0220 C.3   116  LEU116      0.0001
     24  N         26.9210   12.2940   10.7400 N.am  117  GLN117     -0.1966
     25  CA        26.5290   11.5120    9.5700 C.3   117  GLN117      0.1733
     26  C         27.1990   12.0140    8.3090 C.2   117  GLN117      0.2616
     27  O         27.4070   13.2330    8.0900 O.2   117  GLN117     -0.2715
     28  CB        24.9980   11.5320    9.3290 C.3   117  GLN117      0.0408
     29  CG        24.1930   11.1880   10.5380 C.3   117  GLN117      0.0908
     30  CD        24.3020    9.7150   10.9420 C.2   117  GLN117      0.2608
     31  OE1       24.7530    8.8650   10.1710 O.2   117  GLN117     -0.2717
     32  NE2       23.8750    9.4140   12.1610 N.am  117  GLN117     -0.0878
     33  N         27.5060   11.0480    7.4530 N.am  118  VAL118     -0.1977
     34  CA        27.8250   11.3590    6.0700 C.3   118  VAL118      0.1596
     35  C         26.5200   11.7620    5.3780 C.2   118  VAL118      0.2287
     36  O         25.5040   11.0860    5.5200 O.2   118  VAL118     -0.2864
     37  CB        28.4210   10.0930    5.3720 C.3   118  VAL118      0.0276
     38  CG1       28.7780   10.4280    3.9450 C.3   118  VAL118      0.0022
     39  CG2       29.6360    9.5840    6.1620 C.3   118  VAL118      0.0022
     40  N         31.7650   12.8510   18.2440 N.3   147  TYR147     -0.1241
     41  CA        31.4870   11.4830   17.7820 C.3   147  TYR147      0.1605
     42  C         30.8820   11.5030   16.3940 C.2   147  TYR147      0.2264
     43  O         29.9400   12.2680   16.1240 O.2   147  TYR147     -0.2867
     44  CB        30.4960   10.8870   18.7710 C.3   147  TYR147      0.0534
     45  CG        30.0200    9.4870   18.4640 C.ar  147  TYR147     -0.0201
     46  CD1       28.7790    9.2710   17.8530 C.ar  147  TYR147     -0.0009
     47  CD2       30.7980    8.4000   18.8220 C.ar  147  TYR147     -0.0009
     48  CE1       28.3330    7.9860   17.5970 C.ar  147  TYR147      0.0417
     49  CE2       30.3580    7.0770   18.5650 C.ar  147  TYR147      0.0417
     50  CZ        29.1110    6.9120   17.9590 C.ar  147  TYR147      0.1957
     51  OH        28.6430    5.6250   17.7400 O.3   147  TYR147     -0.2866
     52  N         30.3520    9.2090   12.4640 N.3   149  ASN149     -0.1240
     53  CA        30.5680    8.1500   11.4810 C.3   149  ASN149      0.1653
     54  C         31.5300    8.5720   10.3770 C.2   149  ASN149      0.2266
     55  O         32.2880    7.7570    9.8740 O.2   149  ASN149     -0.2867
     56  CB        29.2510    7.7910   10.7800 C.3   149  ASN149      0.1155
     57  CG        28.2580    7.1790   11.6980 C.2   149  ASN149      0.2627
     58  OD1       28.6210    6.6270   12.7080 O.2   149  ASN149     -0.2716
     59  ND2       26.9750    7.2570   11.3370 N.am  149  ASN149     -0.0877
     60  N         18.2750   -1.7920    8.5810 N.3   208  VAL208     -0.1231
     61  CA        19.1590   -0.7150    8.1560 C.3   208  VAL208      0.1692
     62  C         19.2890   -0.5940    6.6170 C.2   208  VAL208      0.2592
     63  O         19.3130   -1.6090    5.8840 O.2   208  VAL208     -0.2718
     64  CB        20.5240   -0.8690    8.8570 C.3   208  VAL208      0.0266
     65  CG1       21.2340   -2.0810    8.3580 C.3   208  VAL208      0.0020
     66  CG2       21.3680    0.4240    8.7150 C.3   208  VAL208      0.0020
     67  N         19.3290    0.6540    6.1380 N.am  209  SER209     -0.1952
     68  CA        19.4550    0.9480    4.7060 C.3   209  SER209      0.1924
     69  C         20.9100    1.1330    4.3440 C.2   209  SER209      0.2314
     70  O         21.7040    1.4990    5.1980 O.2   209  SER209     -0.2863
     71  CB        18.7240    2.2560    4.4010 C.3   209  SER209      0.2116
     72  OG        17.3220    2.0830    4.6000 O.3   209  SER209     -0.2180
     73  N         24.2380    2.8600    3.1810 N.3   211  GLY211     -0.1225
     74  CA        24.6980    4.2520    3.2340 C.3   211  GLY211      0.1811
     75  C         26.2040    4.2910    3.0730 C.2   211  GLY211      0.2280
     76  O         26.8660    3.2580    3.2020 O.2   211  GLY211     -0.2866
     77  N         28.5750    1.3000   11.1540 N.3   218  TYR218     -0.1241
     78  CA        27.3890    0.8230   11.8870 C.3   218  TYR218      0.1605
     79  C         26.7610   -0.4410   11.2830 C.2   218  TYR218      0.2264
     80  O         25.5760   -0.7130   11.5640 O.2   218  TYR218     -0.2867
     81  CB        26.2920    1.9100   11.9700 C.3   218  TYR218      0.0534
     82  CG        25.9300    2.5690   10.6190 C.ar  218  TYR218     -0.0201
     83  CD1       24.9510    2.0130    9.7860 C.ar  218  TYR218     -0.0009
     84  CD2       26.4910    3.7920   10.2410 C.ar  218  TYR218     -0.0009
     85  CE1       24.5810    2.5990    8.5920 C.ar  218  TYR218      0.0417
     86  CE2       26.1370    4.3970    9.0470 C.ar  218  TYR218      0.0417
     87  CZ        25.2020    3.8030    8.2240 C.ar  218  TYR218      0.1957
     88  OH        24.8630    4.4170    7.0530 O.3   218  TYR218     -0.2866
     89  N         23.1120    1.7120   18.0600 N.3   315  ALA315     -0.1231
     90  CA        21.7060    1.7520   17.6460 C.3   315  ALA315      0.1694
     91  C         21.6000    1.8760   16.1720 C.2   315  ALA315      0.2593
     92  O         22.4720    2.4480   15.5180 O.2   315  ALA315     -0.2718
     93  CB        20.9550    2.9250   18.3110 C.3   315  ALA315      0.0304
     94  N         20.5250    1.3370   15.6300 N.am  316  THR316     -0.1939
     95  CA        20.1090    1.7010   14.2820 C.3   316  THR316      0.2028
     96  C         18.6470    2.1610   14.4280 C.2   316  THR316      0.2642
     97  O         18.1490    2.3370   15.5590 O.2   316  THR316     -0.2714
     98  CB        20.2120    0.5270   13.2900 C.3   316  THR316      0.1808
     99  OG1       19.3660   -0.5420   13.7360 O.3   316  THR316     -0.2208
    100  CG2       21.6300    0.0220   13.1800 C.3   316  THR316      0.0379
    101  N         17.9850    2.4340   13.3210 N.am  317  GLY317     -0.1954
    102  CA        16.6060    2.9120   13.4190 C.3   317  GLY317      0.1869
    103  C         15.7230    1.9370   14.2050 C.2   317  GLY317      0.2309
    104  O         14.8450    2.3740   14.9410 O.2   317  GLY317     -0.2863
@<TRIPOS>BOND
     1    75    76    2
     2    75    74    1
     3    73    74    1
     4    38    37    1
     5    69    68    1
     6    69    70    2
     7    71    72    1
     8    71    68    1
     9    68    67    1
    10    37    34    1
    11    37    39    1
    12    35    36    2
    13    35    34    1
    14    63    62    2
    15    34    33    1
    16    67    62   am
    17    62    61    1
    18    88    87    1
    19    33    26   am
    20    27    26    2
    21    61    60    1
    22    61    64    1
    23    87    85   ar
    24    87    86   ar
    25    26    25    1
    26    65    64    1
    27    85    83   ar
    28    66    64    1
    29    86    84   ar
    30    28    25    1
    31    28    29    1
    32    25    24    1
    33    83    82   ar
    34    55    54    2
    35    31    30    2
    36    84    82   ar
    37    54    53    1
    38    29    30    1
    39    82    81    1
    40    24    18   am
    41    56    53    1
    42    56    57    1
    43    30    32   am
    44    77    78    1
    45    79    80    2
    46    79    78    1
    47    59    57   am
    48    53    52    1
    49    19    18    2
    50    57    58    2
    51    18    17    1
    52    78    81    1
    53    16    17    1
    54    17    20    1
    55   100    98    1
    56    98    99    1
    57    98    95    1
    58   101   102    1
    59   101    96   am
    60   102   103    1
    61    20    21    1
    62    21    22    1
    63    21    23    1
    64   103   104    2
    65    95    96    1
    66    95    94    1
    67    96    97    2
    68    15    14    1
    69    14    13    1
    70    12    13    1
    71    12    11    1
    72     7     8    1
    73    92    91    2
    74     8    11    1
    75     8     9    1
    76    94    91   am
    77     6     5    1
    78    43    42    2
    79     1     2    1
    80    91    90    1
    81    10     9    2
    82    42    41    1
    83     2     5    1
    84     2     3    1
    85     3     4    2
    86    48    46   ar
    87    48    50   ar
    88    90    89    1
    89    90    93    1
    90    51    50    1
    91    41    40    1
    92    41    44    1
    93    46    45   ar
    94    50    49   ar
    95    45    44    1
    96    45    47   ar
    97    49    47   ar
