@<TRIPOS>MOLECULE
tmp/4lv3A00.pdb
 97 91 0 0 0
SMALL
GASTEIGER

@<TRIPOS>ATOM
      1  N         27.1110    1.6200   16.4430 N.3    61  SER61      -0.1217
      2  CA        28.4720    2.0340   16.7270 C.3    61  SER61       0.1889
      3  C         29.3380    1.0970   17.5320 C.2    61  SER61       0.2288
      4  O         30.5300    1.3610   17.6910 O.2    61  SER61      -0.2866
      5  CB        28.4740    3.4010   17.3780 C.3    61  SER61       0.2089
      6  OG        27.9320    4.3880   16.4930 O.3    61  SER61      -0.2183
      7  N         32.4010    0.2620   15.7440 N.3    64  LYS64      -0.1245
      8  CA        33.6530    1.0110   15.8320 C.3    64  LYS64       0.1561
      9  C         34.7270    0.2750   16.5970 C.2    64  LYS64       0.2260
     10  O         35.9120    0.5040   16.3690 O.2    64  LYS64      -0.2867
     11  CB        33.4060    2.4130   16.4440 C.3    64  LYS64       0.0271
     12  CG        32.5000    3.2640   15.5680 C.3    64  LYS64       0.0035
     13  CD        32.1330    4.5100   16.3160 C.3    64  LYS64       0.0206
     14  CE        31.3490    5.5280   15.4340 C.3    64  LYS64       0.1093
     15  NZ        30.0030    5.0930   14.9420 N.3    64  LYS64      -0.1314
     16  N         29.5590   14.7710   11.8900 N.3   116  LEU116     -0.1231
     17  CA        29.0090   13.5760   12.5050 C.3   116  LEU116      0.1693
     18  C         28.5760   12.4990   11.5100 C.2   116  LEU116      0.2591
     19  O         28.7880   11.2930   11.7550 O.2   116  LEU116     -0.2718
     20  CB        27.8090   13.9600   13.3890 C.3   116  LEU116      0.0284
     21  CG        28.1930   14.3350   14.8240 C.3   116  LEU116      0.0019
     22  CD1       29.0750   15.5680   14.8740 C.3   116  LEU116      0.0001
     23  CD2       26.9160   14.6380   15.6050 C.3   116  LEU116      0.0001
     24  N         27.9620   12.9280   10.4110 N.am  117  GLN117     -0.1979
     25  CA        27.4450   12.0190    9.4030 C.3   117  GLN117      0.1601
     26  C         28.0280   12.3450    8.0360 C.2   117  GLN117      0.2287
     27  O         28.1330   13.5100    7.6480 O.2   117  GLN117     -0.2864
     28  CB        25.9140   12.1450    9.3060 C.3   117  GLN117      0.0394
     29  CG        25.1980   11.7090   10.5800 C.3   117  GLN117      0.0908
     30  CD        24.2500   12.7390   11.1430 C.2   117  GLN117      0.2608
     31  OE1       24.5630   13.9190   11.2200 O.2   117  GLN117     -0.2717
     32  NE2       23.0830   12.2810   11.5620 N.am  117  GLN117     -0.0878
     33  N         32.6940   13.2170   18.4810 N.3   147  TYR147     -0.1227
     34  CA        32.3250   11.8870   18.0100 C.3   147  TYR147      0.1736
     35  C         31.6450   11.9550   16.6440 C.2   147  TYR147      0.2595
     36  O         30.6850   12.7000   16.4520 O.2   147  TYR147     -0.2718
     37  CB        31.3980   11.2850   19.0640 C.3   147  TYR147      0.0548
     38  CG        30.8930    9.8970   18.8340 C.ar  147  TYR147     -0.0200
     39  CD1       29.5580    9.6890   18.6150 C.ar  147  TYR147     -0.0009
     40  CD2       31.7270    8.8150   18.9500 C.ar  147  TYR147     -0.0009
     41  CE1       29.0490    8.3840   18.4810 C.ar  147  TYR147      0.0417
     42  CE2       31.2500    7.5050   18.8130 C.ar  147  TYR147      0.0417
     43  CZ        29.9210    7.3290   18.5590 C.ar  147  TYR147      0.1957
     44  OH        29.4240    6.0370   18.4410 O.3   147  TYR147     -0.2866
     45  N         32.0930   11.1210   15.7020 N.am  148  ALA148     -0.1966
     46  CA        31.6980   11.3420   14.2980 C.3   148  ALA148      0.1728
     47  C         31.9560   10.1320   13.4410 C.2   148  ALA148      0.2616
     48  O         33.0920    9.5900   13.4560 O.2   148  ALA148     -0.2715
     49  CB        32.4690   12.5450   13.7060 C.3   148  ALA148      0.0334
     50  N         30.9530    9.7460   12.6660 N.am  149  ASN149     -0.1972
     51  CA        31.0890    8.6040   11.7410 C.3   149  ASN149      0.1688
     52  C         32.0380    8.9230   10.5980 C.2   149  ASN149      0.2292
     53  O         32.7250    8.0140   10.1050 O.2   149  ASN149     -0.2864
     54  CB        29.7230    8.1920   11.1960 C.3   149  ASN149      0.1181
     55  CG        28.8980    7.5290   12.2330 C.2   149  ASN149      0.2629
     56  OD1       29.4360    7.0060   13.1930 O.2   149  ASN149     -0.2716
     57  ND2       27.5850    7.5130   12.0450 N.am  149  ASN149     -0.0877
     58  N         18.8480   -0.8950    9.2890 N.3   208  VAL208     -0.1245
     59  CA        19.7680    0.1930    8.9180 C.3   208  VAL208      0.1561
     60  C         19.9030    0.2890    7.3820 C.2   208  VAL208      0.2260
     61  O         19.9480   -0.7120    6.6730 O.2   208  VAL208     -0.2867
     62  CB        21.1390    0.0030    9.6260 C.3   208  VAL208      0.0252
     63  CG1       21.8610   -1.2110    9.0780 C.3   208  VAL208      0.0019
     64  CG2       22.0450    1.2610    9.5090 C.3   208  VAL208      0.0019
     65  N         29.3320    1.7840   11.5040 N.3   218  TYR218     -0.1241
     66  CA        28.1030    1.3610   12.1970 C.3   218  TYR218      0.1605
     67  C         27.3860    0.1380   11.6300 C.2   218  TYR218      0.2264
     68  O         26.2470   -0.1310   12.0210 O.2   218  TYR218     -0.2867
     69  CB        27.1170    2.5210   12.2800 C.3   218  TYR218      0.0534
     70  CG        26.7640    3.1380   10.9340 C.ar  218  TYR218     -0.0201
     71  CD1       25.7170    2.6140   10.1500 C.ar  218  TYR218     -0.0009
     72  CD2       27.3820    4.3030   10.5020 C.ar  218  TYR218     -0.0009
     73  CE1       25.3690    3.1680    8.9450 C.ar  218  TYR218      0.0417
     74  CE2       27.0510    4.8650    9.2790 C.ar  218  TYR218      0.0417
     75  CZ        26.0220    4.3050    8.5160 C.ar  218  TYR218      0.1957
     76  OH        25.6510    4.8900    7.3150 O.3   218  TYR218     -0.2866
     77  N         22.8700   15.4370   20.8090 N.3   283  ALA283     -0.1245
     78  CA        23.1060   15.0470   19.4250 C.3   283  ALA283      0.1562
     79  C         24.5650   15.2250   19.0330 C.2   283  ALA283      0.2260
     80  O         25.0900   14.4260   18.2580 O.2   283  ALA283     -0.2867
     81  CB        22.2460   15.8740   18.4970 C.3   283  ALA283      0.0290
     82  N         23.9420    2.3680   18.5550 N.3   309  ALA309     -0.1231
     83  CA        22.5480    2.5560   18.1920 C.3   309  ALA309      0.1694
     84  C         22.4150    2.6130   16.6820 C.2   309  ALA309      0.2593
     85  O         23.2800    3.1760   15.9720 O.2   309  ALA309     -0.2718
     86  CB        22.0020    3.8170   18.8210 C.3   309  ALA309      0.0304
     87  N         21.3380    2.0390   16.1770 N.am  310  THR310     -0.1939
     88  CA        20.8510    2.3810   14.8630 C.3   310  THR310      0.2028
     89  C         19.4090    2.8170   15.0700 C.2   310  THR310      0.2642
     90  O         18.9500    2.8950   16.2220 O.2   310  THR310     -0.2714
     91  CB        20.8750    1.1910   13.9050 C.3   310  THR310      0.1808
     92  OG1       20.0220    0.1610   14.4330 O.3   310  THR310     -0.2208
     93  CG2       22.2650    0.6240   13.7480 C.3   310  THR310      0.0379
     94  N         18.6920    3.1380   14.0030 N.am  311  GLY311     -0.1954
     95  CA        17.3120    3.5860   14.1600 C.3   311  GLY311      0.1869
     96  C         16.4650    2.6200   14.9700 C.2   311  GLY311      0.2309
     97  O         15.6460    3.0290   15.7840 O.2   311  GLY311     -0.2863
@<TRIPOS>BOND
     1    61    60    2
     2    76    75    1
     3    60    59    1
     4    27    26    2
     5    26    25    1
     6    75    73   ar
     7    75    74   ar
     8    59    58    1
     9    59    62    1
    10    73    71   ar
    11    63    62    1
    12    74    72   ar
    13    28    25    1
    14    28    29    1
    15    25    24    1
    16    64    62    1
    17    53    52    2
    18    71    70   ar
    19    24    18   am
    20    72    70   ar
    21    29    30    1
    22    52    51    1
    23    70    69    1
    24    30    31    2
    25    30    32   am
    26    54    51    1
    27    54    55    1
    28    65    66    1
    29    18    19    2
    30    18    17    1
    31    67    68    2
    32    67    66    1
    33    51    50    1
    34    16    17    1
    35    57    55   am
    36    66    69    1
    37    55    56    2
    38    17    20    1
    39    50    47   am
    40    20    21    1
    41    47    48    2
    42    47    46    1
    43    49    46    1
    44    93    91    1
    45    91    92    1
    46    91    88    1
    47    94    95    1
    48    94    89   am
    49    95    96    1
    50    46    45    1
    51    21    22    1
    52    21    23    1
    53    88    89    1
    54    88    87    1
    55    15    14    1
    56    96    97    2
    57    89    90    2
    58    14    13    1
    59    12    13    1
    60    12    11    1
    61    45    35   am
    62     7     8    1
    63     8    11    1
    64     8     9    1
    65    85    84    2
    66    87    84   am
    67    10     9    2
    68     1     2    1
    69    36    35    2
    70     6     5    1
    71    35    34    1
    72    84    83    1
    73     2     5    1
    74     2     3    1
    75     3     4    2
    76    34    33    1
    77    34    37    1
    78    83    82    1
    79    83    86    1
    80    80    79    2
    81    44    43    1
    82    41    43   ar
    83    41    39   ar
    84    81    78    1
    85    43    42   ar
    86    39    38   ar
    87    42    40   ar
    88    38    40   ar
    89    38    37    1
    90    79    78    1
    91    78    77    1
