@<TRIPOS>MOLECULE
tmp/4lv4A00.pdb
 97 91 0 0 0
SMALL
GASTEIGER

@<TRIPOS>ATOM
      1  N         10.3530  164.5110   29.9980 N.3    94  ASP94      -0.1225
      2  CA        10.9160  163.5250   29.0960 C.3    94  ASP94       0.1805
      3  C         12.4410  163.6230   29.1690 C.2    94  ASP94       0.2597
      4  O         12.9650  164.4590   29.9090 O.2    94  ASP94      -0.2718
      5  CB        10.4050  163.8110   27.6740 C.3    94  ASP94       0.1424
      6  CG        10.5380  162.6320   26.7500 C.2    94  ASP94       0.3668
      7  OD1       10.8630  161.5280   27.2330 O.co2  94  ASP94      -0.2456
      8  OD2       10.2930  162.8030   25.5320 O.co2  94  ASP94      -0.2456
      9  N         13.1230  162.7650   28.4040 N.am   95  HIS95      -0.1975
     10  CA        14.5960  162.6840   28.2980 C.3    95  HIS95       0.1656
     11  C         15.4130  163.7890   28.9520 C.2    95  HIS95       0.2291
     12  O         15.4910  164.8960   28.4360 O.2    95  HIS95      -0.2864
     13  CB        15.0240  162.6330   26.8260 C.3    95  HIS95       0.0771
     14  CG        14.6390  161.3740   26.1150 C.ar   95  HIS95       0.0820
     15  ND1       15.4310  160.2440   26.1170 N.ar   95  HIS95      -0.2267
     16  CD2       13.5660  161.0790   25.3420 C.ar   95  HIS95       0.1154
     17  CE1       14.8540  159.3020   25.3910 C.ar   95  HIS95       0.1986
     18  NE2       13.7210  159.7830   24.9100 N.ar   95  HIS95      -0.2212
     19  N         16.2420  155.0070   31.3140 N.3   160  GLU160     -0.1245
     20  CA        16.4890  154.3170   30.0550 C.3   160  GLU160      0.1567
     21  C         17.7950  153.5680   30.1420 C.2   160  GLU160      0.2260
     22  O         18.8500  154.1580   30.3890 O.2   160  GLU160     -0.2867
     23  CB        16.5330  155.2750   28.8640 C.3   160  GLU160      0.0388
     24  CG        16.8970  154.5610   27.5710 C.3   160  GLU160      0.1160
     25  CD        16.6250  155.3980   26.3360 C.2   160  GLU160      0.3649
     26  OE1       15.4560  155.7600   26.1230 O.co2 160  GLU160     -0.2457
     27  OE2       17.5750  155.6920   25.5800 O.co2 160  GLU160     -0.2457
     28  N         22.0530  153.1800   22.8230 N.3   164  VAL164     -0.1245
     29  CA        21.3060  153.6660   21.6700 C.3   164  VAL164      0.1561
     30  C         22.1070  153.4760   20.3760 C.2   164  VAL164      0.2260
     31  O         23.2250  153.9750   20.2440 O.2   164  VAL164     -0.2867
     32  CB        20.9090  155.1480   21.8420 C.3   164  VAL164      0.0252
     33  CG1       20.2140  155.6710   20.5890 C.3   164  VAL164      0.0019
     34  CG2       20.0180  155.3110   23.0620 C.3   164  VAL164      0.0019
     35  N         16.6110  154.9720   15.0220 N.3   166  GLU166     -0.1231
     36  CA        17.4150  154.5390   16.1610 C.3   166  GLU166      0.1699
     37  C         16.6480  153.5690   17.0600 C.2   166  GLU166      0.2592
     38  O         15.4180  153.6260   17.1530 O.2   166  GLU166     -0.2718
     39  CB        17.8980  155.7430   16.9760 C.3   166  GLU166      0.0402
     40  CG        18.7970  156.7060   16.2090 C.3   166  GLU166      0.1161
     41  CD        20.1530  156.1110   15.8690 C.2   166  GLU166      0.3649
     42  OE1       20.8520  155.6390   16.7920 O.co2 166  GLU166     -0.2457
     43  OE2       20.5220  156.1190   14.6740 O.co2 166  GLU166     -0.2457
     44  N         17.3880  152.6810   17.7210 N.am  167  LYS167     -0.1966
     45  CA        16.7980  151.6630   18.5850 C.3   167  LYS167      0.1728
     46  C         17.6200  151.4470   19.8540 C.2   167  LYS167      0.2616
     47  O         18.8140  151.7530   19.9000 O.2   167  LYS167     -0.2715
     48  CB        16.6410  150.3430   17.8260 C.3   167  LYS167      0.0311
     49  CG        15.2840  150.1530   17.1590 C.3   167  LYS167      0.0038
     50  CD        14.2860  149.5490   18.1350 C.3   167  LYS167      0.0206
     51  CE        14.8980  148.3500   18.8610 C.3   167  LYS167      0.1093
     52  NZ        13.9170  147.6190   19.7080 N.3   167  LYS167     -0.1314
     53  N         16.9660  150.9120   20.8820 N.am  168  LEU168     -0.1977
     54  CA        17.5880  150.7070   22.1850 C.3   168  LEU168      0.1596
     55  C         17.8620  149.2340   22.4510 C.2   168  LEU168      0.2287
     56  O         16.9230  148.4500   22.6290 O.2   168  LEU168     -0.2864
     57  CB        16.6780  151.2540   23.2900 C.3   168  LEU168      0.0297
     58  CG        17.1660  151.1300   24.7360 C.3   168  LEU168      0.0022
     59  CD1       18.3800  152.0240   24.9920 C.3   168  LEU168      0.0001
     60  CD2       16.0350  151.4580   25.7080 C.3   168  LEU168      0.0001
     61  N         12.2540  150.1980   23.1780 N.3   195  THR195     -0.1218
     62  CA        11.8320  150.4430   21.8010 C.3   195  THR195      0.1862
     63  C         11.3860  149.1270   21.1600 C.2   195  THR195      0.2287
     64  O         11.4400  148.0610   21.7960 O.2   195  THR195     -0.2866
     65  CB        12.9470  151.0920   20.9440 C.3   195  THR195      0.1770
     66  OG1       14.1520  150.3200   21.0410 O.3   195  THR195     -0.2211
     67  CG2       13.2280  152.5080   21.4090 C.3   195  THR195      0.0375
     68  N          9.1900  153.9610   23.6600 N.3   226  HIS226     -0.1226
     69  CA         9.7420  155.1270   22.9710 C.3   226  HIS226      0.1752
     70  C          9.8910  154.8680   21.4620 C.2   226  HIS226      0.2596
     71  O         10.1050  153.7340   21.0340 O.2   226  HIS226     -0.2718
     72  CB        11.1250  155.4840   23.5310 C.3   226  HIS226      0.0759
     73  CG        11.0980  156.0910   24.8960 C.ar  226  HIS226      0.0818
     74  ND1       11.6330  157.3320   25.1620 N.ar  226  HIS226     -0.2268
     75  CD2       10.6240  155.6250   26.0770 C.ar  226  HIS226      0.1154
     76  CE1       11.4740  157.6150   26.4420 C.ar  226  HIS226      0.1986
     77  NE2       10.8720  156.5920   27.0230 N.ar  226  HIS226     -0.2212
     78  N          9.8120  155.9280   20.6660 N.am  227  GLY227     -0.1957
     79  CA        10.0550  155.8350   19.2320 C.3   227  GLY227      0.1869
     80  C          8.9990  155.0590   18.4670 C.2   227  GLY227      0.2309
     81  O          9.3010  154.3860   17.4810 O.2   227  GLY227     -0.2863
     82  N          5.0950  156.8900   24.4400 N.3   248  ASN248     -0.1240
     83  CA         5.3850  158.2940   24.1820 C.3   248  ASN248      0.1653
     84  C          4.9370  158.6870   22.7770 C.2   248  ASN248      0.2266
     85  O          5.1870  157.9690   21.8160 O.2   248  ASN248     -0.2867
     86  CB         6.8700  158.6040   24.3950 C.3   248  ASN248      0.1155
     87  CG         7.2980  158.4770   25.8740 C.2   248  ASN248      0.2627
     88  OD1        6.5410  158.0020   26.7270 O.2   248  ASN248     -0.2716
     89  ND2        8.5090  158.9180   26.1710 N.am  248  ASN248     -0.0877
     90  N          4.7100  162.1140   20.0900 N.3   250  ASP250     -0.1239
     91  CA         5.0050  163.5200   19.7920 C.3   250  ASP250      0.1674
     92  C          4.7740  163.7990   18.3100 C.2   250  ASP250      0.2266
     93  O          3.8900  164.5760   17.9440 O.2   250  ASP250     -0.2867
     94  CB         6.4390  163.8760   20.2130 C.3   250  ASP250      0.1410
     95  CG         6.7510  165.3650   20.0800 C.2   250  ASP250      0.3668
     96  OD1        5.8230  166.2080   20.0750 O.co2 250  ASP250     -0.2456
     97  OD2        7.9500  165.6950   19.9930 O.co2 250  ASP250     -0.2456
@<TRIPOS>BOND
     1    43    41   ar
     2    35    36    1
     3    41    40    1
     4    41    42   ar
     5    36    39    1
     6    36    37    1
     7    40    39    1
     8    37    38    2
     9    37    44   am
    10    49    48    1
    11    49    50    1
    12    81    80    2
    13    44    45    1
    14    48    45    1
    15    93    92    2
    16    50    51    1
    17    92    91    1
    18    80    79    1
    19    45    46    1
    20    51    52    1
    21    79    78    1
    22    91    90    1
    23    91    94    1
    24    46    47    2
    25    46    53   am
    26    97    95   ar
    27    96    95   ar
    28    95    94    1
    29    31    30    2
    30    30    29    1
    31    33    32    1
    32    78    70   am
    33    53    54    1
    34    65    66    1
    35    65    67    1
    36    65    62    1
    37    71    70    2
    38    63    64    2
    39    63    62    1
    40    70    69    1
    41    29    32    1
    42    29    28    1
    43    62    61    1
    44    85    84    2
    45    32    34    1
    46    54    55    1
    47    54    57    1
    48    55    56    2
    49    84    83    1
    50    69    72    1
    51    69    68    1
    52    57    58    1
    53    72    73    1
    54    83    86    1
    55    83    82    1
    56    86    87    1
    57    58    59    1
    58    58    60    1
    59    73    74   ar
    60    73    75   ar
    61    18    16   ar
    62    18    17   ar
    63    74    76   ar
    64    16    14   ar
    65    17    15   ar
    66     8     6   ar
    67    27    25   ar
    68    87    89   am
    69    87    88    2
    70    75    77   ar
    71    14    15   ar
    72    14    13    1
    73    26    25   ar
    74    25    24    1
    75    76    77   ar
    76     6     7   ar
    77     6     5    1
    78    13    10    1
    79    24    23    1
    80     5     2    1
    81    10     9    1
    82    10    11    1
    83     9     3   am
    84    12    11    2
    85    23    20    1
    86     2     3    1
    87     2     1    1
    88     3     4    2
    89    20    21    1
    90    20    19    1
    91    21    22    2
