@<TRIPOS>MOLECULE
tmp/4lv6B00.pdb
 163 156 0 0 0
SMALL
GASTEIGER

@<TRIPOS>ATOM
      1  N         23.9140    9.9060  -14.6630 N.3     7  VAL7       -0.1245
      2  CA        25.1360    9.1720  -14.3780 C.3     7  VAL7        0.1561
      3  C         24.8920    7.6980  -14.6540 C.2     7  VAL7        0.2260
      4  O         23.9050    7.1270  -14.1650 O.2     7  VAL7       -0.2867
      5  CB        25.6000    9.3960  -12.9250 C.3     7  VAL7        0.0252
      6  CG1       26.9300    8.6940  -12.6580 C.3     7  VAL7        0.0019
      7  CG2       25.7080   10.8920  -12.6160 C.3     7  VAL7        0.0019
      8  N         26.1300    4.0270  -14.0660 N.3     9  VAL9       -0.1231
      9  CA        26.9230    3.2920  -13.1100 C.3     9  VAL9        0.1692
     10  C         26.6990    1.7960  -13.2570 C.2     9  VAL9        0.2593
     11  O         25.7110    1.3260  -13.7920 O.2     9  VAL9       -0.2718
     12  CB        26.6550    3.7370  -11.6530 C.3     9  VAL9        0.0266
     13  CG1       26.6970    5.2540  -11.5260 C.3     9  VAL9        0.0020
     14  CG2       25.3400    3.2220  -11.1620 C.3     9  VAL9        0.0020
     15  N         27.6540    1.0310  -12.7720 N.am   10  GLY10      -0.1942
     16  CA        27.6010   -0.4040  -12.9420 C.3    10  GLY10       0.2014
     17  C         28.9890   -0.9990  -12.9300 C.2    10  GLY10       0.2639
     18  O         29.9800   -0.2950  -13.0880 O.2    10  GLY10      -0.2714
     19  N         29.0400   -2.3170  -12.7780 N.am   11  ALA11      -0.1963
     20  CA        30.3020   -3.0390  -12.7220 C.3    11  ALA11       0.1728
     21  C         31.1010   -2.9260  -14.0100 C.2    11  ALA11       0.2616
     22  O         30.5500   -2.6260  -15.0710 O.2    11  ALA11      -0.2715
     23  CB        30.0540   -4.5120  -12.3760 C.3    11  ALA11       0.0334
     24  N         32.3820   -3.2020  -13.9000 N.am   12  CYS12      -0.1954
     25  CA        33.2410   -3.2270  -15.0650 C.3    12  CYS12       0.1843
     26  C         32.6930   -4.1870  -16.1070 C.2    12  CYS12       0.2626
     27  O         32.4180   -5.3440  -15.8020 O.2    12  CYS12      -0.2714
     28  CB        34.6200   -3.7070  -14.6470 C.3    12  CYS12       0.0997
     29  SG        35.7960   -3.7150  -15.9840 S.3    12  CYS12      -0.0797
     30  N         32.5710   -3.7060  -17.3460 N.am   13  GLY13      -0.1954
     31  CA        32.2370   -4.5620  -18.4720 C.3    13  GLY13       0.1869
     32  C         30.7720   -4.8880  -18.7000 C.2    13  GLY13       0.2309
     33  O         30.4560   -5.7510  -19.5180 O.2    13  GLY13      -0.2863
     34  N         28.2780    0.0020  -19.9550 N.3    16  LYS16      -0.1245
     35  CA        28.0010    1.4070  -19.7070 C.3    16  LYS16       0.1561
     36  C         28.4330    2.2750  -20.8900 C.2    16  LYS16       0.2260
     37  O         27.6540    3.1090  -21.3490 O.2    16  LYS16      -0.2867
     38  CB        28.7170    1.8690  -18.4460 C.3    16  LYS16       0.0271
     39  CG        28.2530    1.1560  -17.1620 C.3    16  LYS16       0.0035
     40  CD        28.9440    1.7200  -15.9250 C.3    16  LYS16       0.0206
     41  CE        30.4540    1.5930  -15.9350 C.3    16  LYS16       0.1093
     42  NZ        30.9270    0.1770  -16.0250 N.3    16  LYS16      -0.1314
     43  N         38.5490    0.9920  -21.1370 N.3    34  PRO34      -0.2116
     44  CA        37.8090    0.9560  -19.8680 C.3    34  PRO34       0.1372
     45  C         38.1880    2.0490  -18.8810 C.2    34  PRO34       0.2244
     46  O         37.5130    2.1740  -17.8550 O.2    34  PRO34      -0.2868
     47  CB        38.1380   -0.4280  -19.3120 C.3    34  PRO34       0.0268
     48  CG        39.4290   -0.7860  -19.9320 C.3    34  PRO34       0.0207
     49  CD        39.3780   -0.2120  -21.3080 C.3    34  PRO34       0.0892
     50  N         36.5240    7.9210  -18.6980 N.3    37  GLU37      -0.1245
     51  CA        35.3570    8.4350  -18.0120 C.3    37  GLU37       0.1567
     52  C         35.1060    9.8050  -18.6060 C.2    37  GLU37       0.2260
     53  O         35.9740   10.6780  -18.5530 O.2    37  GLU37      -0.2867
     54  CB        35.6610    8.5480  -16.5210 C.3    37  GLU37       0.0388
     55  CG        34.5400    9.1580  -15.7130 C.3    37  GLU37       0.1160
     56  CD        34.7500    8.9500  -14.2420 C.2    37  GLU37       0.3649
     57  OE1       34.0210    8.1280  -13.6470 O.co2  37  GLU37      -0.2457
     58  OE2       35.6630    9.6000  -13.6940 O.co2  37  GLU37      -0.2457
     59  N         30.7140    6.4450  -16.2990 N.3    58  THR58      -0.1203
     60  CA        31.7040    6.3790  -15.2220 C.3    58  THR58       0.1994
     61  C         32.7220    5.2870  -15.4560 C.2    58  THR58       0.2618
     62  O         32.4160    4.2520  -16.0390 O.2    58  THR58      -0.2717
     63  CB        31.0360    6.1440  -13.8420 C.3    58  THR58       0.1784
     64  OG1       30.3490    4.8930  -13.8700 O.3    58  THR58      -0.2211
     65  CG2       30.0820    7.2760  -13.5240 C.3    58  THR58       0.0376
     66  N         33.9400    5.5360  -14.9710 N.am   59  ALA59      -0.1965
     67  CA        35.0140    4.5540  -14.9870 C.3    59  ALA59       0.1728
     68  C         36.0160    4.9610  -13.9260 C.2    59  ALA59       0.2617
     69  O         36.3970    6.1270  -13.8390 O.2    59  ALA59      -0.2715
     70  CB        35.6820    4.5040  -16.3750 C.3    59  ALA59       0.0334
     71  N         36.4390    4.0020  -13.1120 N.am   60  GLY60      -0.1940
     72  CA        37.4050    4.2720  -12.0650 C.3    60  GLY60       0.2014
     73  C         37.8180    2.9820  -11.4000 C.2    60  GLY60       0.2639
     74  O         37.5440    1.8930  -11.9040 O.2    60  GLY60      -0.2714
     75  N         38.5030    3.1050  -10.2720 N.am   61  GLN61      -0.1963
     76  CA        38.9250    1.9400   -9.5200 C.3    61  GLN61       0.1733
     77  C         37.9210    1.6320   -8.4220 C.2    61  GLN61       0.2616
     78  O         37.0970    2.4740   -8.0610 O.2    61  GLN61      -0.2715
     79  CB        40.3110    2.1970   -8.9200 C.3    61  GLN61       0.0408
     80  CG        41.4680    2.0670   -9.9270 C.3    61  GLN61       0.0908
     81  CD        41.3570    2.9990  -11.1270 C.2    61  GLN61       0.2608
     82  OE1       41.4760    4.2140  -11.0010 O.2    61  GLN61      -0.2717
     83  NE2       41.1220    2.4260  -12.2950 N.am   61  GLN61      -0.0878
     84  N         37.9980    0.4120   -7.9060 N.am   62  GLU62      -0.1977
     85  CA        37.1960    0.0180   -6.7510 C.3    62  GLU62       0.1602
     86  C         37.8330    0.6520   -5.5360 C.2    62  GLU62       0.2287
     87  O         38.7480    0.0770   -4.9500 O.2    62  GLU62      -0.2864
     88  CB        37.2260   -1.4870   -6.5790 C.3    62  GLU62       0.0415
     89  CG        36.4620   -2.2830   -7.6020 C.3    62  GLU62       0.1163
     90  CD        36.5020   -3.7620   -7.2630 C.2    62  GLU62       0.3649
     91  OE1       35.8680   -4.1550   -6.2660 O.co2  62  GLU62      -0.2457
     92  OE2       37.1970   -4.5280   -7.9570 O.co2  62  GLU62      -0.2457
     93  N         34.4450   10.9640   -7.0620 N.3    68  ARG68      -0.1245
     94  CA        33.2580   10.1830   -7.3590 C.3    68  ARG68       0.1563
     95  C         32.1010   10.6730   -6.4970 C.2    68  ARG68       0.2260
     96  O         30.9740   10.7430   -6.9570 O.2    68  ARG68      -0.2867
     97  CB        33.4930    8.6900   -7.1370 C.3    68  ARG68       0.0307
     98  CG        32.2840    7.8290   -7.4730 C.3    68  ARG68       0.0489
     99  CD        32.4730    6.3700   -7.0780 C.3    68  ARG68       0.2205
    100  NE        33.3450    5.6780   -8.0250 N.pl3  68  ARG68      -0.0865
    101  CZ        34.5380    5.1590   -7.7410 C.cat  68  ARG68       0.5346
    102  NH1       35.0390    5.2250   -6.5120 N.pl3  68  ARG68       0.1354
    103  NH2       35.2350    4.5600   -8.7030 N.pl3  68  ARG68       0.1354
    104  N         30.6440   13.5200   -8.2550 N.3    71  TYR71      -0.1227
    105  CA        29.8170   13.0760   -9.3840 C.3    71  TYR71       0.1736
    106  C         28.4260   12.6640   -8.8970 C.2    71  TYR71       0.2595
    107  O         27.4070   12.9700   -9.5310 O.2    71  TYR71      -0.2718
    108  CB        30.4700   11.8860  -10.1100 C.3    71  TYR71       0.0548
    109  CG        31.6670   12.2170  -10.9630 C.ar   71  TYR71      -0.0200
    110  CD1       31.8140   13.4690  -11.5200 C.ar   71  TYR71      -0.0009
    111  CD2       32.6420   11.2640  -11.2140 C.ar   71  TYR71      -0.0009
    112  CE1       32.9040   13.7760  -12.3120 C.ar   71  TYR71       0.0417
    113  CE2       33.7380   11.5560  -11.9950 C.ar   71  TYR71       0.0417
    114  CZ        33.8650   12.8150  -12.5450 C.ar   71  TYR71       0.1957
    115  OH        34.9550   13.1210  -13.3300 O.3    71  TYR71      -0.2866
    116  N         28.3680   11.9660   -7.7680 N.am   72  MET72      -0.1979
    117  CA        27.0880   11.5520   -7.2090 C.3    72  MET72       0.1605
    118  C         26.2730   12.7360   -6.7030 C.2    72  MET72       0.2287
    119  O         25.0610   12.7970   -6.8990 O.2    72  MET72      -0.2864
    120  CB        27.3010   10.5350   -6.0980 C.3    72  MET72       0.0413
    121  CG        27.8140    9.2070   -6.6090 C.3    72  MET72       0.0598
    122  SD        27.8290    7.9450   -5.3180 S.3    72  MET72      -0.1393
    123  CE        29.5810    7.6410   -5.1180 C.3    72  MET72       0.0692
    124  N         20.4000    8.2690  -11.9820 N.3    78  PHE78      -0.1241
    125  CA        21.4030    7.2250  -12.1580 C.3    78  PHE78       0.1605
    126  C         20.8300    6.0160  -12.8690 C.2    78  PHE78       0.2264
    127  O         19.7520    5.5230  -12.4900 O.2    78  PHE78      -0.2867
    128  CB        21.9540    6.8050  -10.7940 C.3    78  PHE78       0.0534
    129  CG        22.5970    7.9470  -10.0590 C.ar   78  PHE78      -0.0203
    130  CD1       21.8190    8.8650   -9.4130 C.ar   78  PHE78      -0.0042
    131  CD2       23.9600    8.1120  -10.0680 C.ar   78  PHE78      -0.0042
    132  CE1       22.3670    9.9430   -8.7750 C.ar   78  PHE78      -0.0003
    133  CE2       24.5280    9.2060   -9.4300 C.ar   78  PHE78      -0.0003
    134  CZ        23.7280   10.1150   -8.7950 C.ar   78  PHE78      -0.0000
    135  N         26.1660   -0.2690   -5.1140 N.3    96  TYR96      -0.1241
    136  CA        26.2800    0.9980   -5.8150 C.3    96  TYR96       0.1605
    137  C         25.1460    1.9420   -5.4090 C.2    96  TYR96       0.2264
    138  O         25.3580    3.1330   -5.1920 O.2    96  TYR96      -0.2867
    139  CB        26.2670    0.7530   -7.3220 C.3    96  TYR96       0.0534
    140  CG        27.3460   -0.1970   -7.7950 C.ar   96  TYR96      -0.0201
    141  CD1       28.5630   -0.3170   -7.1150 C.ar   96  TYR96      -0.0009
    142  CD2       27.1510   -0.9920   -8.9220 C.ar   96  TYR96      -0.0009
    143  CE1       29.5520   -1.1920   -7.5560 C.ar   96  TYR96       0.0417
    144  CE2       28.1190   -1.8660   -9.3520 C.ar   96  TYR96       0.0417
    145  CZ        29.3190   -1.9590   -8.6810 C.ar   96  TYR96       0.1957
    146  OH        30.2860   -2.8330   -9.1140 O.3    96  TYR96      -0.2866
    147  N         25.9040    3.4810   -2.0690 N.3    99  GLN99      -0.1231
    148  CA        26.8590    4.5900   -2.1740 C.3    99  GLN99       0.1698
    149  C         26.1860    5.8910   -2.5710 C.2    99  GLN99       0.2592
    150  O         26.4700    6.9450   -2.0160 O.2    99  GLN99      -0.2718
    151  CB        27.9960    4.2660   -3.1480 C.3    99  GLN99       0.0381
    152  CG        28.9750    3.2220   -2.6350 C.3    99  GLN99       0.0905
    153  CD        29.5660    3.5890   -1.2790 C.2    99  GLN99       0.2608
    154  OE1       30.2130    4.6240   -1.1330 O.2    99  GLN99      -0.2717
    155  NE2       29.3240    2.7490   -0.2780 N.am   99  GLN99      -0.0878
    156  N         25.2900    5.8100   -3.5440 N.am  100  ILE100     -0.1980
    157  CA        24.5220    6.9730   -3.9640 C.3   100  ILE100      0.1595
    158  C         23.6780    7.4780   -2.7920 C.2   100  ILE100      0.2287
    159  O         23.6330    8.6750   -2.5210 O.2   100  ILE100     -0.2864
    160  CB        23.6210    6.6540   -5.1850 C.3   100  ILE100      0.0276
    161  CG1       24.4920    6.2890   -6.3940 C.3   100  ILE100      0.0022
    162  CG2       22.7490    7.8600   -5.5230 C.3   100  ILE100      0.0022
    163  CD1       23.7730    5.4360   -7.4060 C.3   100  ILE100      0.0001
@<TRIPOS>BOND
     1    37    36    2
     2    49    43    1
     3    49    48    1
     4    43    44    1
     5    36    35    1
     6    34    35    1
     7    48    47    1
     8    44    47    1
     9    44    45    1
    10    35    38    1
    11    33    32    2
    12    45    46    2
    13    32    31    1
    14    50    51    1
    15    52    53    2
    16    52    51    1
    17    31    30    1
    18    38    39    1
    19    51    54    1
    20    30    26   am
    21    39    40    1
    22    54    55    1
    23    70    67    1
    24    59    60    1
    25    26    27    2
    26    26    25    1
    27    62    61    2
    28    42    41    1
    29    29    28    1
    30    41    40    1
    31    55    56    1
    32    61    60    1
    33    61    66   am
    34    60    63    1
    35    22    21    2
    36    25    28    1
    37    25    24    1
    38    67    66    1
    39    67    68    1
    40     1     2    1
    41     3     2    1
    42     3     4    2
    43     2     5    1
    44    56    58   ar
    45    56    57   ar
    46     8     9    1
    47    21    24   am
    48    21    20    1
    49    68    69    2
    50    68    71   am
    51    64    63    1
    52    63    65    1
    53    11    10    2
    54   115   114    1
    55    10     9    1
    56    10    15   am
    57    71    72    1
    58     9    12    1
    59    18    17    2
    60    16    17    1
    61    16    15    1
    62    17    19   am
    63     5     6    1
    64     5     7    1
    65   126   127    2
    66   126   125    1
    67    19    20    1
    68    20    23    1
    69   114   112   ar
    70   114   113   ar
    71   112   110   ar
    72    83    81   am
    73   125   124    1
    74   125   128    1
    75    72    73    1
    76   113   111   ar
    77    74    73    2
    78    12    13    1
    79    12    14    1
    80   110   109   ar
    81    73    75   am
    82   111   109   ar
    83    81    82    2
    84    81    80    1
    85   109   108    1
    86   128   129    1
    87    75    76    1
    88   108   105    1
    89   131   129   ar
    90   131   133   ar
    91   129   130   ar
    92    80    79    1
    93   107   106    2
    94    76    79    1
    95    76    77    1
    96   133   134   ar
    97   130   132   ar
    98   105   106    1
    99   105   104    1
   100   144   142   ar
   101   144   145   ar
   102   146   145    1
   103   142   140   ar
   104   106   116   am
   105   134   132   ar
   106   103   101    1
   107   145   143   ar
   108    77    78    2
   109    77    84   am
   110   100   101    2
   111   100    99    1
   112    92    90   ar
   113    84    85    1
   114   140   139    1
   115   140   141   ar
   116   116   117    1
   117   101   102    1
   118    89    90    1
   119    89    88    1
   120   143   141   ar
   121    98    97    1
   122    98    99    1
   123   163   161    1
   124    94    97    1
   125    94    93    1
   126    94    95    1
   127   139   136    1
   128    90    91   ar
   129   117   118    1
   130   117   120    1
   131    96    95    2
   132   119   118    2
   133    85    88    1
   134    85    86    1
   135   121   120    1
   136   121   122    1
   137   161   160    1
   138   136   137    1
   139   136   135    1
   140    86    87    2
   141   162   160    1
   142   137   138    2
   143   122   123    1
   144   160   157    1
   145   157   156    1
   146   157   158    1
   147   156   149   am
   148   151   152    1
   149   151   148    1
   150   158   159    2
   151   152   153    1
   152   149   148    1
   153   149   150    2
   154   148   147    1
   155   153   154    2
   156   153   155   am
