@<TRIPOS>MOLECULE
tmp/4lv7B01.pdb
 165 157 0 0 0
SMALL
GASTEIGER

@<TRIPOS>ATOM
      1  N         15.5310   33.4270  -24.4320 N.3    14  ARG14      -0.1231
      2  CA        16.7910   32.6980  -24.3870 C.3    14  ARG14       0.1694
      3  C         16.9860   32.0570  -23.0280 C.2    14  ARG14       0.2593
      4  O         17.8100   31.1480  -22.8630 O.2    14  ARG14      -0.2718
      5  CB        17.9560   33.6220  -24.7460 C.3    14  ARG14       0.0321
      6  CG        19.2650   33.2880  -24.1160 C.3    14  ARG14       0.0489
      7  CD        19.8290   31.9510  -24.5480 C.3    14  ARG14       0.2205
      8  NE        21.0860   32.1420  -25.2640 N.pl3  14  ARG14      -0.0865
      9  CZ        21.1840   32.1190  -26.5830 C.cat  14  ARG14       0.5346
     10  NH1       20.1070   31.8790  -27.3170 N.pl3  14  ARG14       0.1354
     11  NH2       22.3520   32.3250  -27.1550 N.pl3  14  ARG14       0.1354
     12  N         16.2080   32.5220  -22.0550 N.am   15  GLY15      -0.1942
     13  CA        16.2720   31.9860  -20.7090 C.3    15  GLY15       0.2014
     14  C         16.3630   33.0930  -19.6790 C.2    15  GLY15       0.2639
     15  O         16.4500   34.2710  -20.0250 O.2    15  GLY15      -0.2714
     16  N         16.3420   32.7120  -18.4070 N.am   16  GLU16      -0.1963
     17  CA        16.3150   33.6810  -17.3250 C.3    16  GLU16       0.1733
     18  C         16.8480   33.0750  -16.0330 C.2    16  GLU16       0.2617
     19  O         16.8430   31.8520  -15.8570 O.2    16  GLU16      -0.2715
     20  CB        14.8890   34.1640  -17.0830 C.3    16  GLU16       0.0429
     21  CG        13.9950   33.0980  -16.4560 C.3    16  GLU16       0.1163
     22  CD        12.5380   33.5430  -16.2990 C.2    16  GLU16       0.3649
     23  OE1       11.6710   33.0690  -17.0650 O.co2  16  GLU16      -0.2457
     24  OE2       12.2550   34.3590  -15.3960 O.co2  16  GLU16      -0.2457
     25  N         17.3130   33.9520  -15.1410 N.am   17  GLY17      -0.1940
     26  CA        17.5650   33.6130  -13.7490 C.3    17  GLY17       0.2014
     27  C         16.4200   34.1710  -12.9230 C.2    17  GLY17       0.2639
     28  O         15.2620   34.1230  -13.3440 O.2    17  GLY17      -0.2714
     29  N         16.7250   34.7080  -11.7500 N.am   18  GLY18      -0.1939
     30  CA        15.6950   35.2990  -10.9230 C.3    18  GLY18       0.2014
     31  C         15.6300   36.8010  -11.1230 C.2    18  GLY18       0.2639
     32  O         14.5780   37.4130  -10.9250 O.2    18  GLY18      -0.2714
     33  N         16.7470   37.3940  -11.5360 N.am   19  ALA19      -0.1963
     34  CA        16.8360   38.8460  -11.6620 C.3    19  ALA19       0.1728
     35  C         16.4720   39.4060  -13.0390 C.2    19  ALA19       0.2616
     36  O         15.7950   40.4190  -13.1430 O.2    19  ALA19      -0.2715
     37  CB        18.2190   39.3170  -11.2630 C.3    19  ALA19       0.0334
     38  N         16.9380   38.7520  -14.0920 N.am   20  ASN20      -0.1972
     39  CA        16.8080   39.2690  -15.4480 C.3    20  ASN20       0.1688
     40  C         16.2420   38.2390  -16.4240 C.2    20  ASN20       0.2292
     41  O         16.3250   37.0320  -16.2060 O.2    20  ASN20      -0.2864
     42  CB        18.1760   39.7270  -15.9810 C.3    20  ASN20       0.1181
     43  CG        18.9380   40.6090  -15.0010 C.2    20  ASN20       0.2629
     44  OD1       19.3170   40.1710  -13.9130 O.2    20  ASN20      -0.2716
     45  ND2       19.2020   41.8520  -15.4060 N.am   20  ASN20      -0.0877
     46  N         16.2850   37.1210  -20.6260 N.3    22  VAL22      -0.1245
     47  CA        17.2500   37.2000  -21.7320 C.3    22  VAL22       0.1561
     48  C         16.7170   36.6980  -23.0820 C.2    22  VAL22       0.2260
     49  O         16.3170   35.5570  -23.2240 O.2    22  VAL22      -0.2867
     50  CB        18.5870   36.5100  -21.3820 C.3    22  VAL22       0.0252
     51  CG1       19.5560   36.6150  -22.5500 C.3    22  VAL22       0.0019
     52  CG2       19.2000   37.1580  -20.1240 C.3    22  VAL22       0.0019
     53  N         22.3570   39.5450  -27.3670 N.3    36  VAL36      -0.1245
     54  CA        21.1560   39.3210  -26.5600 C.3    36  VAL36       0.1561
     55  C         20.8640   40.5720  -25.7490 C.2    36  VAL36       0.2260
     56  O         21.7410   41.4050  -25.5300 O.2    36  VAL36      -0.2867
     57  CB        21.2770   38.1320  -25.5770 C.3    36  VAL36       0.0252
     58  CG1       21.4300   36.8180  -26.3300 C.3    36  VAL36       0.0019
     59  CG2       22.4210   38.3510  -24.6140 C.3    36  VAL36       0.0019
     60  N         19.4170   41.9920  -22.0630 N.3    38  ARG38      -0.1245
     61  CA        19.1940   41.5720  -20.6920 C.3    38  ARG38       0.1563
     62  C         18.1610   42.4760  -20.0570 C.2    38  ARG38       0.2260
     63  O         18.4190   43.6450  -19.8270 O.2    38  ARG38      -0.2867
     64  CB        20.4990   41.6210  -19.8930 C.3    38  ARG38       0.0307
     65  CG        20.4000   41.0000  -18.5070 C.3    38  ARG38       0.0489
     66  CD        21.7530   40.8680  -17.8080 C.3    38  ARG38       0.2205
     67  NE        21.6540   39.9710  -16.6580 N.pl3  38  ARG38      -0.0865
     68  CZ        22.4610   39.9900  -15.6010 C.cat  38  ARG38       0.5346
     69  NH1       23.4520   40.8610  -15.5330 N.pl3  38  ARG38       0.1354
     70  NH2       22.2790   39.1310  -14.6090 N.pl3  38  ARG38       0.1354
     71  N         24.1310   42.8020  -24.7460 N.3   130  LEU130     -0.1231
     72  CA        25.3700   42.0590  -24.5010 C.3   130  LEU130      0.1693
     73  C         25.7210   41.2230  -25.7200 C.2   130  LEU130      0.2592
     74  O         24.8370   40.9200  -26.5150 O.2   130  LEU130     -0.2718
     75  CB        25.1690   41.1240  -23.3060 C.3   130  LEU130      0.0284
     76  CG        24.8370   41.7600  -21.9530 C.3   130  LEU130      0.0019
     77  CD1       24.1500   40.7650  -21.0470 C.3   130  LEU130      0.0001
     78  CD2       26.0800   42.3030  -21.2750 C.3   130  LEU130      0.0001
     79  N         26.9870   40.8400  -25.8790 N.am  131  ASN131     -0.1960
     80  CA        27.3480   39.8760  -26.9240 C.3   131  ASN131      0.1819
     81  C         26.7590   38.5100  -26.6190 C.2   131  ASN131      0.2621
     82  O         26.8450   38.0470  -25.4920 O.2   131  ASN131     -0.2715
     83  CB        28.8660   39.7040  -27.0410 C.3   131  ASN131      0.1195
     84  CG        29.5390   40.8430  -27.7760 C.2   131  ASN131      0.2630
     85  OD1       30.7120   41.1460  -27.5350 O.2   131  ASN131     -0.2716
     86  ND2       28.8070   41.4800  -28.6760 N.am  131  ASN131     -0.0877
     87  N         26.1810   37.8550  -27.6240 N.am  132  ASP132     -0.1957
     88  CA        25.6700   36.4940  -27.4630 C.3   132  ASP132      0.1840
     89  C         26.8080   35.4910  -27.5330 C.2   132  ASP132      0.2622
     90  O         27.3790   35.2770  -28.5860 O.2   132  ASP132     -0.2715
     91  CB        24.6470   36.1640  -28.5430 C.3   132  ASP132      0.1450
     92  CG        24.0900   34.7610  -28.4040 C.2   132  ASP132      0.3671
     93  OD1       24.8150   33.8730  -27.9220 O.co2 132  ASP132     -0.2456
     94  OD2       22.9260   34.5340  -28.7700 O.co2 132  ASP132     -0.2456
     95  N         27.1270   34.8580  -26.4140 N.am  133  HIS133     -0.1959
     96  CA        28.2950   33.9870  -26.3590 C.3   133  HIS133      0.1787
     97  C         28.0510   32.5620  -26.8400 C.2   133  HIS133      0.2620
     98  O         28.9420   31.7180  -26.7640 O.2   133  HIS133     -0.2715
     99  CB        28.9090   34.0010  -24.9610 C.3   133  HIS133      0.0785
    100  CG        29.3470   35.3580  -24.5260 C.ar  133  HIS133      0.0821
    101  ND1       30.1510   36.1680  -25.3120 N.ar  133  HIS133     -0.2267
    102  CD2       29.0850   36.0750  -23.4090 C.ar  133  HIS133      0.1154
    103  CE1       30.3700   37.3040  -24.6900 C.ar  133  HIS133      0.1986
    104  NE2       29.7340   37.2770  -23.5250 N.ar  133  HIS133     -0.2212
    105  N         26.8480   32.2920  -27.3300 N.am  134  SER134     -0.1950
    106  CA        26.5840   31.0020  -27.9600 C.3   134  SER134      0.1924
    107  C         26.8370   31.1130  -29.4700 C.2   134  SER134      0.2314
    108  O         26.8120   30.1120  -30.1990 O.2   134  SER134     -0.2863
    109  CB        25.1800   30.4710  -27.6340 C.3   134  SER134      0.2116
    110  OG        24.2020   31.1380  -28.3960 O.3   134  SER134     -0.2180
    111  N         27.2040   26.5350  -20.7880 N.3   144  GLU144     -0.1245
    112  CA        27.0930   27.3960  -19.6170 C.3   144  GLU144      0.1567
    113  C         27.3620   26.6130  -18.3490 C.2   144  GLU144      0.2260
    114  O         26.7850   25.5580  -18.1350 O.2   144  GLU144     -0.2867
    115  CB        25.7040   28.0230  -19.5330 C.3   144  GLU144      0.0388
    116  CG        25.5760   29.1050  -18.4750 C.3   144  GLU144      0.1160
    117  CD        24.1360   29.5750  -18.2740 C.2   144  GLU144      0.3649
    118  OE1       23.2300   29.0710  -18.9670 O.co2 144  GLU144     -0.2457
    119  OE2       23.9100   30.4470  -17.4130 O.co2 144  GLU144     -0.2457
    120  N         24.2970   23.7940  -18.9690 N.3   219  ARG219     -0.1245
    121  CA        23.4620   23.9470  -20.1420 C.3   219  ARG219      0.1563
    122  C         24.3460   23.8610  -21.3610 C.2   219  ARG219      0.2260
    123  O         25.4910   24.3160  -21.3390 O.2   219  ARG219     -0.2867
    124  CB        22.7750   25.3080  -20.1500 C.3   219  ARG219      0.0307
    125  CG        21.7170   25.4840  -19.1180 C.3   219  ARG219      0.0489
    126  CD        21.0070   26.7860  -19.3440 C.3   219  ARG219      0.2205
    127  NE        19.9440   26.9400  -18.3660 N.pl3 219  ARG219     -0.0865
    128  CZ        20.0940   27.4690  -17.1560 C.cat 219  ARG219      0.5346
    129  NH1       21.2740   27.9350  -16.7670 N.pl3 219  ARG219      0.1354
    130  NH2       19.0480   27.5320  -16.3370 N.pl3 219  ARG219      0.1354
    131  N         24.1270   24.6210  -25.6740 N.3   221  PHE221     -0.1241
    132  CA        23.3900   25.1890  -26.7890 C.3   221  PHE221      0.1605
    133  C         24.1080   24.8590  -28.0840 C.2   221  PHE221      0.2264
    134  O         25.3260   25.0280  -28.1950 O.2   221  PHE221     -0.2867
    135  CB        23.3130   26.7170  -26.6740 C.3   221  PHE221      0.0534
    136  CG        22.7230   27.2090  -25.3900 C.ar  221  PHE221     -0.0203
    137  CD1       23.5320   27.4700  -24.2980 C.ar  221  PHE221     -0.0042
    138  CD2       21.3590   27.4230  -25.2770 C.ar  221  PHE221     -0.0042
    139  CE1       22.9890   27.9160  -23.1230 C.ar  221  PHE221     -0.0003
    140  CE2       20.8130   27.8720  -24.0950 C.ar  221  PHE221     -0.0003
    141  CZ        21.6270   28.1170  -23.0200 C.ar  221  PHE221     -0.0000
    142  N         30.5050   30.8910  -19.8610 N.3   338  MET338     -0.1245
    143  CA        30.0970   30.3370  -21.1380 C.3   338  MET338      0.1570
    144  C         31.3030   30.0420  -22.0090 C.2   338  MET338      0.2261
    145  O         32.0860   30.9290  -22.3330 O.2   338  MET338     -0.2867
    146  CB        29.0880   31.2350  -21.8540 C.3   338  MET338      0.0387
    147  CG        27.6580   31.0480  -21.3490 C.3   338  MET338      0.0595
    148  SD        26.4080   31.1220  -22.6640 S.3   338  MET338     -0.1393
    149  CE        27.4220   30.7300  -24.0770 C.3   338  MET338      0.0692
    150  N         29.1220   35.5650  -17.4260 N.3   363  ILE363     -0.1231
    151  CA        27.8110   36.1690  -17.5340 C.3   363  ILE363      0.1692
    152  C         27.1040   36.0370  -16.2060 C.2   363  ILE363      0.2592
    153  O         27.6010   35.3760  -15.3080 O.2   363  ILE363     -0.2718
    154  CB        26.9660   35.5130  -18.6390 C.3   363  ILE363      0.0266
    155  CG1       26.6630   34.0560  -18.2980 C.3   363  ILE363      0.0019
    156  CG2       27.6800   35.6020  -19.9840 C.3   363  ILE363      0.0020
    157  CD1       25.9470   33.3460  -19.3770 C.3   363  ILE363      0.0001
    158  N         25.9230   36.6380  -16.1120 N.am  364  ASP364     -0.1974
    159  CA        25.1700   36.7270  -14.8690 C.3   364  ASP364      0.1709
    160  C         26.0830   37.3620  -13.8510 C.2   364  ASP364      0.2293
    161  O         26.3820   36.7800  -12.8130 O.2   364  ASP364     -0.2864
    162  CB        24.6640   35.3580  -14.4000 C.3   364  ASP364      0.1436
    163  CG        23.6500   35.4570  -13.2670 C.2   364  ASP364      0.3671
    164  OD1       23.2320   36.5870  -12.9100 O.co2 364  ASP364     -0.2456
    165  OD2       23.2600   34.4030  -12.7270 O.co2 364  ASP364     -0.2456
@<TRIPOS>BOND
     1   108   107    2
     2   107   106    1
     3    94    92   ar
     4    86    84   am
     5    90    89    2
     6    91    92    1
     7    91    88    1
     8    92    93   ar
     9   110   109    1
    10   134   133    2
    11   133   132    1
    12   106   109    1
    13   106   105    1
    14    84    85    2
    15    84    83    1
    16    87    88    1
    17    87    81   am
    18    89    88    1
    19    89    95   am
    20    53    54    1
    21   105    97   am
    22    10     9    1
    23    11     9    1
    24    83    80    1
    25    80    81    1
    26    80    79    1
    27    97    98    2
    28    97    96    1
    29   132   135    1
    30   132   131    1
    31   135   136    1
    32    81    82    2
    33     9     8    2
    34    54    55    1
    35    54    57    1
    36    74    73    2
    37    95    96    1
    38    96    99    1
    39    58    57    1
    40    79    73   am
    41    55    56    2
    42    73    72    1
    43    57    59    1
    44   136   138   ar
    45   136   137   ar
    46   101   103   ar
    47   101   100   ar
    48   138   140   ar
    49     8     7    1
    50    99   100    1
    51     5     2    1
    52     5     6    1
    53    71    72    1
    54   103   104   ar
    55     7     6    1
    56   100   102   ar
    57    72    75    1
    58     1     2    1
    59     2     3    1
    60   137   139   ar
    61   140   141   ar
    62   149   148    1
    63   104   102   ar
    64    75    76    1
    65    49    48    2
    66   139   141   ar
    67    48    47    1
    68     3     4    2
    69     3    12   am
    70   148   147    1
    71    51    50    1
    72   145   144    2
    73    60    61    1
    74    12    13    1
    75   144   143    1
    76    76    78    1
    77    76    77    1
    78   146   147    1
    79   146   143    1
    80    47    50    1
    81    47    46    1
    82    50    52    1
    83   122   123    2
    84   122   121    1
    85   143   142    1
    86   111   112    1
    87    13    14    1
    88    61    62    1
    89    61    64    1
    90   124   121    1
    91   124   125    1
    92   121   120    1
    93    62    63    2
    94    15    14    2
    95   156   154    1
    96    64    65    1
    97    14    16   am
    98   112   115    1
    99   112   113    1
   100   115   116    1
   101   157   155    1
   102   126   125    1
   103   126   127    1
   104   118   117   ar
   105   154   155    1
   106   154   151    1
   107    65    66    1
   108   116   117    1
   109    16    17    1
   110   127   128    2
   111   113   114    2
   112   117   119   ar
   113    66    67    1
   114   151   150    1
   115   151   152    1
   116    17    20    1
   117    17    18    1
   118   128   129    1
   119   128   130    1
   120    20    21    1
   121    23    22   ar
   122    67    68    2
   123    21    22    1
   124    40    41    2
   125    40    39    1
   126    22    24   ar
   127   152   158   am
   128   152   153    2
   129   158   159    1
   130    18    19    2
   131    18    25   am
   132    42    39    1
   133    42    43    1
   134    68    69    1
   135    68    70    1
   136    39    38    1
   137    45    43   am
   138    25    26    1
   139    43    44    2
   140   159   162    1
   141   159   160    1
   142   162   163    1
   143    38    35   am
   144   160   161    2
   145    26    27    1
   146    28    27    2
   147   163   164   ar
   148   163   165   ar
   149    36    35    2
   150    35    34    1
   151    27    29   am
   152    29    30    1
   153    34    33    1
   154    34    37    1
   155    33    31   am
   156    31    32    2
   157    31    30    1
